0:0:0
     RDKit          3D

 83 89  0  0  1  0  0  0  0  0999 V2000
    5.6296    0.2525    8.3387 C   0  0  0  0  0  0  0  0  0  0  0  0
    4.5171   -0.4935    7.8628 O   0  0  0  0  0  0  0  0  0  0  0  0
    3.3526    0.2584    7.4925 C   0  0  2  0  0  0  0  0  0  0  0  0
    2.2122   -0.7410    7.8442 C   0  0  1  0  0  0  0  0  0  0  0  0
    2.1340   -0.9734    9.3685 C   0  0  0  0  0  0  0  0  0  0  0  0
    0.7594   -0.4749    7.3279 C   0  0  0  0  0  0  0  0  0  0  0  0
    0.5618   -0.0007    5.8629 C   0  0  1  0  0  0  0  0  0  0  0  0
   -0.7736   -0.4219    5.5714 O   0  0  0  0  0  0  0  0  0  0  0  0
   -1.7632    0.5541    5.2905 C   0  0  0  0  0  0  0  0  0  0  0  0
   -1.3114    1.5131    4.1717 C   0  0  1  0  0  0  0  0  0  0  0  0
   -2.3662    2.6069    3.9280 C   0  0  0  0  0  0  0  0  0  0  0  0
    0.1007    2.1055    4.4585 C   0  0  1  0  0  0  0  0  0  0  0  0
    0.6588    1.5228    5.7385 C   0  0  0  0  0  0  0  0  0  0  0  0
    1.1654    2.2783    6.7179 C   0  0  0  0  0  0  0  0  0  0  0  0
    2.2907    3.1849    6.4102 C   0  0  0  0  0  0  0  0  0  0  0  0
    3.4548    2.3662    5.7458 C   0  0  2  0  0  0  0  0  0  0  0  0
    4.7446    2.9900    6.3533 C   0  0  0  0  0  0  0  0  0  0  0  0
    3.5224    2.7075    4.2181 C   0  0  0  0  0  0  0  0  0  0  0  0
    2.2678    2.9988    3.3633 C   0  0  0  0  0  0  0  0  0  0  0  0
    1.0711    2.0153    3.2628 C   0  0  1  0  0  0  0  0  0  0  0  0
    1.2974    0.5846    2.6879 C   0  0  1  0  0  0  0  0  0  0  0  0
    2.5604    0.2898    1.8358 C   0  0  0  0  0  0  0  0  0  0  0  0
    3.3998   -0.8611    2.4067 C   0  0  1  0  0  0  0  0  0  0  0  0
    4.4069   -1.3734    1.3824 C   0  0  0  0  0  0  0  0  0  0  0  0
    4.5917   -2.7065    0.9571 C   0  0  0  0  0  0  0  0  0  0  0  0
    5.5868   -2.7013    0.0107 C   0  0  0  0  0  0  0  0  0  0  0  0
    6.0397   -1.4347   -0.1794 O   0  0  0  0  0  0  0  0  0  0  0  0
    5.3175   -0.6489    0.6534 C   0  0  0  0  0  0  0  0  0  0  0  0
    3.8983   -0.4921    3.8138 C   0  0  0  0  0  0  0  0  0  0  0  0
    5.4416   -0.3540    3.9011 C   0  0  0  0  0  0  0  0  0  0  0  0
    3.0396   -0.1876    4.8478 C   0  0  0  0  0  0  0  0  0  0  0  0
    3.5140    0.7624    6.0081 C   0  0  2  0  0  0  0  0  0  0  0  0
    1.5486   -0.7080    4.8270 C   0  0  1  0  0  0  0  0  0  0  0  0
    1.4736   -2.3166    4.9869 C   0  0  0  0  0  0  0  0  0  0  0  0
    2.7200   -3.1950    4.6796 C   0  0  0  0  0  0  0  0  0  0  0  0
    0.2412   -2.9914    4.3504 C   0  0  0  0  0  0  0  0  0  0  0  0
    0.9558   -0.5112    3.5402 O   0  0  0  0  0  0  0  0  0  0  0  0
    6.3791   -0.4402    8.7221 H   0  0  0  0  0  0  0  0  0  0  0  0
    5.3577    0.9296    9.1506 H   0  0  0  0  0  0  0  0  0  0  0  0
    6.1067    0.8269    7.5390 H   0  0  0  0  0  0  0  0  0  0  0  0
    3.2842    1.1084    8.1761 H   0  0  0  0  0  0  0  0  0  0  0  0
    2.5529   -1.6979    7.4483 H   0  0  0  0  0  0  0  0  0  0  0  0
    1.8706   -0.0599    9.9054 H   0  0  0  0  0  0  0  0  0  0  0  0
    3.0883   -1.3279    9.7707 H   0  0  0  0  0  0  0  0  0  0  0  0
    1.3914   -1.7321    9.6209 H   0  0  0  0  0  0  0  0  0  0  0  0
    0.2208   -1.4092    7.4494 H   0  0  0  0  0  0  0  0  0  0  0  0
    0.2156    0.1700    8.0159 H   0  0  0  0  0  0  0  0  0  0  0  0
   -2.6388    0.0040    4.9688 H   0  0  0  0  0  0  0  0  0  0  0  0
   -2.0188    1.0952    6.2090 H   0  0  0  0  0  0  0  0  0  0  0  0
   -1.2795    0.9176    3.2562 H   0  0  0  0  0  0  0  0  0  0  0  0
   -2.5076    3.2367    4.8100 H   0  0  0  0  0  0  0  0  0  0  0  0
   -3.3330    2.1700    3.6771 H   0  0  0  0  0  0  0  0  0  0  0  0
   -2.0804    3.2511    3.0924 H   0  0  0  0  0  0  0  0  0  0  0  0
   -0.0416    3.1658    4.6631 H   0  0  0  0  0  0  0  0  0  0  0  0
    1.3487    1.8627    7.6913 H   0  0  0  0  0  0  0  0  0  0  0  0
    1.9790    4.0415    5.8119 H   0  0  0  0  0  0  0  0  0  0  0  0
    2.6102    3.6112    7.3681 H   0  0  0  0  0  0  0  0  0  0  0  0
    5.6574    2.6025    5.8960 H   0  0  0  0  0  0  0  0  0  0  0  0
    4.8172    2.8125    7.4275 H   0  0  0  0  0  0  0  0  0  0  0  0
    4.7719    4.0779    6.2264 H   0  0  0  0  0  0  0  0  0  0  0  0
    4.0862    3.6353    4.1255 H   0  0  0  0  0  0  0  0  0  0  0  0
    4.1564    2.0082    3.6801 H   0  0  0  0  0  0  0  0  0  0  0  0
    1.8740    3.9735    3.6413 H   0  0  0  0  0  0  0  0  0  0  0  0
    2.6222    3.1755    2.3514 H   0  0  0  0  0  0  0  0  0  0  0  0
    0.5027    2.4940    2.4666 H   0  0  0  0  0  0  0  0  0  0  0  0
    0.5020    0.4906    1.9465 H   0  0  0  0  0  0  0  0  0  0  0  0
    2.2150   -0.0503    0.8641 H   0  0  0  0  0  0  0  0  0  0  0  0
    3.1663    1.1739    1.6398 H   0  0  0  0  0  0  0  0  0  0  0  0
    2.6767   -1.6801    2.4394 H   0  0  0  0  0  0  0  0  0  0  0  0
    4.0643   -3.6031    1.2702 H   0  0  0  0  0  0  0  0  0  0  0  0
    6.0477   -3.4608   -0.5989 H   0  0  0  0  0  0  0  0  0  0  0  0
    5.5649    0.4005    0.5949 H   0  0  0  0  0  0  0  0  0  0  0  0
    5.9335   -1.1415    3.3403 H   0  0  0  0  0  0  0  0  0  0  0  0
    5.8233   -0.5102    4.9016 H   0  0  0  0  0  0  0  0  0  0  0  0
    5.8123    0.5969    3.5235 H   0  0  0  0  0  0  0  0  0  0  0  0
    4.5794    0.6708    5.9289 H   0  0  0  0  0  0  0  0  0  0  0  0
    1.3294   -2.5404    6.0291 H   0  0  0  0  0  0  0  0  0  0  0  0
    2.8841   -3.3972    3.6213 H   0  0  0  0  0  0  0  0  0  0  0  0
    2.5973   -4.1847    5.1163 H   0  0  0  0  0  0  0  0  0  0  0  0
    3.6371   -2.8019    5.1093 H   0  0  0  0  0  0  0  0  0  0  0  0
    0.2620   -2.9277    3.2697 H   0  0  0  0  0  0  0  0  0  0  0  0
   -0.7092   -2.5804    4.6820 H   0  0  0  0  0  0  0  0  0  0  0  0
    0.2109   -4.0395    4.6234 H   0  0  0  0  0  0  0  0  0  0  0  0
  1  2  1  0
  1 38  1  0
  1 39  1  0
  1 40  1  0
  2  3  1  0
  3 32  1  0
  3  4  1  0
  3 41  1  1
  4  5  1  0
  4  6  1  0
  4 42  1  6
  5 43  1  0
  5 44  1  0
  5 45  1  0
  6  7  1  0
  6 46  1  0
  6 47  1  0
  7 13  1  0
  7 33  1  0
  7  8  1  6
  8  9  1  0
  9 10  1  0
  9 48  1  0
  9 49  1  0
 10 11  1  0
 10 12  1  0
 10 50  1  6
 11 51  1  0
 11 52  1  0
 11 53  1  0
 12 20  1  0
 12 13  1  0
 12 54  1  1
 13 14  2  3
 14 15  1  0
 14 55  1  0
 15 16  1  0
 15 56  1  0
 15 57  1  0
 16 32  1  0
 16 17  1  1
 16 18  1  0
 17 58  1  0
 17 59  1  0
 17 60  1  0
 18 19  1  0
 18 61  1  0
 18 62  1  0
 19 20  1  0
 19 63  1  0
 19 64  1  0
 20 21  1  0
 20 65  1  6
 21 37  1  0
 21 22  1  0
 21 66  1  6
 22 23  1  0
 22 67  1  0
 22 68  1  0
 23 24  1  0
 23 29  1  0
 23 69  1  1
 24 28  2  0
 24 25  1  0
 25 26  2  0
 25 70  1  0
 26 27  1  0
 26 71  1  0
 27 28  1  0
 28 72  1  0
 29 30  1  0
 29 31  2  0
 30 73  1  0
 30 74  1  0
 30 75  1  0
 31 32  1  0
 31 33  1  0
 32 76  1  6
 33 34  1  1
 33 37  1  0
 34 35  1  0
 34 36  1  0
 34 77  1  0
 35 78  1  0
 35 79  1  0
 35 80  1  0
 36 81  1  0
 36 82  1  0
 36 83  1  0
M  END
>  <i_m_ct_stereo_status>  (1) 
1

>  <s_m_source_file>  (1) 
/var/tmp/pbs.5076255.sched01/tmp3_il56_a/09f63jmog.sdf

>  <i_m_source_file_index>  (1) 
1

>  <i_lp_mmshare_version>  (1) 
48012

>  <i_f3d_flags>  (1) 
0

>  <s_epik_input>  (1) 
W0NIM11PW0NASF0oW0NAQEhdKFtDSDNdKVtDSDJdMSlbQ0BIXShbQ0BdKFtDSDNdKShbQ0gyXVxbQ0hdMilbQ0gyXVtDSDJdMylDKFtDQEBdNChPNSlbQ0hdKFtDSDNdKVtDSDNdKT1DKFtDSDNdKVtDQEhdKGM2W2NIXVtjSF1vW2NIXTYpW0NIMl1bQ0BASF01W0NASF0zW0NASF0oQz0yXFtDQF0xNDcpW0NAQEhdKFtDSDJdTzcpW0NIM10=

>  <s_epik_cmdline>  (1) 
J2VwaWtfcHl0aG9uJywgJy1waHQnLCAnMi4wJywgJy1waCcsICc3LjAnLCAnLXRuJywgJzgnLCAnLW1hJywgJzIwMCcsICctaW1hZScsICc8aW5maWxlLm1hZT4nLCAnLW9tYWUnLCAnPG91dGZpbGUubWFlPic=

>  <r_lp_tautomer_probability>  (1) 
1

>  <r_epik_Ionization_Penalty>  (1) 
2.26003e-11

>  <r_epik_Ionization_Penalty_Charging>  (1) 
0

>  <r_epik_Ionization_Penalty_Neutral>  (1) 
2.26003e-11

>  <r_epik_State_Penalty>  (1) 
-0

>  <r_epik_Charging_Adjusted_Penalty>  (1) 
0

>  <i_epik_Tot_Q>  (1) 
0

>  <i_epik_Tot_abs_Q>  (1) 
0

>  <s_lp_Force_Field>  (1) 
OPLS3e

>  <r_lp_Energy>  (1) 
162.193

>  <b_lp_Chiralities_Consistent>  (1) 
1

>  <s_lp_Variant>  (1) 
0:0-1

>  <s_i_glide_gridfile>  (1) 
pfpi4k_grid

>  <i_i_glide_lignum>  (1) 
1

>  <i_i_glide_rotatable_bonds>  (1) 
3

>  <r_i_docking_score>  (1) 
-1.58802

>  <r_i_glide_ligand_efficiency>  (1) 
-0.0429195

>  <r_i_glide_ligand_efficiency_sa>  (1) 
-0.143017

>  <r_i_glide_ligand_efficiency_ln>  (1) 
-0.344405

>  <r_i_glide_gscore>  (1) 
-1.58802

>  <r_i_glide_lipo>  (1) 
-0.354705

>  <r_i_glide_hbond>  (1) 
-0.00278571

>  <r_i_glide_metal>  (1) 
-0

>  <r_i_glide_rewards>  (1) 
0

>  <r_i_glide_evdw>  (1) 
-24.3672

>  <r_i_glide_ecoul>  (1) 
-0.612409

>  <r_i_glide_erotb>  (1) 
0.0796923

>  <r_i_glide_esite>  (1) 
0

>  <r_i_glide_emodel>  (1) 
-26.2977

>  <r_i_glide_energy>  (1) 
-24.9796

>  <r_i_glide_einternal>  (1) 
1.53349

>  <r_i_glide_intrahb_reward>  (1) 
-0

>  <i_i_glide_confnum>  (1) 
2

>  <i_i_glide_posenum>  (1) 
23

>  <r_i_glide_eff_state_penalty>  (1) 
0

>  <ligand_id>  (1) 
0

>  <original_smiles>  (1) 
COC1C(C)CC23OCC(C)C4C2=CCC2(C)CCC4C4CC(c5ccoc5)C(C)=C(C12)C3(C(C)C)O4

>  <smiles>  (1) 
[H]C1=C2C3([H])C([H])(C([H])([H])[H])C([H])([H])OC24C([H])([H])C([H])(C([H])([H])[H])C([H])(OC([H])([H])[H])C2([H])C5=C(C([H])([H])[H])C([H])(c6c([H])oc([H])c6[H])C([H])([H])C([H])(OC54C([H])(C([H])([H])[H])C([H])([H])[H])C3([H])C([H])([H])C([H])([H])C2(C([H])([H])[H])C1([H])[H]

$$$$
0:0:1
     RDKit          3D

 83 89  0  0  1  0  0  0  0  0999 V2000
    4.9078   -2.0779    6.8553 C   0  0  0  0  0  0  0  0  0  0  0  0
    4.5589   -0.9428    7.6547 O   0  0  0  0  0  0  0  0  0  0  0  0
    3.3593   -0.2184    7.3208 C   0  0  2  0  0  0  0  0  0  0  0  0
    2.1475   -1.1510    7.6574 C   0  0  1  0  0  0  0  0  0  0  0  0
    2.1036   -1.4998    9.1521 C   0  0  0  0  0  0  0  0  0  0  0  0
    0.7252   -0.7981    7.1585 C   0  0  0  0  0  0  0  0  0  0  0  0
    0.5605   -0.2408    5.7000 C   0  0  1  0  0  0  0  0  0  0  0  0
   -0.7885   -0.6062    5.3511 O   0  0  0  0  0  0  0  0  0  0  0  0
   -1.7616    0.4046    5.1775 C   0  0  0  0  0  0  0  0  0  0  0  0
   -1.2896    1.4314    4.1337 C   0  0  1  0  0  0  0  0  0  0  0  0
   -2.3221    2.5596    3.9628 C   0  0  0  0  0  0  0  0  0  0  0  0
    0.1326    1.9762    4.4685 C   0  0  1  0  0  0  0  0  0  0  0  0
    0.6832    1.2754    5.6903 C   0  0  0  0  0  0  0  0  0  0  0  0
    1.2013    1.9568    6.7301 C   0  0  0  0  0  0  0  0  0  0  0  0
    2.3509    2.8644    6.4950 C   0  0  0  0  0  0  0  0  0  0  0  0
    3.4987    2.0740    5.7672 C   0  0  2  0  0  0  0  0  0  0  0  0
    4.8017    2.6233    6.4318 C   0  0  0  0  0  0  0  0  0  0  0  0
    3.5776    2.5441    4.2763 C   0  0  0  0  0  0  0  0  0  0  0  0
    2.3232    2.9133    3.4436 C   0  0  0  0  0  0  0  0  0  0  0  0
    1.1086    1.9599    3.2641 C   0  0  1  0  0  0  0  0  0  0  0  0
    1.3176    0.5763    2.5684 C   0  0  1  0  0  0  0  0  0  0  0  0
    2.5762    0.3566    1.6910 C   0  0  0  0  0  0  0  0  0  0  0  0
    3.3988   -0.8564    2.1449 C   0  0  1  0  0  0  0  0  0  0  0  0
    4.4049   -1.2924    1.0905 C   0  0  0  0  0  0  0  0  0  0  0  0
    4.3902   -2.5235    0.3638 C   0  0  0  0  0  0  0  0  0  0  0  0
    5.4526   -2.5077   -0.4778 C   0  0  0  0  0  0  0  0  0  0  0  0
    6.1543   -1.3530   -0.3327 O   0  0  0  0  0  0  0  0  0  0  0  0
    5.4992   -0.6269    0.5984 C   0  0  0  0  0  0  0  0  0  0  0  0
    3.9203   -0.6135    3.5970 C   0  0  0  0  0  0  0  0  0  0  0  0
    5.4639   -0.4397    3.6797 C   0  0  0  0  0  0  0  0  0  0  0  0
    3.0492   -0.4027    4.6410 C   0  0  0  0  0  0  0  0  0  0  0  0
    3.5272    0.4434    5.8904 C   0  0  2  0  0  0  0  0  0  0  0  0
    1.5383   -0.9108    4.6018 C   0  0  1  0  0  0  0  0  0  0  0  0
    1.4538   -2.5266    4.6687 C   0  0  0  0  0  0  0  0  0  0  0  0
    2.1010   -3.3854    3.5667 C   0  0  0  0  0  0  0  0  0  0  0  0
    0.0548   -3.1603    4.8741 C   0  0  0  0  0  0  0  0  0  0  0  0
    0.9464   -0.5929    3.3333 O   0  0  0  0  0  0  0  0  0  0  0  0
    5.8920   -2.4297    7.1582 H   0  0  0  0  0  0  0  0  0  0  0  0
    4.9575   -1.8361    5.8216 H   0  0  0  0  0  0  0  0  0  0  0  0
    4.2258   -2.9162    6.9675 H   0  0  0  0  0  0  0  0  0  0  0  0
    3.3333    0.6108    8.0409 H   0  0  0  0  0  0  0  0  0  0  0  0
    2.3523   -2.1131    7.2425 H   0  0  0  0  0  0  0  0  0  0  0  0
    1.8617   -0.6384    9.7724 H   0  0  0  0  0  0  0  0  0  0  0  0
    3.0582   -1.9087    9.4849 H   0  0  0  0  0  0  0  0  0  0  0  0
    1.3599   -2.2756    9.3331 H   0  0  0  0  0  0  0  0  0  0  0  0
    0.1777   -1.7253    7.2634 H   0  0  0  0  0  0  0  0  0  0  0  0
    0.2005   -0.1619    7.8808 H   0  0  0  0  0  0  0  0  0  0  0  0
   -2.6632   -0.0895    4.8235 H   0  0  0  0  0  0  0  0  0  0  0  0
   -2.0047    0.8771    6.1293 H   0  0  0  0  0  0  0  0  0  0  0  0
   -1.2667    0.9098    3.1775 H   0  0  0  0  0  0  0  0  0  0  0  0
   -2.4632    3.1147    4.8924 H   0  0  0  0  0  0  0  0  0  0  0  0
   -3.2957    2.1565    3.6739 H   0  0  0  0  0  0  0  0  0  0  0  0
   -2.0205    3.2666    3.1825 H   0  0  0  0  0  0  0  0  0  0  0  0
    0.0152    3.0275    4.7492 H   0  0  0  0  0  0  0  0  0  0  0  0
    1.3889    1.4800    7.6658 H   0  0  0  0  0  0  0  0  0  0  0  0
    2.0457    3.7681    5.9720 H   0  0  0  0  0  0  0  0  0  0  0  0
    2.6697    3.2030    7.4852 H   0  0  0  0  0  0  0  0  0  0  0  0
    5.7072    2.2625    5.9415 H   0  0  0  0  0  0  0  0  0  0  0  0
    4.8709    2.3432    7.4836 H   0  0  0  0  0  0  0  0  0  0  0  0
    4.8439    3.7149    6.3958 H   0  0  0  0  0  0  0  0  0  0  0  0
    4.1604    3.4630    4.2523 H   0  0  0  0  0  0  0  0  0  0  0  0
    4.1971    1.8775    3.6988 H   0  0  0  0  0  0  0  0  0  0  0  0
    1.9441    3.8687    3.7979 H   0  0  0  0  0  0  0  0  0  0  0  0
    2.6838    3.1683    2.4464 H   0  0  0  0  0  0  0  0  0  0  0  0
    0.5493    2.5109    2.5007 H   0  0  0  0  0  0  0  0  0  0  0  0
    0.5085    0.5535    1.8279 H   0  0  0  0  0  0  0  0  0  0  0  0
    2.2239    0.1118    0.6954 H   0  0  0  0  0  0  0  0  0  0  0  0
    3.1773    1.2484    1.5609 H   0  0  0  0  0  0  0  0  0  0  0  0
    2.6795   -1.6454    2.0949 H   0  0  0  0  0  0  0  0  0  0  0  0
    3.6726   -3.3319    0.4601 H   0  0  0  0  0  0  0  0  0  0  0  0
    5.8318   -3.2019   -1.2182 H   0  0  0  0  0  0  0  0  0  0  0  0
    5.9440    0.3163    0.8207 H   0  0  0  0  0  0  0  0  0  0  0  0
    5.9402   -1.2335    3.1165 H   0  0  0  0  0  0  0  0  0  0  0  0
    5.9210   -0.5422    4.6512 H   0  0  0  0  0  0  0  0  0  0  0  0
    5.8057    0.4953    3.2480 H   0  0  0  0  0  0  0  0  0  0  0  0
    4.5961    0.3608    5.8078 H   0  0  0  0  0  0  0  0  0  0  0  0
    2.0605   -2.8524    5.4938 H   0  0  0  0  0  0  0  0  0  0  0  0
    1.5641   -3.2919    2.6147 H   0  0  0  0  0  0  0  0  0  0  0  0
    2.0549   -4.4339    3.8136 H   0  0  0  0  0  0  0  0  0  0  0  0
    3.1569   -3.1364    3.3948 H   0  0  0  0  0  0  0  0  0  0  0  0
   -0.5655   -2.9129    4.0178 H   0  0  0  0  0  0  0  0  0  0  0  0
   -0.4757   -2.8672    5.7668 H   0  0  0  0  0  0  0  0  0  0  0  0
    0.1233   -4.2423    4.9326 H   0  0  0  0  0  0  0  0  0  0  0  0
  1  2  1  0
  1 38  1  0
  1 39  1  0
  1 40  1  0
  2  3  1  0
  3 32  1  0
  3  4  1  0
  3 41  1  1
  4  5  1  0
  4  6  1  0
  4 42  1  6
  5 43  1  0
  5 44  1  0
  5 45  1  0
  6  7  1  0
  6 46  1  0
  6 47  1  0
  7 13  1  0
  7 33  1  0
  7  8  1  6
  8  9  1  0
  9 10  1  0
  9 48  1  0
  9 49  1  0
 10 11  1  0
 10 12  1  0
 10 50  1  6
 11 51  1  0
 11 52  1  0
 11 53  1  0
 12 20  1  0
 12 13  1  0
 12 54  1  1
 13 14  2  3
 14 15  1  0
 14 55  1  0
 15 16  1  0
 15 56  1  0
 15 57  1  0
 16 32  1  0
 16 17  1  1
 16 18  1  0
 17 58  1  0
 17 59  1  0
 17 60  1  0
 18 19  1  0
 18 61  1  0
 18 62  1  0
 19 20  1  0
 19 63  1  0
 19 64  1  0
 20 21  1  0
 20 65  1  6
 21 37  1  0
 21 22  1  0
 21 66  1  6
 22 23  1  0
 22 67  1  0
 22 68  1  0
 23 24  1  0
 23 29  1  0
 23 69  1  1
 24 28  2  0
 24 25  1  0
 25 26  2  0
 25 70  1  0
 26 27  1  0
 26 71  1  0
 27 28  1  0
 28 72  1  0
 29 30  1  0
 29 31  2  0
 30 73  1  0
 30 74  1  0
 30 75  1  0
 31 32  1  0
 31 33  1  0
 32 76  1  6
 33 34  1  1
 33 37  1  0
 34 35  1  0
 34 36  1  0
 34 77  1  0
 35 78  1  0
 35 79  1  0
 35 80  1  0
 36 81  1  0
 36 82  1  0
 36 83  1  0
M  END
>  <i_m_ct_stereo_status>  (2) 
1

>  <s_m_source_file>  (2) 
/var/tmp/pbs.5076255.sched01/tmp3_il56_a/09f63jmog.sdf

>  <i_m_source_file_index>  (2) 
1

>  <i_lp_mmshare_version>  (2) 
48012

>  <i_f3d_flags>  (2) 
0

>  <s_epik_input>  (2) 
W0NIM11PW0NASF0oW0NAQEhdKFtDSDNdKVtDSDJdMSlbQ0BIXShbQ0BdKFtDSDNdKShbQ0gyXVxbQ0hdMilbQ0gyXVtDSDJdMylDKFtDQEBdNChPNSlbQ0hdKFtDSDNdKVtDSDNdKT1DKFtDSDNdKVtDQEhdKGM2W2NIXVtjSF1vW2NIXTYpW0NIMl1bQ0BASF01W0NASF0zW0NASF0oQz0yXFtDQF0xNDcpW0NAQEhdKFtDSDJdTzcpW0NIM10=

>  <s_epik_cmdline>  (2) 
J2VwaWtfcHl0aG9uJywgJy1waHQnLCAnMi4wJywgJy1waCcsICc3LjAnLCAnLXRuJywgJzgnLCAnLW1hJywgJzIwMCcsICctaW1hZScsICc8aW5maWxlLm1hZT4nLCAnLW9tYWUnLCAnPG91dGZpbGUubWFlPic=

>  <r_lp_tautomer_probability>  (2) 
1

>  <r_epik_Ionization_Penalty>  (2) 
2.26003e-11

>  <r_epik_Ionization_Penalty_Charging>  (2) 
0

>  <r_epik_Ionization_Penalty_Neutral>  (2) 
2.26003e-11

>  <r_epik_State_Penalty>  (2) 
-0

>  <r_epik_Charging_Adjusted_Penalty>  (2) 
0

>  <i_epik_Tot_Q>  (2) 
0

>  <i_epik_Tot_abs_Q>  (2) 
0

>  <s_lp_Force_Field>  (2) 
OPLS3e

>  <r_lp_Energy>  (2) 
162.193

>  <b_lp_Chiralities_Consistent>  (2) 
1

>  <s_lp_Variant>  (2) 
0:0-1

>  <s_i_glide_gridfile>  (2) 
pfpi4k_grid

>  <i_i_glide_lignum>  (2) 
1

>  <i_i_glide_rotatable_bonds>  (2) 
3

>  <r_i_docking_score>  (2) 
-1.58089

>  <r_i_glide_ligand_efficiency>  (2) 
-0.0427267

>  <r_i_glide_ligand_efficiency_sa>  (2) 
-0.142375

>  <r_i_glide_ligand_efficiency_ln>  (2) 
-0.342857

>  <r_i_glide_gscore>  (2) 
-1.58089

>  <r_i_glide_lipo>  (2) 
-0.294221

>  <r_i_glide_hbond>  (2) 
-0.0521305

>  <r_i_glide_metal>  (2) 
-0

>  <r_i_glide_rewards>  (2) 
0

>  <r_i_glide_evdw>  (2) 
-24.8837

>  <r_i_glide_ecoul>  (2) 
-0.466953

>  <r_i_glide_erotb>  (2) 
0.0796923

>  <r_i_glide_esite>  (2) 
0

>  <r_i_glide_emodel>  (2) 
-22.2946

>  <r_i_glide_energy>  (2) 
-25.3506

>  <r_i_glide_einternal>  (2) 
7.59141

>  <r_i_glide_intrahb_reward>  (2) 
-0

>  <i_i_glide_confnum>  (2) 
1

>  <i_i_glide_posenum>  (2) 
6

>  <r_i_glide_eff_state_penalty>  (2) 
0

>  <ligand_id>  (2) 
0

>  <original_smiles>  (2) 
COC1C(C)CC23OCC(C)C4C2=CCC2(C)CCC4C4CC(c5ccoc5)C(C)=C(C12)C3(C(C)C)O4

>  <smiles>  (2) 
[H]C1=C2C3([H])C([H])(C([H])([H])[H])C([H])([H])OC24C([H])([H])C([H])(C([H])([H])[H])C([H])(OC([H])([H])[H])C2([H])C5=C(C([H])([H])[H])C([H])(c6c([H])oc([H])c6[H])C([H])([H])C([H])(OC54C([H])(C([H])([H])[H])C([H])([H])[H])C3([H])C([H])([H])C([H])([H])C2(C([H])([H])[H])C1([H])[H]

$$$$
0:0:2
     RDKit          3D

 83 89  0  0  1  0  0  0  0  0999 V2000
    4.8887   -1.6316    7.1299 C   0  0  0  0  0  0  0  0  0  0  0  0
    4.4825   -0.4607    7.8696 O   0  0  0  0  0  0  0  0  0  0  0  0
    3.2629    0.1920    7.4637 C   0  0  2  0  0  0  0  0  0  0  0  0
    2.0855   -0.7781    7.8152 C   0  0  1  0  0  0  0  0  0  0  0  0
    2.0281   -1.0362    9.3296 C   0  0  0  0  0  0  0  0  0  0  0  0
    0.6557   -0.5054    7.2806 C   0  0  0  0  0  0  0  0  0  0  0  0
    0.5038   -0.0122    5.8018 C   0  0  1  0  0  0  0  0  0  0  0  0
   -0.8316   -0.4613    5.4758 O   0  0  0  0  0  0  0  0  0  0  0  0
   -1.8313    0.5143    5.2165 C   0  0  0  0  0  0  0  0  0  0  0  0
   -1.3712    1.5051    4.1243 C   0  0  1  0  0  0  0  0  0  0  0  0
   -2.4348    2.5919    3.8882 C   0  0  0  0  0  0  0  0  0  0  0  0
    0.0277    2.1138    4.4445 C   0  0  1  0  0  0  0  0  0  0  0  0
    0.5696    1.5094    5.7224 C   0  0  0  0  0  0  0  0  0  0  0  0
    1.0578    2.2552    6.7247 C   0  0  0  0  0  0  0  0  0  0  0  0
    2.1786    3.1922    6.4474 C   0  0  0  0  0  0  0  0  0  0  0  0
    3.3610    2.4057    5.7829 C   0  0  2  0  0  0  0  0  0  0  0  0
    4.6432    3.0266    6.4252 C   0  0  0  0  0  0  0  0  0  0  0  0
    3.4459    2.7905    4.2654 C   0  0  0  0  0  0  0  0  0  0  0  0
    2.1976    3.0637    3.3918 C   0  0  0  0  0  0  0  0  0  0  0  0
    1.0189    2.0614    3.2616 C   0  0  1  0  0  0  0  0  0  0  0  0
    1.2745    0.6429    2.6608 C   0  0  1  0  0  0  0  0  0  0  0  0
    2.5633    0.3654    1.8306 C   0  0  0  0  0  0  0  0  0  0  0  0
    3.4420   -0.7903    2.3758 C   0  0  1  0  0  0  0  0  0  0  0  0
    4.4664   -1.2728    1.3276 C   0  0  0  0  0  0  0  0  0  0  0  0
    4.3753   -1.1074   -0.0972 C   0  0  0  0  0  0  0  0  0  0  0  0
    5.4827   -1.6602   -0.6616 C   0  0  0  0  0  0  0  0  0  0  0  0
    6.2552   -2.2208    0.2977 O   0  0  0  0  0  0  0  0  0  0  0  0
    5.5942   -2.0423    1.4542 C   0  0  0  0  0  0  0  0  0  0  0  0
    3.9255   -0.3762    3.7921 C   0  0  0  0  0  0  0  0  0  0  0  0
    5.4664   -0.1048    3.9150 C   0  0  0  0  0  0  0  0  0  0  0  0
    3.0197   -0.1337    4.8059 C   0  0  0  0  0  0  0  0  0  0  0  0
    3.4279    0.7919    6.0072 C   0  0  2  0  0  0  0  0  0  0  0  0
    1.5431   -0.6918    4.7614 C   0  0  1  0  0  0  0  0  0  0  0  0
    1.4707   -2.2992    4.8857 C   0  0  0  0  0  0  0  0  0  0  0  0
    2.7124   -3.1528    4.5273 C   0  0  0  0  0  0  0  0  0  0  0  0
    0.2325   -2.9771    4.2450 C   0  0  0  0  0  0  0  0  0  0  0  0
    0.9299   -0.4680    3.4827 O   0  0  0  0  0  0  0  0  0  0  0  0
    5.8877   -1.9416    7.4675 H   0  0  0  0  0  0  0  0  0  0  0  0
    4.9443   -1.4465    6.1027 H   0  0  0  0  0  0  0  0  0  0  0  0
    4.2365   -2.4905    7.2899 H   0  0  0  0  0  0  0  0  0  0  0  0
    3.1929    1.0558    8.1432 H   0  0  0  0  0  0  0  0  0  0  0  0
    2.3480   -1.7387    7.4130 H   0  0  0  0  0  0  0  0  0  0  0  0
    1.7569   -0.1416    9.8897 H   0  0  0  0  0  0  0  0  0  0  0  0
    2.9898   -1.3843    9.7055 H   0  0  0  0  0  0  0  0  0  0  0  0
    1.3030   -1.8157    9.5612 H   0  0  0  0  0  0  0  0  0  0  0  0
    0.1302   -1.4563    7.3675 H   0  0  0  0  0  0  0  0  0  0  0  0
    0.0880    0.1270    7.9665 H   0  0  0  0  0  0  0  0  0  0  0  0
   -2.7043   -0.0402    4.8783 H   0  0  0  0  0  0  0  0  0  0  0  0
   -2.0994    1.0274    6.1420 H   0  0  0  0  0  0  0  0  0  0  0  0
   -1.3207    0.9304    3.1997 H   0  0  0  0  0  0  0  0  0  0  0  0
   -2.5998    3.1991    4.7792 H   0  0  0  0  0  0  0  0  0  0  0  0
   -3.3922    2.1447    3.6231 H   0  0  0  0  0  0  0  0  0  0  0  0
   -2.1462    3.2541    3.0694 H   0  0  0  0  0  0  0  0  0  0  0  0
   -0.1293    3.1681    4.6658 H   0  0  0  0  0  0  0  0  0  0  0  0
    1.2416    1.8244    7.6874 H   0  0  0  0  0  0  0  0  0  0  0  0
    1.8558    4.0520    5.8657 H   0  0  0  0  0  0  0  0  0  0  0  0
    2.4774    3.5934    7.4169 H   0  0  0  0  0  0  0  0  0  0  0  0
    5.5652    2.6612    5.9671 H   0  0  0  0  0  0  0  0  0  0  0  0
    4.7084    2.8071    7.4913 H   0  0  0  0  0  0  0  0  0  0  0  0
    4.6580    4.1138    6.3243 H   0  0  0  0  0  0  0  0  0  0  0  0
    4.0081    3.7190    4.1873 H   0  0  0  0  0  0  0  0  0  0  0  0
    4.0858    2.1157    3.7262 H   0  0  0  0  0  0  0  0  0  0  0  0
    1.7856    4.0271    3.6837 H   0  0  0  0  0  0  0  0  0  0  0  0
    2.5658    3.2653    2.3834 H   0  0  0  0  0  0  0  0  0  0  0  0
    0.4520    2.5461    2.4620 H   0  0  0  0  0  0  0  0  0  0  0  0
    0.4846    0.5576    1.9085 H   0  0  0  0  0  0  0  0  0  0  0  0
    2.1772    0.0719    0.8531 H   0  0  0  0  0  0  0  0  0  0  0  0
    3.1409    1.2669    1.6463 H   0  0  0  0  0  0  0  0  0  0  0  0
    2.7412   -1.6072    2.4183 H   0  0  0  0  0  0  0  0  0  0  0  0
    3.5725   -0.6431   -0.6605 H   0  0  0  0  0  0  0  0  0  0  0  0
    5.8363   -1.7742   -1.6783 H   0  0  0  0  0  0  0  0  0  0  0  0
    6.1075   -2.5164    2.3010 H   0  0  0  0  0  0  0  0  0  0  0  0
    6.0302   -0.8730    3.4976 H   0  0  0  0  0  0  0  0  0  0  0  0
    5.8567   -0.0599    4.9129 H   0  0  0  0  0  0  0  0  0  0  0  0
    5.7638    0.8589    3.4348 H   0  0  0  0  0  0  0  0  0  0  0  0
    4.4864    0.7472    5.9846 H   0  0  0  0  0  0  0  0  0  0  0  0
    1.3155   -2.5581    5.9201 H   0  0  0  0  0  0  0  0  0  0  0  0
    2.8621   -3.2992    3.4588 H   0  0  0  0  0  0  0  0  0  0  0  0
    2.6157   -4.1491    4.9492 H   0  0  0  0  0  0  0  0  0  0  0  0
    3.6337   -2.7577    4.9419 H   0  0  0  0  0  0  0  0  0  0  0  0
    0.2566   -2.8932    3.1609 H   0  0  0  0  0  0  0  0  0  0  0  0
   -0.7182   -2.5803    4.5930 H   0  0  0  0  0  0  0  0  0  0  0  0
    0.2197   -4.0366    4.5019 H   0  0  0  0  0  0  0  0  0  0  0  0
  1  2  1  0
  1 38  1  0
  1 39  1  0
  1 40  1  0
  2  3  1  0
  3 32  1  0
  3  4  1  0
  3 41  1  1
  4  5  1  0
  4  6  1  0
  4 42  1  6
  5 43  1  0
  5 44  1  0
  5 45  1  0
  6  7  1  0
  6 46  1  0
  6 47  1  0
  7 13  1  0
  7 33  1  0
  7  8  1  6
  8  9  1  0
  9 10  1  0
  9 48  1  0
  9 49  1  0
 10 11  1  0
 10 12  1  0
 10 50  1  6
 11 51  1  0
 11 52  1  0
 11 53  1  0
 12 20  1  0
 12 13  1  0
 12 54  1  1
 13 14  2  3
 14 15  1  0
 14 55  1  0
 15 16  1  0
 15 56  1  0
 15 57  1  0
 16 32  1  0
 16 17  1  1
 16 18  1  0
 17 58  1  0
 17 59  1  0
 17 60  1  0
 18 19  1  0
 18 61  1  0
 18 62  1  0
 19 20  1  0
 19 63  1  0
 19 64  1  0
 20 21  1  0
 20 65  1  6
 21 37  1  0
 21 22  1  0
 21 66  1  6
 22 23  1  0
 22 67  1  0
 22 68  1  0
 23 24  1  0
 23 29  1  0
 23 69  1  1
 24 28  2  0
 24 25  1  0
 25 26  2  0
 25 70  1  0
 26 27  1  0
 26 71  1  0
 27 28  1  0
 28 72  1  0
 29 30  1  0
 29 31  2  0
 30 73  1  0
 30 74  1  0
 30 75  1  0
 31 32  1  0
 31 33  1  0
 32 76  1  6
 33 34  1  1
 33 37  1  0
 34 35  1  0
 34 36  1  0
 34 77  1  0
 35 78  1  0
 35 79  1  0
 35 80  1  0
 36 81  1  0
 36 82  1  0
 36 83  1  0
M  END
>  <i_m_ct_stereo_status>  (3) 
1

>  <s_m_source_file>  (3) 
/var/tmp/pbs.5076255.sched01/tmp3_il56_a/09f63jmog.sdf

>  <i_m_source_file_index>  (3) 
1

>  <i_lp_mmshare_version>  (3) 
48012

>  <i_f3d_flags>  (3) 
0

>  <s_epik_input>  (3) 
W0NIM11PW0NASF0oW0NAQEhdKFtDSDNdKVtDSDJdMSlbQ0BIXShbQ0BdKFtDSDNdKShbQ0gyXVxbQ0hdMilbQ0gyXVtDSDJdMylDKFtDQEBdNChPNSlbQ0hdKFtDSDNdKVtDSDNdKT1DKFtDSDNdKVtDQEhdKGM2W2NIXVtjSF1vW2NIXTYpW0NIMl1bQ0BASF01W0NASF0zW0NASF0oQz0yXFtDQF0xNDcpW0NAQEhdKFtDSDJdTzcpW0NIM10=

>  <s_epik_cmdline>  (3) 
J2VwaWtfcHl0aG9uJywgJy1waHQnLCAnMi4wJywgJy1waCcsICc3LjAnLCAnLXRuJywgJzgnLCAnLW1hJywgJzIwMCcsICctaW1hZScsICc8aW5maWxlLm1hZT4nLCAnLW9tYWUnLCAnPG91dGZpbGUubWFlPic=

>  <r_lp_tautomer_probability>  (3) 
1

>  <r_epik_Ionization_Penalty>  (3) 
2.26003e-11

>  <r_epik_Ionization_Penalty_Charging>  (3) 
0

>  <r_epik_Ionization_Penalty_Neutral>  (3) 
2.26003e-11

>  <r_epik_State_Penalty>  (3) 
-0

>  <r_epik_Charging_Adjusted_Penalty>  (3) 
0

>  <i_epik_Tot_Q>  (3) 
0

>  <i_epik_Tot_abs_Q>  (3) 
0

>  <s_lp_Force_Field>  (3) 
OPLS3e

>  <r_lp_Energy>  (3) 
162.193

>  <b_lp_Chiralities_Consistent>  (3) 
1

>  <s_lp_Variant>  (3) 
0:0-1

>  <s_i_glide_gridfile>  (3) 
pfpi4k_grid

>  <i_i_glide_lignum>  (3) 
1

>  <i_i_glide_rotatable_bonds>  (3) 
3

>  <r_i_docking_score>  (3) 
-1.41655

>  <r_i_glide_ligand_efficiency>  (3) 
-0.0382852

>  <r_i_glide_ligand_efficiency_sa>  (3) 
-0.127575

>  <r_i_glide_ligand_efficiency_ln>  (3) 
-0.307217

>  <r_i_glide_gscore>  (3) 
-1.41655

>  <r_i_glide_lipo>  (3) 
-0.278331

>  <r_i_glide_hbond>  (3) 
0

>  <r_i_glide_metal>  (3) 
-0

>  <r_i_glide_rewards>  (3) 
0

>  <r_i_glide_evdw>  (3) 
-24.7617

>  <r_i_glide_ecoul>  (3) 
0.134451

>  <r_i_glide_erotb>  (3) 
0.0796923

>  <r_i_glide_esite>  (3) 
0

>  <r_i_glide_emodel>  (3) 
-20.5973

>  <r_i_glide_energy>  (3) 
-24.6272

>  <r_i_glide_einternal>  (3) 
7.69562

>  <r_i_glide_intrahb_reward>  (3) 
-0

>  <i_i_glide_confnum>  (3) 
1

>  <i_i_glide_posenum>  (3) 
8

>  <r_i_glide_eff_state_penalty>  (3) 
0

>  <ligand_id>  (3) 
0

>  <original_smiles>  (3) 
COC1C(C)CC23OCC(C)C4C2=CCC2(C)CCC4C4CC(c5ccoc5)C(C)=C(C12)C3(C(C)C)O4

>  <smiles>  (3) 
[H]C1=C2C3([H])C([H])(C([H])([H])[H])C([H])([H])OC24C([H])([H])C([H])(C([H])([H])[H])C([H])(OC([H])([H])[H])C2([H])C5=C(C([H])([H])[H])C([H])(c6c([H])oc([H])c6[H])C([H])([H])C([H])(OC54C([H])(C([H])([H])[H])C([H])([H])[H])C3([H])C([H])([H])C([H])([H])C2(C([H])([H])[H])C1([H])[H]

$$$$
0:1:0
     RDKit          3D

 83 89  0  0  1  0  0  0  0  0999 V2000
   -0.1135   -6.9762    0.8105 C   0  0  0  0  0  0  0  0  0  0  0  0
    0.4740   -6.2502    1.8746 O   0  0  0  0  0  0  0  0  0  0  0  0
    1.1372   -7.0557    2.8531 C   0  0  2  0  0  0  0  0  0  0  0  0
    0.8043   -6.3710    4.1902 C   0  0  1  0  0  0  0  0  0  0  0  0
   -0.6395   -6.7081    4.6166 C   0  0  0  0  0  0  0  0  0  0  0  0
    1.7640   -6.6434    5.3778 C   0  0  0  0  0  0  0  0  0  0  0  0
    3.3012   -6.3795    5.2457 C   0  0  1  0  0  0  0  0  0  0  0  0
    3.5275   -5.5673    6.4222 O   0  0  0  0  0  0  0  0  0  0  0  0
    4.3825   -6.0281    7.4675 C   0  0  0  0  0  0  0  0  0  0  0  0
    5.7503   -6.4543    6.9036 C   0  0  1  0  0  0  0  0  0  0  0  0
    6.6792   -6.9510    8.0253 C   0  0  0  0  0  0  0  0  0  0  0  0
    5.5452   -7.5200    5.7906 C   0  0  1  0  0  0  0  0  0  0  0  0
    4.1105   -7.6979    5.4128 C   0  0  0  0  0  0  0  0  0  0  0  0
    3.7289   -8.9572    5.1484 C   0  0  0  0  0  0  0  0  0  0  0  0
    2.8320   -9.3409    4.0331 C   0  0  0  0  0  0  0  0  0  0  0  0
    3.2806   -8.6680    2.6979 C   0  0  2  0  0  0  0  0  0  0  0  0
    2.6762   -9.6073    1.6080 C   0  0  0  0  0  0  0  0  0  0  0  0
    4.8598   -8.6962    2.4159 C   0  0  0  0  0  0  0  0  0  0  0  0
    6.0543   -8.5357    3.4327 C   0  0  0  0  0  0  0  0  0  0  0  0
    6.2885   -7.3452    4.4381 C   0  0  1  0  0  0  0  0  0  0  0  0
    6.2272   -5.8979    3.8876 C   0  0  1  0  0  0  0  0  0  0  0  0
    6.6309   -5.5894    2.4277 C   0  0  0  0  0  0  0  0  0  0  0  0
    5.5919   -4.7161    1.6785 C   0  0  1  0  0  0  0  0  0  0  0  0
    6.2030   -3.9951    0.4492 C   0  0  0  0  0  0  0  0  0  0  0  0
    7.5753   -3.7140    0.1944 C   0  0  0  0  0  0  0  0  0  0  0  0
    7.6512   -3.0650   -1.0104 C   0  0  0  0  0  0  0  0  0  0  0  0
    6.4085   -2.8550   -1.5037 O   0  0  0  0  0  0  0  0  0  0  0  0
    5.5439   -3.3986   -0.5954 C   0  0  0  0  0  0  0  0  0  0  0  0
    4.3265   -5.5890    1.5167 C   0  0  0  0  0  0  0  0  0  0  0  0
    4.0093   -6.0926    0.0837 C   0  0  0  0  0  0  0  0  0  0  0  0
    3.5977   -6.0303    2.6038 C   0  0  0  0  0  0  0  0  0  0  0  0
    2.6382   -7.2401    2.4644 C   0  0  2  0  0  0  0  0  0  0  0  0
    3.7777   -5.4318    4.0442 C   0  0  1  0  0  0  0  0  0  0  0  0
    3.0926   -3.9845    4.1655 C   0  0  0  0  0  0  0  0  0  0  0  0
    2.6465   -3.2978    2.8454 C   0  0  0  0  0  0  0  0  0  0  0  0
    3.8464   -2.9363    5.0232 C   0  0  0  0  0  0  0  0  0  0  0  0
    5.1342   -5.0975    4.3143 O   0  0  0  0  0  0  0  0  0  0  0  0
   -0.5692   -6.2728    0.1148 H   0  0  0  0  0  0  0  0  0  0  0  0
   -0.8940   -7.6577    1.1622 H   0  0  0  0  0  0  0  0  0  0  0  0
    0.6292   -7.5442    0.2567 H   0  0  0  0  0  0  0  0  0  0  0  0
    0.6423   -8.0291    2.8562 H   0  0  0  0  0  0  0  0  0  0  0  0
    0.7640   -5.3061    3.9747 H   0  0  0  0  0  0  0  0  0  0  0  0
   -0.7584   -7.7688    4.8424 H   0  0  0  0  0  0  0  0  0  0  0  0
   -1.3519   -6.4572    3.8321 H   0  0  0  0  0  0  0  0  0  0  0  0
   -0.9239   -6.1432    5.5028 H   0  0  0  0  0  0  0  0  0  0  0  0
    1.3944   -5.9955    6.1684 H   0  0  0  0  0  0  0  0  0  0  0  0
    1.5741   -7.6264    5.8006 H   0  0  0  0  0  0  0  0  0  0  0  0
    4.5165   -5.2049    8.1679 H   0  0  0  0  0  0  0  0  0  0  0  0
    3.8992   -6.8418    8.0075 H   0  0  0  0  0  0  0  0  0  0  0  0
    6.2210   -5.5616    6.4980 H   0  0  0  0  0  0  0  0  0  0  0  0
    6.2683   -7.8248    8.5364 H   0  0  0  0  0  0  0  0  0  0  0  0
    6.8353   -6.1769    8.7775 H   0  0  0  0  0  0  0  0  0  0  0  0
    7.6610   -7.2271    7.6375 H   0  0  0  0  0  0  0  0  0  0  0  0
    5.8931   -8.4653    6.2171 H   0  0  0  0  0  0  0  0  0  0  0  0
    4.4232   -9.7580    5.3722 H   0  0  0  0  0  0  0  0  0  0  0  0
    2.9264  -10.4246    3.9527 H   0  0  0  0  0  0  0  0  0  0  0  0
    1.7844   -9.1826    4.2769 H   0  0  0  0  0  0  0  0  0  0  0  0
    2.9470   -9.3045    0.5953 H   0  0  0  0  0  0  0  0  0  0  0  0
    1.5891   -9.6534    1.6643 H   0  0  0  0  0  0  0  0  0  0  0  0
    3.0316  -10.6320    1.7156 H   0  0  0  0  0  0  0  0  0  0  0  0
    5.0561   -9.6893    2.0143 H   0  0  0  0  0  0  0  0  0  0  0  0
    5.0930   -8.0806    1.5600 H   0  0  0  0  0  0  0  0  0  0  0  0
    6.1345   -9.4606    3.9971 H   0  0  0  0  0  0  0  0  0  0  0  0
    6.9480   -8.5675    2.8118 H   0  0  0  0  0  0  0  0  0  0  0  0
    7.3355   -7.4694    4.7087 H   0  0  0  0  0  0  0  0  0  0  0  0
    7.0255   -5.4131    4.4507 H   0  0  0  0  0  0  0  0  0  0  0  0
    7.5706   -5.0550    2.5141 H   0  0  0  0  0  0  0  0  0  0  0  0
    6.8853   -6.4866    1.8570 H   0  0  0  0  0  0  0  0  0  0  0  0
    5.3885   -3.8680    2.3288 H   0  0  0  0  0  0  0  0  0  0  0  0
    8.4510   -3.9637    0.7738 H   0  0  0  0  0  0  0  0  0  0  0  0
    8.4755   -2.7184   -1.6250 H   0  0  0  0  0  0  0  0  0  0  0  0
    4.5077   -3.2760   -0.8815 H   0  0  0  0  0  0  0  0  0  0  0  0
    4.5812   -5.6766   -0.7363 H   0  0  0  0  0  0  0  0  0  0  0  0
    2.9594   -5.8617   -0.1197 H   0  0  0  0  0  0  0  0  0  0  0  0
    4.1422   -7.1675   -0.0230 H   0  0  0  0  0  0  0  0  0  0  0  0
    2.4876   -7.3049    1.4074 H   0  0  0  0  0  0  0  0  0  0  0  0
    2.1798   -4.0942    4.7484 H   0  0  0  0  0  0  0  0  0  0  0  0
    3.4780   -2.9172    2.2557 H   0  0  0  0  0  0  0  0  0  0  0  0
    2.0312   -2.4260    3.0620 H   0  0  0  0  0  0  0  0  0  0  0  0
    2.0506   -3.9490    2.2075 H   0  0  0  0  0  0  0  0  0  0  0  0
    4.7814   -2.6170    4.5652 H   0  0  0  0  0  0  0  0  0  0  0  0
    4.0692   -3.2844    6.0285 H   0  0  0  0  0  0  0  0  0  0  0  0
    3.2184   -2.0523    5.1433 H   0  0  0  0  0  0  0  0  0  0  0  0
  1  2  1  0
  1 38  1  0
  1 39  1  0
  1 40  1  0
  2  3  1  0
  3 32  1  0
  3  4  1  0
  3 41  1  1
  4  5  1  0
  4  6  1  0
  4 42  1  6
  5 43  1  0
  5 44  1  0
  5 45  1  0
  6  7  1  0
  6 46  1  0
  6 47  1  0
  7 13  1  0
  7 33  1  0
  7  8  1  1
  8  9  1  0
  9 10  1  0
  9 48  1  0
  9 49  1  0
 10 11  1  0
 10 12  1  0
 10 50  1  6
 11 51  1  0
 11 52  1  0
 11 53  1  0
 12 20  1  0
 12 13  1  0
 12 54  1  1
 13 14  2  3
 14 15  1  0
 14 55  1  0
 15 16  1  0
 15 56  1  0
 15 57  1  0
 16 32  1  0
 16 17  1  6
 16 18  1  0
 17 58  1  0
 17 59  1  0
 17 60  1  0
 18 19  1  0
 18 61  1  0
 18 62  1  0
 19 20  1  0
 19 63  1  0
 19 64  1  0
 20 21  1  0
 20 65  1  1
 21 37  1  0
 21 22  1  0
 21 66  1  1
 22 23  1  0
 22 67  1  0
 22 68  1  0
 23 24  1  0
 23 29  1  0
 23 69  1  1
 24 28  2  0
 24 25  1  0
 25 26  2  0
 25 70  1  0
 26 27  1  0
 26 71  1  0
 27 28  1  0
 28 72  1  0
 29 30  1  0
 29 31  2  0
 30 73  1  0
 30 74  1  0
 30 75  1  0
 31 32  1  0
 31 33  1  0
 32 76  1  6
 33 34  1  6
 33 37  1  0
 34 35  1  0
 34 36  1  0
 34 77  1  0
 35 78  1  0
 35 79  1  0
 35 80  1  0
 36 81  1  0
 36 82  1  0
 36 83  1  0
M  END
>  <i_m_ct_stereo_status>  (4) 
1

>  <s_m_source_file>  (4) 
/var/tmp/pbs.5076255.sched01/tmp3_il56_a/09f63jmog.sdf

>  <i_m_source_file_index>  (4) 
2

>  <i_lp_mmshare_version>  (4) 
48012

>  <i_f3d_flags>  (4) 
0

>  <s_epik_input>  (4) 
W0NIM11PW0NASF0oW0NAQEhdKFtDSDNdKVtDSDJdMSlbQ0BIXShbQ0BdKFtDSDNdKShbQ0gyXVxbQ0hdMilbQ0gyXVtDSDJdMylDKFtDQEBdNChPNSlbQ0hdKFtDSDNdKVtDSDNdKT1DKFtDSDNdKVtDQEhdKGM2W2NIXVtjSF1vW2NIXTYpW0NIMl1bQ0BASF01W0NASF0zW0NASF0oQz0yXFtDQF0xNDcpW0NAQEhdKFtDSDJdTzcpW0NIM10=

>  <s_epik_cmdline>  (4) 
J2VwaWtfcHl0aG9uJywgJy1waHQnLCAnMi4wJywgJy1waCcsICc3LjAnLCAnLXRuJywgJzgnLCAnLW1hJywgJzIwMCcsICctaW1hZScsICc8aW5maWxlLm1hZT4nLCAnLW9tYWUnLCAnPG91dGZpbGUubWFlPic=

>  <r_lp_tautomer_probability>  (4) 
1

>  <r_epik_Ionization_Penalty>  (4) 
2.26003e-11

>  <r_epik_Ionization_Penalty_Charging>  (4) 
0

>  <r_epik_Ionization_Penalty_Neutral>  (4) 
2.26003e-11

>  <r_epik_State_Penalty>  (4) 
-0

>  <r_epik_Charging_Adjusted_Penalty>  (4) 
0

>  <i_epik_Tot_Q>  (4) 
0

>  <i_epik_Tot_abs_Q>  (4) 
0

>  <s_lp_Force_Field>  (4) 
OPLS3e

>  <r_lp_Energy>  (4) 
153.201

>  <b_lp_Chiralities_Consistent>  (4) 
1

>  <s_lp_Variant>  (4) 
0:0-2

>  <s_i_glide_gridfile>  (4) 
pfpi4k_grid

>  <i_i_glide_lignum>  (4) 
2

>  <i_i_glide_rotatable_bonds>  (4) 
3

>  <r_i_docking_score>  (4) 
-2.28415

>  <r_i_glide_ligand_efficiency>  (4) 
-0.0617338

>  <r_i_glide_ligand_efficiency_sa>  (4) 
-0.205711

>  <r_i_glide_ligand_efficiency_ln>  (4) 
-0.495379

>  <r_i_glide_gscore>  (4) 
-2.28415

>  <r_i_glide_lipo>  (4) 
-0.464821

>  <r_i_glide_hbond>  (4) 
-0.195931

>  <r_i_glide_metal>  (4) 
-0

>  <r_i_glide_rewards>  (4) 
0

>  <r_i_glide_evdw>  (4) 
-25.7603

>  <r_i_glide_ecoul>  (4) 
-2.76719

>  <r_i_glide_erotb>  (4) 
0.0796923

>  <r_i_glide_esite>  (4) 
0

>  <r_i_glide_emodel>  (4) 
-31.0897

>  <r_i_glide_energy>  (4) 
-28.5275

>  <r_i_glide_einternal>  (4) 
1.65002

>  <r_i_glide_intrahb_reward>  (4) 
-0

>  <i_i_glide_confnum>  (4) 
3

>  <i_i_glide_posenum>  (4) 
16

>  <r_i_glide_eff_state_penalty>  (4) 
0

>  <ligand_id>  (4) 
0

>  <original_smiles>  (4) 
COC1C(C)CC23OCC(C)C4C2=CCC2(C)CCC4C4CC(c5ccoc5)C(C)=C(C12)C3(C(C)C)O4

>  <smiles>  (4) 
[H]C1=C2C3([H])C([H])(C([H])([H])[H])C([H])([H])OC24C([H])([H])C([H])(C([H])([H])[H])C([H])(OC([H])([H])[H])C2([H])C5=C(C([H])([H])[H])C([H])(c6c([H])oc([H])c6[H])C([H])([H])C([H])(OC54C([H])(C([H])([H])[H])C([H])([H])[H])C3([H])C([H])([H])C([H])([H])C2(C([H])([H])[H])C1([H])[H]

$$$$
0:1:1
     RDKit          3D

 83 89  0  0  1  0  0  0  0  0999 V2000
    0.2245   -8.3427   10.0371 C   0  0  0  0  0  0  0  0  0  0  0  0
   -0.1831   -7.0358    9.6515 O   0  0  0  0  0  0  0  0  0  0  0  0
    0.7847   -6.0040    9.8639 C   0  0  2  0  0  0  0  0  0  0  0  0
   -0.0444   -4.7737   10.2915 C   0  0  1  0  0  0  0  0  0  0  0  0
   -0.5019   -4.9266   11.7559 C   0  0  0  0  0  0  0  0  0  0  0  0
    0.5953   -3.3795   10.0917 C   0  0  0  0  0  0  0  0  0  0  0  0
    1.1382   -2.9469    8.6838 C   0  0  1  0  0  0  0  0  0  0  0  0
    0.4619   -1.6787    8.4978 O   0  0  0  0  0  0  0  0  0  0  0  0
    1.2273   -0.4712    8.4507 C   0  0  0  0  0  0  0  0  0  0  0  0
    2.3244   -0.5837    7.3730 C   0  0  1  0  0  0  0  0  0  0  0  0
    3.1534    0.7102    7.2776 C   0  0  0  0  0  0  0  0  0  0  0  0
    3.2098   -1.8328    7.6406 C   0  0  1  0  0  0  0  0  0  0  0  0
    2.6659   -2.7003    8.7353 C   0  0  0  0  0  0  0  0  0  0  0  0
    3.5856   -3.2456    9.5500 C   0  0  0  0  0  0  0  0  0  0  0  0
    3.5389   -4.6466   10.0426 C   0  0  0  0  0  0  0  0  0  0  0  0
    3.2615   -5.6460    8.8757 C   0  0  2  0  0  0  0  0  0  0  0  0
    3.8360   -6.9963    9.4138 C   0  0  0  0  0  0  0  0  0  0  0  0
    4.0800   -5.3723    7.5262 C   0  0  0  0  0  0  0  0  0  0  0  0
    4.4732   -3.9929    6.8622 C   0  0  0  0  0  0  0  0  0  0  0  0
    3.5031   -2.8122    6.4678 C   0  0  1  0  0  0  0  0  0  0  0  0
    2.2475   -3.1367    5.6164 C   0  0  1  0  0  0  0  0  0  0  0  0
    2.2433   -4.3033    4.6081 C   0  0  0  0  0  0  0  0  0  0  0  0
    1.0227   -5.2444    4.7722 C   0  0  1  0  0  0  0  0  0  0  0  0
    0.7779   -6.0897    3.5250 C   0  0  0  0  0  0  0  0  0  0  0  0
   -0.2458   -7.0633    3.3293 C   0  0  0  0  0  0  0  0  0  0  0  0
   -0.0958   -7.5541    2.0645 C   0  0  0  0  0  0  0  0  0  0  0  0
    0.9195   -6.9218    1.4241 O   0  0  0  0  0  0  0  0  0  0  0  0
    1.4444   -6.0529    2.3255 C   0  0  0  0  0  0  0  0  0  0  0  0
    1.1641   -5.9556    6.1320 C   0  0  0  0  0  0  0  0  0  0  0  0
    1.4715   -7.4636    6.0685 C   0  0  0  0  0  0  0  0  0  0  0  0
    1.1436   -5.2561    7.3193 C   0  0  0  0  0  0  0  0  0  0  0  0
    1.7165   -5.8941    8.6119 C   0  0  2  0  0  0  0  0  0  0  0  0
    0.6304   -3.7856    7.4196 C   0  0  1  0  0  0  0  0  0  0  0  0
   -0.9668   -3.7239    7.3174 C   0  0  0  0  0  0  0  0  0  0  0  0
   -1.7152   -5.0560    7.0886 C   0  0  0  0  0  0  0  0  0  0  0  0
   -1.5407   -2.6724    6.3324 C   0  0  0  0  0  0  0  0  0  0  0  0
    1.0002   -3.0135    6.2750 O   0  0  0  0  0  0  0  0  0  0  0  0
   -0.5815   -9.0395    9.8130 H   0  0  0  0  0  0  0  0  0  0  0  0
    0.4245   -8.3998   11.1084 H   0  0  0  0  0  0  0  0  0  0  0  0
    1.1100   -8.6820    9.4990 H   0  0  0  0  0  0  0  0  0  0  0  0
    1.3833   -6.2993   10.7264 H   0  0  0  0  0  0  0  0  0  0  0  0
   -0.9716   -4.8051    9.7327 H   0  0  0  0  0  0  0  0  0  0  0  0
    0.3457   -4.9094   12.4412 H   0  0  0  0  0  0  0  0  0  0  0  0
   -1.0304   -5.8689   11.9074 H   0  0  0  0  0  0  0  0  0  0  0  0
   -1.1805   -4.1234   12.0469 H   0  0  0  0  0  0  0  0  0  0  0  0
   -0.1873   -2.6764   10.3753 H   0  0  0  0  0  0  0  0  0  0  0  0
    1.3388   -3.1988   10.8654 H   0  0  0  0  0  0  0  0  0  0  0  0
    0.5527    0.3554    8.2139 H   0  0  0  0  0  0  0  0  0  0  0  0
    1.6549   -0.2635    9.4333 H   0  0  0  0  0  0  0  0  0  0  0  0
    1.8089   -0.6752    6.4194 H   0  0  0  0  0  0  0  0  0  0  0  0
    3.6809    0.9240    8.2085 H   0  0  0  0  0  0  0  0  0  0  0  0
    2.5197    1.5694    7.0548 H   0  0  0  0  0  0  0  0  0  0  0  0
    3.8977    0.6408    6.4835 H   0  0  0  0  0  0  0  0  0  0  0  0
    4.1756   -1.4483    7.9722 H   0  0  0  0  0  0  0  0  0  0  0  0
    4.6063   -2.9089    9.4588 H   0  0  0  0  0  0  0  0  0  0  0  0
    4.5314   -4.8293   10.4540 H   0  0  0  0  0  0  0  0  0  0  0  0
    2.8746   -4.7551   10.8927 H   0  0  0  0  0  0  0  0  0  0  0  0
    3.7462   -7.8026    8.6821 H   0  0  0  0  0  0  0  0  0  0  0  0
    3.3329   -7.3255   10.3237 H   0  0  0  0  0  0  0  0  0  0  0  0
    4.8980   -6.9222    9.6580 H   0  0  0  0  0  0  0  0  0  0  0  0
    5.0625   -5.8139    7.6903 H   0  0  0  0  0  0  0  0  0  0  0  0
    3.6971   -6.0041    6.7353 H   0  0  0  0  0  0  0  0  0  0  0  0
    5.2860   -3.5659    7.4477 H   0  0  0  0  0  0  0  0  0  0  0  0
    4.9801   -4.2694    5.9376 H   0  0  0  0  0  0  0  0  0  0  0  0
    4.1204   -2.2188    5.7926 H   0  0  0  0  0  0  0  0  0  0  0  0
    2.1827   -2.2719    4.9559 H   0  0  0  0  0  0  0  0  0  0  0  0
    2.2054   -3.8407    3.6223 H   0  0  0  0  0  0  0  0  0  0  0  0
    3.1774   -4.8641    4.6255 H   0  0  0  0  0  0  0  0  0  0  0  0
    0.1220   -4.6338    4.7926 H   0  0  0  0  0  0  0  0  0  0  0  0
   -0.9829   -7.4018    4.0426 H   0  0  0  0  0  0  0  0  0  0  0  0
   -0.5961   -8.3153    1.4878 H   0  0  0  0  0  0  0  0  0  0  0  0
    2.2828   -5.4897    1.9417 H   0  0  0  0  0  0  0  0  0  0  0  0
    1.3438   -7.9363    5.1014 H   0  0  0  0  0  0  0  0  0  0  0  0
    0.7853   -7.9859    6.7370 H   0  0  0  0  0  0  0  0  0  0  0  0
    2.4883   -7.6984    6.3751 H   0  0  0  0  0  0  0  0  0  0  0  0
    1.7514   -6.9362    8.3567 H   0  0  0  0  0  0  0  0  0  0  0  0
   -1.3379   -3.3896    8.2807 H   0  0  0  0  0  0  0  0  0  0  0  0
   -1.5684   -5.4552    6.0874 H   0  0  0  0  0  0  0  0  0  0  0  0
   -2.7889   -4.9175    7.2253 H   0  0  0  0  0  0  0  0  0  0  0  0
   -1.4085   -5.8241    7.7935 H   0  0  0  0  0  0  0  0  0  0  0  0
   -1.3188   -2.9173    5.2965 H   0  0  0  0  0  0  0  0  0  0  0  0
   -1.1463   -1.6712    6.5029 H   0  0  0  0  0  0  0  0  0  0  0  0
   -2.6254   -2.6271    6.4226 H   0  0  0  0  0  0  0  0  0  0  0  0
  1  2  1  0
  1 38  1  0
  1 39  1  0
  1 40  1  0
  2  3  1  0
  3 32  1  0
  3  4  1  0
  3 41  1  1
  4  5  1  0
  4  6  1  0
  4 42  1  6
  5 43  1  0
  5 44  1  0
  5 45  1  0
  6  7  1  0
  6 46  1  0
  6 47  1  0
  7 13  1  0
  7 33  1  0
  7  8  1  6
  8  9  1  0
  9 10  1  0
  9 48  1  0
  9 49  1  0
 10 11  1  0
 10 12  1  0
 10 50  1  6
 11 51  1  0
 11 52  1  0
 11 53  1  0
 12 20  1  0
 12 13  1  0
 12 54  1  1
 13 14  2  3
 14 15  1  0
 14 55  1  0
 15 16  1  0
 15 56  1  0
 15 57  1  0
 16 32  1  0
 16 17  1  1
 16 18  1  0
 17 58  1  0
 17 59  1  0
 17 60  1  0
 18 19  1  0
 18 61  1  0
 18 62  1  0
 19 20  1  0
 19 63  1  0
 19 64  1  0
 20 21  1  0
 20 65  1  6
 21 37  1  0
 21 22  1  0
 21 66  1  6
 22 23  1  0
 22 67  1  0
 22 68  1  0
 23 24  1  0
 23 29  1  0
 23 69  1  1
 24 28  2  0
 24 25  1  0
 25 26  2  0
 25 70  1  0
 26 27  1  0
 26 71  1  0
 27 28  1  0
 28 72  1  0
 29 30  1  0
 29 31  2  0
 30 73  1  0
 30 74  1  0
 30 75  1  0
 31 32  1  0
 31 33  1  0
 32 76  1  6
 33 34  1  1
 33 37  1  0
 34 35  1  0
 34 36  1  0
 34 77  1  0
 35 78  1  0
 35 79  1  0
 35 80  1  0
 36 81  1  0
 36 82  1  0
 36 83  1  0
M  END
>  <i_m_ct_stereo_status>  (5) 
1

>  <s_m_source_file>  (5) 
/var/tmp/pbs.5076255.sched01/tmp3_il56_a/09f63jmog.sdf

>  <i_m_source_file_index>  (5) 
2

>  <i_lp_mmshare_version>  (5) 
48012

>  <i_f3d_flags>  (5) 
0

>  <s_epik_input>  (5) 
W0NIM11PW0NASF0oW0NAQEhdKFtDSDNdKVtDSDJdMSlbQ0BIXShbQ0BdKFtDSDNdKShbQ0gyXVxbQ0hdMilbQ0gyXVtDSDJdMylDKFtDQEBdNChPNSlbQ0hdKFtDSDNdKVtDSDNdKT1DKFtDSDNdKVtDQEhdKGM2W2NIXVtjSF1vW2NIXTYpW0NIMl1bQ0BASF01W0NASF0zW0NASF0oQz0yXFtDQF0xNDcpW0NAQEhdKFtDSDJdTzcpW0NIM10=

>  <s_epik_cmdline>  (5) 
J2VwaWtfcHl0aG9uJywgJy1waHQnLCAnMi4wJywgJy1waCcsICc3LjAnLCAnLXRuJywgJzgnLCAnLW1hJywgJzIwMCcsICctaW1hZScsICc8aW5maWxlLm1hZT4nLCAnLW9tYWUnLCAnPG91dGZpbGUubWFlPic=

>  <r_lp_tautomer_probability>  (5) 
1

>  <r_epik_Ionization_Penalty>  (5) 
2.26003e-11

>  <r_epik_Ionization_Penalty_Charging>  (5) 
0

>  <r_epik_Ionization_Penalty_Neutral>  (5) 
2.26003e-11

>  <r_epik_State_Penalty>  (5) 
-0

>  <r_epik_Charging_Adjusted_Penalty>  (5) 
0

>  <i_epik_Tot_Q>  (5) 
0

>  <i_epik_Tot_abs_Q>  (5) 
0

>  <s_lp_Force_Field>  (5) 
OPLS3e

>  <r_lp_Energy>  (5) 
153.201

>  <b_lp_Chiralities_Consistent>  (5) 
1

>  <s_lp_Variant>  (5) 
0:0-2

>  <s_i_glide_gridfile>  (5) 
pfpi4k_grid

>  <i_i_glide_lignum>  (5) 
2

>  <i_i_glide_rotatable_bonds>  (5) 
3

>  <r_i_docking_score>  (5) 
-2.07311

>  <r_i_glide_ligand_efficiency>  (5) 
-0.0560299

>  <r_i_glide_ligand_efficiency_sa>  (5) 
-0.186704

>  <r_i_glide_ligand_efficiency_ln>  (5) 
-0.449609

>  <r_i_glide_gscore>  (5) 
-2.07311

>  <r_i_glide_lipo>  (5) 
-0.0350143

>  <r_i_glide_hbond>  (5) 
-0.337354

>  <r_i_glide_metal>  (5) 
-0

>  <r_i_glide_rewards>  (5) 
0

>  <r_i_glide_evdw>  (5) 
-17.3572

>  <r_i_glide_ecoul>  (5) 
-6.0838

>  <r_i_glide_erotb>  (5) 
0.0796923

>  <r_i_glide_esite>  (5) 
0

>  <r_i_glide_emodel>  (5) 
-26.4807

>  <r_i_glide_energy>  (5) 
-23.441

>  <r_i_glide_einternal>  (5) 
1.31493

>  <r_i_glide_intrahb_reward>  (5) 
-0

>  <i_i_glide_confnum>  (5) 
1

>  <i_i_glide_posenum>  (5) 
3

>  <r_i_glide_eff_state_penalty>  (5) 
0

>  <ligand_id>  (5) 
0

>  <original_smiles>  (5) 
COC1C(C)CC23OCC(C)C4C2=CCC2(C)CCC4C4CC(c5ccoc5)C(C)=C(C12)C3(C(C)C)O4

>  <smiles>  (5) 
[H]C1=C2C3([H])C([H])(C([H])([H])[H])C([H])([H])OC24C([H])([H])C([H])(C([H])([H])[H])C([H])(OC([H])([H])[H])C2([H])C5=C(C([H])([H])[H])C([H])(c6c([H])oc([H])c6[H])C([H])([H])C([H])(OC54C([H])(C([H])([H])[H])C([H])([H])[H])C3([H])C([H])([H])C([H])([H])C2(C([H])([H])[H])C1([H])[H]

$$$$
0:1:2
     RDKit          3D

 83 89  0  0  1  0  0  0  0  0999 V2000
    5.8814   -0.9228    7.7678 C   0  0  0  0  0  0  0  0  0  0  0  0
    4.5586   -1.2014    7.3279 O   0  0  0  0  0  0  0  0  0  0  0  0
    3.6639   -0.0862    7.3283 C   0  0  2  0  0  0  0  0  0  0  0  0
    2.3129   -0.6699    7.7816 C   0  0  1  0  0  0  0  0  0  0  0  0
    2.3085   -0.8921    9.3072 C   0  0  0  0  0  0  0  0  0  0  0  0
    1.0355    0.1044    7.3728 C   0  0  0  0  0  0  0  0  0  0  0  0
    0.7568    0.4614    5.8698 C   0  0  1  0  0  0  0  0  0  0  0  0
   -0.5949   -0.0405    5.7342 O   0  0  0  0  0  0  0  0  0  0  0  0
   -1.6695    0.8480    5.4277 C   0  0  0  0  0  0  0  0  0  0  0  0
   -1.3327    1.7168    4.2017 C   0  0  1  0  0  0  0  0  0  0  0  0
   -2.4808    2.6880    3.8741 C   0  0  0  0  0  0  0  0  0  0  0  0
    0.0125    2.4595    4.4251 C   0  0  1  0  0  0  0  0  0  0  0  0
    0.7261    1.9989    5.6629 C   0  0  0  0  0  0  0  0  0  0  0  0
    1.3481    2.9631    6.3670 C   0  0  0  0  0  0  0  0  0  0  0  0
    2.6951    2.8127    6.9765 C   0  0  0  0  0  0  0  0  0  0  0  0
    3.7067    2.2177    5.9494 C   0  0  2  0  0  0  0  0  0  0  0  0
    5.0978    2.6875    6.4921 C   0  0  0  0  0  0  0  0  0  0  0  0
    3.6232    2.8292    4.4734 C   0  0  0  0  0  0  0  0  0  0  0  0
    2.3628    3.2865    3.6407 C   0  0  0  0  0  0  0  0  0  0  0  0
    1.0880    2.4211    3.3035 C   0  0  1  0  0  0  0  0  0  0  0  0
    1.2812    1.0111    2.6790 C   0  0  1  0  0  0  0  0  0  0  0  0
    2.5056    0.6983    1.7825 C   0  0  0  0  0  0  0  0  0  0  0  0
    3.2624   -0.5789    2.2094 C   0  0  1  0  0  0  0  0  0  0  0  0
    4.1214   -1.1239    1.0681 C   0  0  0  0  0  0  0  0  0  0  0  0
    3.8259   -2.2672    0.2678 C   0  0  0  0  0  0  0  0  0  0  0  0
    4.8533   -2.4172   -0.6275 C   0  0  0  0  0  0  0  0  0  0  0  0
    5.7573   -1.4209   -0.4794 O   0  0  0  0  0  0  0  0  0  0  0  0
    5.2901   -0.6350    0.5272 C   0  0  0  0  0  0  0  0  0  0  0  0
    3.8908   -0.3313    3.5978 C   0  0  0  0  0  0  0  0  0  0  0  0
    5.4283   -0.2681    3.6559 C   0  0  0  0  0  0  0  0  0  0  0  0
    3.1152   -0.0662    4.7084 C   0  0  0  0  0  0  0  0  0  0  0  0
    3.7411    0.6330    5.9472 C   0  0  2  0  0  0  0  0  0  0  0  0
    1.5788   -0.3558    4.7608 C   0  0  1  0  0  0  0  0  0  0  0  0
    1.2896   -1.9301    4.9095 C   0  0  0  0  0  0  0  0  0  0  0  0
    2.4827   -2.8971    4.6896 C   0  0  0  0  0  0  0  0  0  0  0  0
    0.0804   -2.4802    4.1172 C   0  0  0  0  0  0  0  0  0  0  0  0
    0.9375   -0.0884    3.5112 O   0  0  0  0  0  0  0  0  0  0  0  0
    6.4668   -1.8403    7.7266 H   0  0  0  0  0  0  0  0  0  0  0  0
    5.8952   -0.5644    8.7986 H   0  0  0  0  0  0  0  0  0  0  0  0
    6.3786   -0.1859    7.1368 H   0  0  0  0  0  0  0  0  0  0  0  0
    3.9976    0.5995    8.1110 H   0  0  0  0  0  0  0  0  0  0  0  0
    2.2729   -1.6778    7.3787 H   0  0  0  0  0  0  0  0  0  0  0  0
    2.3694    0.0500    9.8536 H   0  0  0  0  0  0  0  0  0  0  0  0
    3.1535   -1.5109    9.6130 H   0  0  0  0  0  0  0  0  0  0  0  0
    1.4013   -1.4042    9.6292 H   0  0  0  0  0  0  0  0  0  0  0  0
    0.2213   -0.5293    7.7178 H   0  0  0  0  0  0  0  0  0  0  0  0
    0.9099    0.9798    8.0049 H   0  0  0  0  0  0  0  0  0  0  0  0
   -2.5499    0.2395    5.2233 H   0  0  0  0  0  0  0  0  0  0  0  0
   -1.8935    1.4659    6.2985 H   0  0  0  0  0  0  0  0  0  0  0  0
   -1.2616    1.0450    3.3484 H   0  0  0  0  0  0  0  0  0  0  0  0
   -2.6766    3.3800    4.6940 H   0  0  0  0  0  0  0  0  0  0  0  0
   -3.4039    2.1440    3.6813 H   0  0  0  0  0  0  0  0  0  0  0  0
   -2.2604    3.2752    2.9808 H   0  0  0  0  0  0  0  0  0  0  0  0
   -0.2431    3.5109    4.5659 H   0  0  0  0  0  0  0  0  0  0  0  0
    1.1718    3.9901    6.0873 H   0  0  0  0  0  0  0  0  0  0  0  0
    2.9993    3.8271    7.2398 H   0  0  0  0  0  0  0  0  0  0  0  0
    2.6619    2.2848    7.9250 H   0  0  0  0  0  0  0  0  0  0  0  0
    5.9226    2.3662    5.8531 H   0  0  0  0  0  0  0  0  0  0  0  0
    5.3024    2.3035    7.4919 H   0  0  0  0  0  0  0  0  0  0  0  0
    5.1688    3.7748    6.5592 H   0  0  0  0  0  0  0  0  0  0  0  0
    4.2019    3.7507    4.5030 H   0  0  0  0  0  0  0  0  0  0  0  0
    4.2115    2.2080    3.8118 H   0  0  0  0  0  0  0  0  0  0  0  0
    2.0183    4.2371    4.0460 H   0  0  0  0  0  0  0  0  0  0  0  0
    2.7688    3.5872    2.6751 H   0  0  0  0  0  0  0  0  0  0  0  0
    0.6307    2.9813    2.4886 H   0  0  0  0  0  0  0  0  0  0  0  0
    0.4621    0.9551    1.9588 H   0  0  0  0  0  0  0  0  0  0  0  0
    2.1178    0.5309    0.7755 H   0  0  0  0  0  0  0  0  0  0  0  0
    3.1853    1.5479    1.6948 H   0  0  0  0  0  0  0  0  0  0  0  0
    2.5038   -1.3513    2.2993 H   0  0  0  0  0  0  0  0  0  0  0  0
    2.9727   -2.9222    0.3363 H   0  0  0  0  0  0  0  0  0  0  0  0
    5.0810   -3.1427   -1.3974 H   0  0  0  0  0  0  0  0  0  0  0  0
    5.9157    0.2160    0.7365 H   0  0  0  0  0  0  0  0  0  0  0  0
    5.9653   -0.7351    2.8374 H   0  0  0  0  0  0  0  0  0  0  0  0
    5.7628   -0.8274    4.5293 H   0  0  0  0  0  0  0  0  0  0  0  0
    5.7947    0.7510    3.7643 H   0  0  0  0  0  0  0  0  0  0  0  0
    4.7900    0.5004    5.7891 H   0  0  0  0  0  0  0  0  0  0  0  0
    0.9626   -2.1164    5.9287 H   0  0  0  0  0  0  0  0  0  0  0  0
    2.7817   -2.9764    3.6460 H   0  0  0  0  0  0  0  0  0  0  0  0
    2.2133   -3.9075    4.9943 H   0  0  0  0  0  0  0  0  0  0  0  0
    3.3621   -2.6251    5.2715 H   0  0  0  0  0  0  0  0  0  0  0  0
    0.2573   -2.4600    3.0438 H   0  0  0  0  0  0  0  0  0  0  0  0
   -0.8403   -1.9356    4.3143 H   0  0  0  0  0  0  0  0  0  0  0  0
   -0.1085   -3.5151    4.4025 H   0  0  0  0  0  0  0  0  0  0  0  0
  1  2  1  0
  1 38  1  0
  1 39  1  0
  1 40  1  0
  2  3  1  0
  3 32  1  0
  3  4  1  0
  3 41  1  1
  4  5  1  0
  4  6  1  0
  4 42  1  6
  5 43  1  0
  5 44  1  0
  5 45  1  0
  6  7  1  0
  6 46  1  0
  6 47  1  0
  7 13  1  0
  7 33  1  0
  7  8  1  6
  8  9  1  0
  9 10  1  0
  9 48  1  0
  9 49  1  0
 10 11  1  0
 10 12  1  0
 10 50  1  6
 11 51  1  0
 11 52  1  0
 11 53  1  0
 12 20  1  0
 12 13  1  0
 12 54  1  1
 13 14  2  3
 14 15  1  0
 14 55  1  0
 15 16  1  0
 15 56  1  0
 15 57  1  0
 16 32  1  0
 16 17  1  1
 16 18  1  0
 17 58  1  0
 17 59  1  0
 17 60  1  0
 18 19  1  0
 18 61  1  0
 18 62  1  0
 19 20  1  0
 19 63  1  0
 19 64  1  0
 20 21  1  0
 20 65  1  6
 21 37  1  0
 21 22  1  0
 21 66  1  6
 22 23  1  0
 22 67  1  0
 22 68  1  0
 23 24  1  0
 23 29  1  0
 23 69  1  1
 24 28  2  0
 24 25  1  0
 25 26  2  0
 25 70  1  0
 26 27  1  0
 26 71  1  0
 27 28  1  0
 28 72  1  0
 29 30  1  0
 29 31  2  0
 30 73  1  0
 30 74  1  0
 30 75  1  0
 31 32  1  0
 31 33  1  0
 32 76  1  6
 33 34  1  1
 33 37  1  0
 34 35  1  0
 34 36  1  0
 34 77  1  0
 35 78  1  0
 35 79  1  0
 35 80  1  0
 36 81  1  0
 36 82  1  0
 36 83  1  0
M  END
>  <i_m_ct_stereo_status>  (6) 
1

>  <s_m_source_file>  (6) 
/var/tmp/pbs.5076255.sched01/tmp3_il56_a/09f63jmog.sdf

>  <i_m_source_file_index>  (6) 
2

>  <i_lp_mmshare_version>  (6) 
48012

>  <i_f3d_flags>  (6) 
0

>  <s_epik_input>  (6) 
W0NIM11PW0NASF0oW0NAQEhdKFtDSDNdKVtDSDJdMSlbQ0BIXShbQ0BdKFtDSDNdKShbQ0gyXVxbQ0hdMilbQ0gyXVtDSDJdMylDKFtDQEBdNChPNSlbQ0hdKFtDSDNdKVtDSDNdKT1DKFtDSDNdKVtDQEhdKGM2W2NIXVtjSF1vW2NIXTYpW0NIMl1bQ0BASF01W0NASF0zW0NASF0oQz0yXFtDQF0xNDcpW0NAQEhdKFtDSDJdTzcpW0NIM10=

>  <s_epik_cmdline>  (6) 
J2VwaWtfcHl0aG9uJywgJy1waHQnLCAnMi4wJywgJy1waCcsICc3LjAnLCAnLXRuJywgJzgnLCAnLW1hJywgJzIwMCcsICctaW1hZScsICc8aW5maWxlLm1hZT4nLCAnLW9tYWUnLCAnPG91dGZpbGUubWFlPic=

>  <r_lp_tautomer_probability>  (6) 
1

>  <r_epik_Ionization_Penalty>  (6) 
2.26003e-11

>  <r_epik_Ionization_Penalty_Charging>  (6) 
0

>  <r_epik_Ionization_Penalty_Neutral>  (6) 
2.26003e-11

>  <r_epik_State_Penalty>  (6) 
-0

>  <r_epik_Charging_Adjusted_Penalty>  (6) 
0

>  <i_epik_Tot_Q>  (6) 
0

>  <i_epik_Tot_abs_Q>  (6) 
0

>  <s_lp_Force_Field>  (6) 
OPLS3e

>  <r_lp_Energy>  (6) 
153.201

>  <b_lp_Chiralities_Consistent>  (6) 
1

>  <s_lp_Variant>  (6) 
0:0-2

>  <s_i_glide_gridfile>  (6) 
pfpi4k_grid

>  <i_i_glide_lignum>  (6) 
2

>  <i_i_glide_rotatable_bonds>  (6) 
3

>  <r_i_docking_score>  (6) 
-1.6597

>  <r_i_glide_ligand_efficiency>  (6) 
-0.0448569

>  <r_i_glide_ligand_efficiency_sa>  (6) 
-0.149473

>  <r_i_glide_ligand_efficiency_ln>  (6) 
-0.359951

>  <r_i_glide_gscore>  (6) 
-1.6597

>  <r_i_glide_lipo>  (6) 
-0.355164

>  <r_i_glide_hbond>  (6) 
0

>  <r_i_glide_metal>  (6) 
-0

>  <r_i_glide_rewards>  (6) 
0

>  <r_i_glide_evdw>  (6) 
-24.941

>  <r_i_glide_ecoul>  (6) 
-0.914558

>  <r_i_glide_erotb>  (6) 
0.0796923

>  <r_i_glide_esite>  (6) 
0

>  <r_i_glide_emodel>  (6) 
-27.5257

>  <r_i_glide_energy>  (6) 
-25.8555

>  <r_i_glide_einternal>  (6) 
0.653452

>  <r_i_glide_intrahb_reward>  (6) 
-0

>  <i_i_glide_confnum>  (6) 
1

>  <i_i_glide_posenum>  (6) 
15

>  <r_i_glide_eff_state_penalty>  (6) 
0

>  <ligand_id>  (6) 
0

>  <original_smiles>  (6) 
COC1C(C)CC23OCC(C)C4C2=CCC2(C)CCC4C4CC(c5ccoc5)C(C)=C(C12)C3(C(C)C)O4

>  <smiles>  (6) 
[H]C1=C2C3([H])C([H])(C([H])([H])[H])C([H])([H])OC24C([H])([H])C([H])(C([H])([H])[H])C([H])(OC([H])([H])[H])C2([H])C5=C(C([H])([H])[H])C([H])(c6c([H])oc([H])c6[H])C([H])([H])C([H])(OC54C([H])(C([H])([H])[H])C([H])([H])[H])C3([H])C([H])([H])C([H])([H])C2(C([H])([H])[H])C1([H])[H]

$$$$
1:0:0
     RDKit          3D

 35 38  0  0  1  0  0  0  0  0999 V2000
    3.4616    0.0745    0.9981 C   0  0  0  0  0  0  0  0  0  0  0  0
    4.6023   -0.2474    0.2140 O   0  0  0  0  0  0  0  0  0  0  0  0
    4.7271   -1.5819   -0.0629 C   0  0  0  0  0  0  0  0  0  0  0  0
    4.1668   -2.1423   -1.1681 C   0  0  0  0  0  0  0  0  0  0  0  0
    3.4092   -1.4337   -2.2170 C   0  0  1  0  0  0  0  0  0  0  0  0
    4.1645   -1.0566   -3.3852 O   0  0  0  0  0  0  0  0  0  0  0  0
    3.2270   -2.1328   -3.5408 C   0  0  1  0  0  0  0  0  0  0  0  0
    3.8713   -3.4832   -3.7914 C   0  0  0  0  0  0  0  0  0  0  0  0
    4.8426   -3.8022   -2.7910 O   0  0  0  0  0  0  0  0  0  0  0  0
    4.3415   -3.6374   -1.4685 C   0  0  1  0  0  0  0  0  0  0  0  0
    5.2142   -4.4101   -0.4418 C   0  0  1  0  0  0  0  0  0  0  0  0
    6.2643   -3.4876    0.1524 C   0  0  0  0  0  0  0  0  0  0  0  0
    7.4802   -3.6762    0.0550 O   0  0  0  0  0  0  0  0  0  0  0  0
    5.5975   -2.3478    0.9277 C   0  0  1  0  0  0  0  0  0  0  0  0
    6.5682   -1.4837    1.4788 O   0  0  0  0  0  0  0  0  0  0  0  0
    4.7318   -3.0032    2.0382 C   0  0  0  0  0  0  0  0  0  0  0  0
    3.7908   -3.9180    1.4792 O   0  0  0  0  0  0  0  0  0  0  0  0
    4.4205   -4.9748    0.7632 C   0  0  1  0  0  0  0  0  0  0  0  0
    3.3734   -6.0202    0.3799 C   0  0  0  0  0  0  0  0  0  0  0  0
    3.3571    1.1551    1.0903 H   0  0  0  0  0  0  0  0  0  0  0  0
    3.5566   -0.3033    2.0122 H   0  0  0  0  0  0  0  0  0  0  0  0
    2.5555   -0.3328    0.5534 H   0  0  0  0  0  0  0  0  0  0  0  0
    2.6688   -0.7126   -1.8871 H   0  0  0  0  0  0  0  0  0  0  0  0
    2.3519   -1.8885   -4.1330 H   0  0  0  0  0  0  0  0  0  0  0  0
    3.0815   -4.2402   -3.8223 H   0  0  0  0  0  0  0  0  0  0  0  0
    4.3603   -3.4860   -4.7594 H   0  0  0  0  0  0  0  0  0  0  0  0
    3.3390   -4.0574   -1.4541 H   0  0  0  0  0  0  0  0  0  0  0  0
    5.7137   -5.2367   -0.9384 H   0  0  0  0  0  0  0  0  0  0  0  0
    6.1260   -0.8122    1.9767 H   0  0  0  0  0  0  0  0  0  0  0  0
    5.3602   -3.5179    2.7678 H   0  0  0  0  0  0  0  0  0  0  0  0
    4.1484   -2.2675    2.5829 H   0  0  0  0  0  0  0  0  0  0  0  0
    5.1237   -5.4649    1.4400 H   0  0  0  0  0  0  0  0  0  0  0  0
    3.8257   -6.7678   -0.2699 H   0  0  0  0  0  0  0  0  0  0  0  0
    2.5237   -5.5876   -0.1438 H   0  0  0  0  0  0  0  0  0  0  0  0
    2.9841   -6.5267    1.2603 H   0  0  0  0  0  0  0  0  0  0  0  0
  1  2  1  0
  1 20  1  0
  1 21  1  0
  1 22  1  0
  2  3  1  0
  3 14  1  0
  3  4  2  0
  4 10  1  0
  4  5  1  0
  5  7  1  0
  5  6  1  0
  5 23  1  1
  6  7  1  0
  7  8  1  0
  7 24  1  6
  8  9  1  0
  8 25  1  0
  8 26  1  0
  9 10  1  0
 10 11  1  0
 10 27  1  6
 11 18  1  0
 11 12  1  0
 11 28  1  6
 12 13  2  0
 12 14  1  0
 14 15  1  1
 14 16  1  0
 15 29  1  0
 16 17  1  0
 16 30  1  0
 16 31  1  0
 17 18  1  0
 18 19  1  0
 18 32  1  1
 19 33  1  0
 19 34  1  0
 19 35  1  0
M  END
>  <i_m_ct_stereo_status>  (7) 
1

>  <s_m_source_file>  (7) 
/var/tmp/pbs.5076255.sched01/tmp3_il56_a/09f63jmog.sdf

>  <i_m_source_file_index>  (7) 
3

>  <i_lp_mmshare_version>  (7) 
48012

>  <i_f3d_flags>  (7) 
0

>  <s_epik_input>  (7) 
W0NIM11PQyhbQ0BdMTJbT0hdKT1DM1tDQEBIXTRbQ0BASF0oTzQpW0NIMl1PW0NASF0zW0NIXShDMT1PKVtDQEhdKFtDSDNdKU9bQ0gyXTI=

>  <s_epik_cmdline>  (7) 
J2VwaWtfcHl0aG9uJywgJy1waHQnLCAnMi4wJywgJy1waCcsICc3LjAnLCAnLXRuJywgJzgnLCAnLW1hJywgJzIwMCcsICctaW1hZScsICc8aW5maWxlLm1hZT4nLCAnLW9tYWUnLCAnPG91dGZpbGUubWFlPic=

>  <r_lp_tautomer_probability>  (7) 
1

>  <r_epik_Ionization_Penalty>  (7) 
4.69748e-05

>  <r_epik_Ionization_Penalty_Charging>  (7) 
0

>  <r_epik_Ionization_Penalty_Neutral>  (7) 
4.69748e-05

>  <r_epik_State_Penalty>  (7) 
-0

>  <r_epik_Charging_Adjusted_Penalty>  (7) 
0

>  <i_epik_Tot_Q>  (7) 
0

>  <i_epik_Tot_abs_Q>  (7) 
0

>  <s_lp_Force_Field>  (7) 
OPLS3e

>  <r_lp_Energy>  (7) 
36.9972

>  <b_lp_Chiralities_Consistent>  (7) 
1

>  <s_lp_Variant>  (7) 
1:0-1

>  <s_i_glide_gridfile>  (7) 
pfpi4k_grid

>  <i_i_glide_lignum>  (7) 
3

>  <i_i_glide_rotatable_bonds>  (7) 
2

>  <r_i_docking_score>  (7) 
-3.57425

>  <r_i_glide_ligand_efficiency>  (7) 
-0.188118

>  <r_i_glide_ligand_efficiency_sa>  (7) 
-0.501975

>  <r_i_glide_ligand_efficiency_ln>  (7) 
-0.906148

>  <r_i_glide_gscore>  (7) 
-3.57425

>  <r_i_glide_lipo>  (7) 
-0.508904

>  <r_i_glide_hbond>  (7) 
0

>  <r_i_glide_metal>  (7) 
-0

>  <r_i_glide_rewards>  (7) 
-1.69649

>  <r_i_glide_evdw>  (7) 
-21.7364

>  <r_i_glide_ecoul>  (7) 
-1.88021

>  <r_i_glide_erotb>  (7) 
0

>  <r_i_glide_esite>  (7) 
0

>  <r_i_glide_emodel>  (7) 
-27.75

>  <r_i_glide_energy>  (7) 
-23.6166

>  <r_i_glide_einternal>  (7) 
1.99135

>  <r_i_glide_intrahb_reward>  (7) 
-0

>  <i_i_glide_confnum>  (7) 
2

>  <i_i_glide_posenum>  (7) 
5

>  <r_i_glide_eff_state_penalty>  (7) 
0

>  <ligand_id>  (7) 
1

>  <original_smiles>  (7) 
COC1=C2C3OC3COC2C2C(=O)C1(O)COC2C

>  <smiles>  (7) 
[H]OC12C(=O)C([H])(C3([H])OC([H])([H])C4([H])OC4([H])C3=C1OC([H])([H])[H])C([H])(C([H])([H])[H])OC2([H])[H]

$$$$
1:0:1
     RDKit          3D

 35 38  0  0  1  0  0  0  0  0999 V2000
    1.1257   -4.3973   -1.3803 C   0  0  0  0  0  0  0  0  0  0  0  0
    2.0975   -4.6113   -0.3775 O   0  0  0  0  0  0  0  0  0  0  0  0
    3.0822   -3.6487   -0.2413 C   0  0  0  0  0  0  0  0  0  0  0  0
    3.6531   -2.9592   -1.2573 C   0  0  0  0  0  0  0  0  0  0  0  0
    3.3815   -3.0857   -2.7064 C   0  0  1  0  0  0  0  0  0  0  0  0
    2.3791   -2.2210   -3.2287 O   0  0  0  0  0  0  0  0  0  0  0  0
    3.7073   -1.9236   -3.6160 C   0  0  1  0  0  0  0  0  0  0  0  0
    4.3153   -0.6731   -3.0149 C   0  0  0  0  0  0  0  0  0  0  0  0
    4.2509   -0.6646   -1.5918 O   0  0  0  0  0  0  0  0  0  0  0  0
    4.7067   -1.8630   -0.9845 C   0  0  1  0  0  0  0  0  0  0  0  0
    5.0318   -1.5994    0.5147 C   0  0  1  0  0  0  0  0  0  0  0  0
    3.8283   -1.9344    1.3818 C   0  0  0  0  0  0  0  0  0  0  0  0
    3.2756   -1.1207    2.1318 O   0  0  0  0  0  0  0  0  0  0  0  0
    3.4388   -3.4119    1.2262 C   0  0  1  0  0  0  0  0  0  0  0  0
    2.3643   -3.7336    2.0947 O   0  0  0  0  0  0  0  0  0  0  0  0
    4.6754   -4.2499    1.6297 C   0  0  0  0  0  0  0  0  0  0  0  0
    5.8419   -3.8780    0.8894 O   0  0  0  0  0  0  0  0  0  0  0  0
    6.1830   -2.4960    1.0383 C   0  0  1  0  0  0  0  0  0  0  0  0
    7.5331   -2.2410    0.3486 C   0  0  0  0  0  0  0  0  0  0  0  0
    0.4084   -5.2184   -1.2910 H   0  0  0  0  0  0  0  0  0  0  0  0
    1.5037   -4.3297   -2.3890 H   0  0  0  0  0  0  0  0  0  0  0  0
    0.6083   -3.4656   -1.1568 H   0  0  0  0  0  0  0  0  0  0  0  0
    3.4059   -4.0994   -3.1175 H   0  0  0  0  0  0  0  0  0  0  0  0
    3.9129   -2.1053   -4.6624 H   0  0  0  0  0  0  0  0  0  0  0  0
    5.3790   -0.6972   -3.2244 H   0  0  0  0  0  0  0  0  0  0  0  0
    3.8892    0.2248   -3.4733 H   0  0  0  0  0  0  0  0  0  0  0  0
    5.6194   -2.1716   -1.4909 H   0  0  0  0  0  0  0  0  0  0  0  0
    5.2897   -0.5508    0.6644 H   0  0  0  0  0  0  0  0  0  0  0  0
    2.2400   -4.6648    2.0546 H   0  0  0  0  0  0  0  0  0  0  0  0
    4.8774   -4.1560    2.6995 H   0  0  0  0  0  0  0  0  0  0  0  0
    4.4704   -5.2994    1.4354 H   0  0  0  0  0  0  0  0  0  0  0  0
    6.3205   -2.2914    2.1041 H   0  0  0  0  0  0  0  0  0  0  0  0
    7.7711   -1.1758    0.3343 H   0  0  0  0  0  0  0  0  0  0  0  0
    7.5515   -2.6110   -0.6760 H   0  0  0  0  0  0  0  0  0  0  0  0
    8.3401   -2.7517    0.8732 H   0  0  0  0  0  0  0  0  0  0  0  0
  1  2  1  0
  1 20  1  0
  1 21  1  0
  1 22  1  0
  2  3  1  0
  3 14  1  0
  3  4  2  0
  4 10  1  0
  4  5  1  0
  5  7  1  0
  5  6  1  0
  5 23  1  6
  6  7  1  0
  7  8  1  0
  7 24  1  6
  8  9  1  0
  8 25  1  0
  8 26  1  0
  9 10  1  0
 10 11  1  0
 10 27  1  6
 11 18  1  0
 11 12  1  0
 11 28  1  6
 12 13  2  0
 12 14  1  0
 14 15  1  1
 14 16  1  0
 15 29  1  0
 16 17  1  0
 16 30  1  0
 16 31  1  0
 17 18  1  0
 18 19  1  0
 18 32  1  1
 19 33  1  0
 19 34  1  0
 19 35  1  0
M  END
>  <i_m_ct_stereo_status>  (8) 
1

>  <s_m_source_file>  (8) 
/var/tmp/pbs.5076255.sched01/tmp3_il56_a/09f63jmog.sdf

>  <i_m_source_file_index>  (8) 
3

>  <i_lp_mmshare_version>  (8) 
48012

>  <i_f3d_flags>  (8) 
0

>  <s_epik_input>  (8) 
W0NIM11PQyhbQ0BdMTJbT0hdKT1DM1tDQEBIXTRbQ0BASF0oTzQpW0NIMl1PW0NASF0zW0NIXShDMT1PKVtDQEhdKFtDSDNdKU9bQ0gyXTI=

>  <s_epik_cmdline>  (8) 
J2VwaWtfcHl0aG9uJywgJy1waHQnLCAnMi4wJywgJy1waCcsICc3LjAnLCAnLXRuJywgJzgnLCAnLW1hJywgJzIwMCcsICctaW1hZScsICc8aW5maWxlLm1hZT4nLCAnLW9tYWUnLCAnPG91dGZpbGUubWFlPic=

>  <r_lp_tautomer_probability>  (8) 
1

>  <r_epik_Ionization_Penalty>  (8) 
4.69748e-05

>  <r_epik_Ionization_Penalty_Charging>  (8) 
0

>  <r_epik_Ionization_Penalty_Neutral>  (8) 
4.69748e-05

>  <r_epik_State_Penalty>  (8) 
-0

>  <r_epik_Charging_Adjusted_Penalty>  (8) 
0

>  <i_epik_Tot_Q>  (8) 
0

>  <i_epik_Tot_abs_Q>  (8) 
0

>  <s_lp_Force_Field>  (8) 
OPLS3e

>  <r_lp_Energy>  (8) 
36.9972

>  <b_lp_Chiralities_Consistent>  (8) 
1

>  <s_lp_Variant>  (8) 
1:0-1

>  <s_i_glide_gridfile>  (8) 
pfpi4k_grid

>  <i_i_glide_lignum>  (8) 
3

>  <i_i_glide_rotatable_bonds>  (8) 
2

>  <r_i_docking_score>  (8) 
-2.45624

>  <r_i_glide_ligand_efficiency>  (8) 
-0.129276

>  <r_i_glide_ligand_efficiency_sa>  (8) 
-0.344959

>  <r_i_glide_ligand_efficiency_ln>  (8) 
-0.622708

>  <r_i_glide_gscore>  (8) 
-2.45624

>  <r_i_glide_lipo>  (8) 
-0.644641

>  <r_i_glide_hbond>  (8) 
-0.00235741

>  <r_i_glide_metal>  (8) 
-0

>  <r_i_glide_rewards>  (8) 
-1.58003

>  <r_i_glide_evdw>  (8) 
-13.9048

>  <r_i_glide_ecoul>  (8) 
3.16553

>  <r_i_glide_erotb>  (8) 
0

>  <r_i_glide_esite>  (8) 
-0.00879957

>  <r_i_glide_emodel>  (8) 
-11.813

>  <r_i_glide_energy>  (8) 
-10.7393

>  <r_i_glide_einternal>  (8) 
3.82242

>  <r_i_glide_intrahb_reward>  (8) 
-0

>  <i_i_glide_confnum>  (8) 
2

>  <i_i_glide_posenum>  (8) 
7

>  <r_i_glide_eff_state_penalty>  (8) 
0

>  <ligand_id>  (8) 
1

>  <original_smiles>  (8) 
COC1=C2C3OC3COC2C2C(=O)C1(O)COC2C

>  <smiles>  (8) 
[H]OC12C(=O)C([H])(C3([H])OC([H])([H])C4([H])OC4([H])C3=C1OC([H])([H])[H])C([H])(C([H])([H])[H])OC2([H])[H]

$$$$
1:0:2
     RDKit          3D

 35 38  0  0  1  0  0  0  0  0999 V2000
    2.6193   -5.9104    0.2848 C   0  0  0  0  0  0  0  0  0  0  0  0
    2.1754   -4.6131   -0.0918 O   0  0  0  0  0  0  0  0  0  0  0  0
    3.1061   -3.6204    0.1065 C   0  0  0  0  0  0  0  0  0  0  0  0
    3.6214   -2.9277   -0.9328 C   0  0  0  0  0  0  0  0  0  0  0  0
    3.2804   -3.1323   -2.3659 C   0  0  1  0  0  0  0  0  0  0  0  0
    2.2994   -2.2558   -2.9151 O   0  0  0  0  0  0  0  0  0  0  0  0
    3.6424   -2.0377   -3.3311 C   0  0  1  0  0  0  0  0  0  0  0  0
    4.2777   -0.7604   -2.8354 C   0  0  0  0  0  0  0  0  0  0  0  0
    4.2274   -0.6514   -1.4064 O   0  0  0  0  0  0  0  0  0  0  0  0
    4.6588   -1.8223   -0.7339 C   0  0  1  0  0  0  0  0  0  0  0  0
    4.9890   -1.4914    0.7488 C   0  0  1  0  0  0  0  0  0  0  0  0
    3.7946   -1.8074    1.6408 C   0  0  0  0  0  0  0  0  0  0  0  0
    3.2320   -0.9608    2.3422 O   0  0  0  0  0  0  0  0  0  0  0  0
    3.4444   -3.2990    1.5791 C   0  0  1  0  0  0  0  0  0  0  0  0
    2.3567   -3.5786    2.4442 O   0  0  0  0  0  0  0  0  0  0  0  0
    4.7124   -4.0668    2.0511 C   0  0  0  0  0  0  0  0  0  0  0  0
    5.8471   -3.7190    1.2639 O   0  0  0  0  0  0  0  0  0  0  0  0
    6.1533   -2.3307    1.3179 C   0  0  1  0  0  0  0  0  0  0  0  0
    7.4947   -2.1208    0.5968 C   0  0  0  0  0  0  0  0  0  0  0  0
    1.8595   -6.6399    0.0585 H   0  0  0  0  0  0  0  0  0  0  0  0
    2.7784   -6.0004    1.3560 H   0  0  0  0  0  0  0  0  0  0  0  0
    3.5558   -6.1436   -0.2338 H   0  0  0  0  0  0  0  0  0  0  0  0
    3.2794   -4.1604   -2.7295 H   0  0  0  0  0  0  0  0  0  0  0  0
    3.8464   -2.3172   -4.3671 H   0  0  0  0  0  0  0  0  0  0  0  0
    5.3246   -0.7848   -3.1203 H   0  0  0  0  0  0  0  0  0  0  0  0
    3.8090    0.1013   -3.3209 H   0  0  0  0  0  0  0  0  0  0  0  0
    5.5621   -2.1705   -1.2248 H   0  0  0  0  0  0  0  0  0  0  0  0
    5.2320   -0.4300    0.8411 H   0  0  0  0  0  0  0  0  0  0  0  0
    2.2316   -4.5156    2.4952 H   0  0  0  0  0  0  0  0  0  0  0  0
    4.9198   -3.8561    3.1090 H   0  0  0  0  0  0  0  0  0  0  0  0
    4.6122   -5.1431    1.9375 H   0  0  0  0  0  0  0  0  0  0  0  0
    6.2854   -2.0653    2.3718 H   0  0  0  0  0  0  0  0  0  0  0  0
    7.7544   -1.0599    0.5460 H   0  0  0  0  0  0  0  0  0  0  0  0
    7.5002   -2.5312   -0.4109 H   0  0  0  0  0  0  0  0  0  0  0  0
    8.2893   -2.6540    1.1128 H   0  0  0  0  0  0  0  0  0  0  0  0
  1  2  1  0
  1 20  1  0
  1 21  1  0
  1 22  1  0
  2  3  1  0
  3 14  1  0
  3  4  2  0
  4 10  1  0
  4  5  1  0
  5  7  1  0
  5  6  1  0
  5 23  1  6
  6  7  1  0
  7  8  1  0
  7 24  1  6
  8  9  1  0
  8 25  1  0
  8 26  1  0
  9 10  1  0
 10 11  1  0
 10 27  1  6
 11 18  1  0
 11 12  1  0
 11 28  1  6
 12 13  2  0
 12 14  1  0
 14 15  1  1
 14 16  1  0
 15 29  1  0
 16 17  1  0
 16 30  1  0
 16 31  1  0
 17 18  1  0
 18 19  1  0
 18 32  1  1
 19 33  1  0
 19 34  1  0
 19 35  1  0
M  END
>  <i_m_ct_stereo_status>  (9) 
1

>  <s_m_source_file>  (9) 
/var/tmp/pbs.5076255.sched01/tmp3_il56_a/09f63jmog.sdf

>  <i_m_source_file_index>  (9) 
3

>  <i_lp_mmshare_version>  (9) 
48012

>  <i_f3d_flags>  (9) 
0

>  <s_epik_input>  (9) 
W0NIM11PQyhbQ0BdMTJbT0hdKT1DM1tDQEBIXTRbQ0BASF0oTzQpW0NIMl1PW0NASF0zW0NIXShDMT1PKVtDQEhdKFtDSDNdKU9bQ0gyXTI=

>  <s_epik_cmdline>  (9) 
J2VwaWtfcHl0aG9uJywgJy1waHQnLCAnMi4wJywgJy1waCcsICc3LjAnLCAnLXRuJywgJzgnLCAnLW1hJywgJzIwMCcsICctaW1hZScsICc8aW5maWxlLm1hZT4nLCAnLW9tYWUnLCAnPG91dGZpbGUubWFlPic=

>  <r_lp_tautomer_probability>  (9) 
1

>  <r_epik_Ionization_Penalty>  (9) 
4.69748e-05

>  <r_epik_Ionization_Penalty_Charging>  (9) 
0

>  <r_epik_Ionization_Penalty_Neutral>  (9) 
4.69748e-05

>  <r_epik_State_Penalty>  (9) 
-0

>  <r_epik_Charging_Adjusted_Penalty>  (9) 
0

>  <i_epik_Tot_Q>  (9) 
0

>  <i_epik_Tot_abs_Q>  (9) 
0

>  <s_lp_Force_Field>  (9) 
OPLS3e

>  <r_lp_Energy>  (9) 
36.9972

>  <b_lp_Chiralities_Consistent>  (9) 
1

>  <s_lp_Variant>  (9) 
1:0-1

>  <s_i_glide_gridfile>  (9) 
pfpi4k_grid

>  <i_i_glide_lignum>  (9) 
3

>  <i_i_glide_rotatable_bonds>  (9) 
2

>  <r_i_docking_score>  (9) 
-2.34416

>  <r_i_glide_ligand_efficiency>  (9) 
-0.123377

>  <r_i_glide_ligand_efficiency_sa>  (9) 
-0.329218

>  <r_i_glide_ligand_efficiency_ln>  (9) 
-0.594294

>  <r_i_glide_gscore>  (9) 
-2.34416

>  <r_i_glide_lipo>  (9) 
-0.493019

>  <r_i_glide_hbond>  (9) 
-0.00549971

>  <r_i_glide_metal>  (9) 
-0

>  <r_i_glide_rewards>  (9) 
-1.58003

>  <r_i_glide_evdw>  (9) 
-13.9024

>  <r_i_glide_ecoul>  (9) 
2.91803

>  <r_i_glide_erotb>  (9) 
0

>  <r_i_glide_esite>  (9) 
-0.00819216

>  <r_i_glide_emodel>  (9) 
-12.5923

>  <r_i_glide_energy>  (9) 
-10.9844

>  <r_i_glide_einternal>  (9) 
3.13186

>  <r_i_glide_intrahb_reward>  (9) 
-0

>  <i_i_glide_confnum>  (9) 
2

>  <i_i_glide_posenum>  (9) 
37

>  <r_i_glide_eff_state_penalty>  (9) 
0

>  <ligand_id>  (9) 
1

>  <original_smiles>  (9) 
COC1=C2C3OC3COC2C2C(=O)C1(O)COC2C

>  <smiles>  (9) 
[H]OC12C(=O)C([H])(C3([H])OC([H])([H])C4([H])OC4([H])C3=C1OC([H])([H])[H])C([H])(C([H])([H])[H])OC2([H])[H]

$$$$
2:0:0
     RDKit          3D

 49 52  0  0  1  0  0  0  0  0999 V2000
    3.9516   -5.2792    0.2936 C   0  0  0  0  0  0  0  0  0  0  0  0
    5.3023   -4.8654   -0.3405 C   0  0  2  0  0  0  0  0  0  0  0  0
    6.4685   -4.6726    0.6383 C   0  0  0  0  0  0  0  0  0  0  0  0
    6.8027   -3.2054    0.9998 C   0  0  1  0  0  0  0  0  0  0  0  0
    7.9910   -2.6380    0.1840 C   0  0  0  0  0  0  0  0  0  0  0  0
    5.5521   -2.2880    0.9340 C   0  0  2  0  0  0  0  0  0  0  0  0
    4.5149   -2.6724    2.0323 C   0  0  1  0  0  0  0  0  0  0  0  0
    4.9640   -2.3597    3.4704 C   0  0  0  0  0  0  0  0  0  0  0  0
    3.1222   -2.0382    1.7548 C   0  0  1  0  0  0  0  0  0  0  0  0
    3.0369   -0.5541    2.1406 C   0  0  0  0  0  0  0  0  0  0  0  0
    2.7707   -2.2685    0.3922 O   0  0  0  0  0  0  0  0  0  0  0  0
    3.5791   -1.6342   -0.5223 C   0  0  2  0  0  0  0  0  0  0  0  0
    3.0285   -1.6691   -1.8162 O   0  0  0  0  0  0  0  0  0  0  0  0
    3.9720   -1.3672   -2.8376 C   0  0  2  0  0  0  0  0  0  0  0  0
    3.3338   -0.4443   -3.8914 C   0  0  0  0  0  0  0  0  0  0  0  0
    4.3547   -2.6887   -3.4909 C   0  0  0  0  0  0  0  0  0  0  0  0
    4.3140   -3.8422   -2.5029 C   0  0  0  0  0  0  0  0  0  0  0  0
    5.1771   -3.6306   -1.2734 C   0  0  1  0  0  0  0  0  0  0  0  0
    5.0078   -2.2646   -0.5191 C   0  0  2  0  0  0  0  0  0  0  0  0
    5.8273   -1.3876   -1.2669 O   0  0  0  0  0  0  0  0  0  0  0  0
    5.0534   -0.6145   -2.3236 O   0  0  0  0  0  0  0  0  0  0  0  0
    3.3140   -4.4543    0.5821 H   0  0  0  0  0  0  0  0  0  0  0  0
    4.0758   -5.9104    1.1943 H   0  0  0  0  0  0  0  0  0  0  0  0
    3.4026   -5.9440   -0.3032 H   0  0  0  0  0  0  0  0  0  0  0  0
    5.5661   -5.7319   -0.9473 H   0  0  0  0  0  0  0  0  0  0  0  0
    6.2916   -5.2249    1.5719 H   0  0  0  0  0  0  0  0  0  0  0  0
    7.3686   -5.1325    0.2312 H   0  0  0  0  0  0  0  0  0  0  0  0
    7.1098   -3.2164    2.0322 H   0  0  0  0  0  0  0  0  0  0  0  0
    7.8607   -2.7130   -0.8928 H   0  0  0  0  0  0  0  0  0  0  0  0
    8.9257   -3.1211    0.4362 H   0  0  0  0  0  0  0  0  0  0  0  0
    8.1807   -1.5961    0.4244 H   0  0  0  0  0  0  0  0  0  0  0  0
    5.8577   -1.2731    1.1682 H   0  0  0  0  0  0  0  0  0  0  0  0
    4.3452   -3.7180    2.0134 H   0  0  0  0  0  0  0  0  0  0  0  0
    5.3095   -1.3367    3.6292 H   0  0  0  0  0  0  0  0  0  0  0  0
    5.7737   -2.9890    3.8264 H   0  0  0  0  0  0  0  0  0  0  0  0
    4.1838   -2.4978    4.2070 H   0  0  0  0  0  0  0  0  0  0  0  0
    2.3819   -2.5665    2.3538 H   0  0  0  0  0  0  0  0  0  0  0  0
    3.0186   -0.3880    3.2144 H   0  0  0  0  0  0  0  0  0  0  0  0
    2.1184   -0.0959    1.7803 H   0  0  0  0  0  0  0  0  0  0  0  0
    3.8504    0.0287    1.7093 H   0  0  0  0  0  0  0  0  0  0  0  0
    3.6135   -0.5780   -0.2655 H   0  0  0  0  0  0  0  0  0  0  0  0
    3.0696    0.5194   -3.4726 H   0  0  0  0  0  0  0  0  0  0  0  0
    2.4295   -0.8744   -4.3196 H   0  0  0  0  0  0  0  0  0  0  0  0
    4.0219   -0.2452   -4.7154 H   0  0  0  0  0  0  0  0  0  0  0  0
    3.6610   -2.9457   -4.2919 H   0  0  0  0  0  0  0  0  0  0  0  0
    5.3312   -2.6195   -3.9886 H   0  0  0  0  0  0  0  0  0  0  0  0
    3.2820   -3.9811   -2.1730 H   0  0  0  0  0  0  0  0  0  0  0  0
    4.6199   -4.7470   -3.0160 H   0  0  0  0  0  0  0  0  0  0  0  0
    6.1864   -3.5692   -1.6954 H   0  0  0  0  0  0  0  0  0  0  0  0
  1  2  1  0
  1 22  1  0
  1 23  1  0
  1 24  1  0
  2 18  1  0
  2  3  1  0
  2 25  1  6
  3  4  1  0
  3 26  1  0
  3 27  1  0
  4  5  1  0
  4  6  1  0
  4 28  1  1
  5 29  1  0
  5 30  1  0
  5 31  1  0
  6 19  1  0
  6  7  1  0
  6 32  1  1
  7  8  1  0
  7  9  1  0
  7 33  1  1
  8 34  1  0
  8 35  1  0
  8 36  1  0
  9 10  1  0
  9 11  1  0
  9 37  1  1
 10 38  1  0
 10 39  1  0
 10 40  1  0
 11 12  1  0
 12 19  1  0
 12 13  1  0
 12 41  1  1
 13 14  1  0
 14 21  1  0
 14 15  1  6
 14 16  1  0
 15 42  1  0
 15 43  1  0
 15 44  1  0
 16 17  1  0
 16 45  1  0
 16 46  1  0
 17 18  1  0
 17 47  1  0
 17 48  1  0
 18 19  1  0
 18 49  1  6
 19 20  1  6
 20 21  1  0
M  END
>  <i_m_ct_stereo_status>  (10) 
1

>  <s_m_source_file>  (10) 
/var/tmp/pbs.5076255.sched01/tmp3_il56_a/09f63jmog.sdf

>  <i_m_source_file_index>  (10) 
4

>  <i_lp_mmshare_version>  (10) 
48012

>  <i_f3d_flags>  (10) 
0

>  <s_epik_input>  (10) 
W0NAQF0xMjNbQ0BASF00W0NASF0oW0NIM10pW0NIMl1bQ0BASF0oW0NIM10pW0NASF0yW0NIMl1bQ0gyXVtDQF0oW0NIM10pKE9PMylPW0NASF0xT1tDQEhdKFtDSDNdKVtDQEBIXTRbQ0gzXQ==

>  <s_epik_cmdline>  (10) 
J2VwaWtfcHl0aG9uJywgJy1waHQnLCAnMi4wJywgJy1waCcsICc3LjAnLCAnLXRuJywgJzgnLCAnLW1hJywgJzIwMCcsICctaW1hZScsICc8aW5maWxlLm1hZT4nLCAnLW9tYWUnLCAnPG91dGZpbGUubWFlPic=

>  <r_lp_tautomer_probability>  (10) 
1

>  <r_epik_Ionization_Penalty>  (10) 
3.19687e-14

>  <r_epik_Ionization_Penalty_Charging>  (10) 
0

>  <r_epik_Ionization_Penalty_Neutral>  (10) 
3.19687e-14

>  <r_epik_State_Penalty>  (10) 
-0

>  <r_epik_Charging_Adjusted_Penalty>  (10) 
0

>  <i_epik_Tot_Q>  (10) 
0

>  <i_epik_Tot_abs_Q>  (10) 
0

>  <s_epik_Chemistry_Notes>  (10) 
This compound contains an acetal/aminal-like group ( X-CH(R)-Y where X, Y are N, S, or O) that may be acid/base labile, releasing an aldehyde.

>  <s_lp_Force_Field>  (10) 
OPLS3e

>  <r_lp_Energy>  (10) 
57.182

>  <b_lp_Chiralities_Consistent>  (10) 
1

>  <s_lp_Variant>  (10) 
2:0-1

>  <s_i_glide_gridfile>  (10) 
pfpi4k_grid

>  <i_i_glide_lignum>  (10) 
4

>  <i_i_glide_rotatable_bonds>  (10) 
0

>  <r_i_docking_score>  (10) 
-3.37854

>  <r_i_glide_ligand_efficiency>  (10) 
-0.160883

>  <r_i_glide_ligand_efficiency_sa>  (10) 
-0.443864

>  <r_i_glide_ligand_efficiency_ln>  (10) 
-0.835338

>  <r_i_glide_gscore>  (10) 
-3.37854

>  <r_i_glide_lipo>  (10) 
-0.989112

>  <r_i_glide_hbond>  (10) 
-0.0761571

>  <r_i_glide_metal>  (10) 
-0

>  <r_i_glide_rewards>  (10) 
-1.38817

>  <r_i_glide_evdw>  (10) 
-19.5704

>  <r_i_glide_ecoul>  (10) 
1.0838

>  <r_i_glide_erotb>  (10) 
0

>  <r_i_glide_esite>  (10) 
-0.109156

>  <r_i_glide_emodel>  (10) 
-23.082

>  <r_i_glide_energy>  (10) 
-18.4866

>  <r_i_glide_einternal>  (10) 
0

>  <r_i_glide_intrahb_reward>  (10) 
-0

>  <i_i_glide_confnum>  (10) 
3

>  <i_i_glide_posenum>  (10) 
31

>  <r_i_glide_eff_state_penalty>  (10) 
0

>  <ligand_id>  (10) 
2

>  <original_smiles>  (10) 
CC1CC(C)C2C(C)C(C)OC3OC4(C)CCC1C32OO4

>  <smiles>  (10) 
[H]C([H])([H])C1([H])OC2([H])OC3(C([H])([H])[H])OOC24C([H])(C([H])([H])C3([H])[H])C([H])(C([H])([H])[H])C([H])([H])C([H])(C([H])([H])[H])C4([H])C1([H])C([H])([H])[H]

$$$$
2:0:1
     RDKit          3D

 49 52  0  0  1  0  0  0  0  0999 V2000
    7.3644   -2.5316    0.0931 C   0  0  0  0  0  0  0  0  0  0  0  0
    6.4338   -3.3698    1.0147 C   0  0  2  0  0  0  0  0  0  0  0  0
    5.9975   -4.7592    0.4787 C   0  0  0  0  0  0  0  0  0  0  0  0
    4.5739   -4.8418   -0.1154 C   0  0  1  0  0  0  0  0  0  0  0  0
    3.5754   -5.4819    0.8618 C   0  0  0  0  0  0  0  0  0  0  0  0
    4.0788   -3.4619   -0.6195 C   0  0  2  0  0  0  0  0  0  0  0  0
    4.8716   -2.9682   -1.8908 C   0  0  1  0  0  0  0  0  0  0  0  0
    4.6346   -3.7936   -3.1551 C   0  0  0  0  0  0  0  0  0  0  0  0
    4.5609   -1.4557   -2.1488 C   0  0  1  0  0  0  0  0  0  0  0  0
    3.2547   -1.2208   -2.9417 C   0  0  0  0  0  0  0  0  0  0  0  0
    4.6308   -0.6920   -0.9441 O   0  0  0  0  0  0  0  0  0  0  0  0
    3.6799   -1.0478   -0.0023 C   0  0  2  0  0  0  0  0  0  0  0  0
    3.4688   -0.0906    0.9596 O   0  0  0  0  0  0  0  0  0  0  0  0
    3.2763   -0.5288    2.3065 C   0  0  2  0  0  0  0  0  0  0  0  0
    2.3575    0.4707    3.0162 C   0  0  0  0  0  0  0  0  0  0  0  0
    4.6511   -0.5235    2.9734 C   0  0  0  0  0  0  0  0  0  0  0  0
    5.7140   -1.1983    2.1170 C   0  0  0  0  0  0  0  0  0  0  0  0
    5.2451   -2.5377    1.5461 C   0  0  1  0  0  0  0  0  0  0  0  0
    4.0070   -2.4520    0.5624 C   0  0  2  0  0  0  0  0  0  0  0  0
    2.8171   -2.7250    1.2724 O   0  0  0  0  0  0  0  0  0  0  0  0
    2.6660   -1.8225    2.4759 O   0  0  0  0  0  0  0  0  0  0  0  0
    6.7893   -1.8405   -0.5306 H   0  0  0  0  0  0  0  0  0  0  0  0
    7.9303   -3.1538   -0.6089 H   0  0  0  0  0  0  0  0  0  0  0  0
    8.0838   -1.9751    0.6330 H   0  0  0  0  0  0  0  0  0  0  0  0
    7.0726   -3.6152    1.8707 H   0  0  0  0  0  0  0  0  0  0  0  0
    6.7173   -5.1312   -0.2477 H   0  0  0  0  0  0  0  0  0  0  0  0
    6.0590   -5.4767    1.2969 H   0  0  0  0  0  0  0  0  0  0  0  0
    4.6233   -5.5238   -0.9707 H   0  0  0  0  0  0  0  0  0  0  0  0
    3.5773   -4.9698    1.8246 H   0  0  0  0  0  0  0  0  0  0  0  0
    3.7952   -6.5226    1.0568 H   0  0  0  0  0  0  0  0  0  0  0  0
    2.5606   -5.4308    0.4777 H   0  0  0  0  0  0  0  0  0  0  0  0
    3.0384   -3.5972   -0.9792 H   0  0  0  0  0  0  0  0  0  0  0  0
    5.9065   -3.0809   -1.7446 H   0  0  0  0  0  0  0  0  0  0  0  0
    3.5699   -3.9192   -3.4018 H   0  0  0  0  0  0  0  0  0  0  0  0
    5.0478   -4.7698   -3.0731 H   0  0  0  0  0  0  0  0  0  0  0  0
    5.0948   -3.3331   -4.0046 H   0  0  0  0  0  0  0  0  0  0  0  0
    5.3423   -1.0433   -2.7678 H   0  0  0  0  0  0  0  0  0  0  0  0
    3.3480   -1.5519   -3.9607 H   0  0  0  0  0  0  0  0  0  0  0  0
    3.0019   -0.1757   -2.9686 H   0  0  0  0  0  0  0  0  0  0  0  0
    2.4318   -1.7572   -2.4737 H   0  0  0  0  0  0  0  0  0  0  0  0
    2.7196   -1.1060   -0.4847 H   0  0  0  0  0  0  0  0  0  0  0  0
    1.3594    0.4938    2.5753 H   0  0  0  0  0  0  0  0  0  0  0  0
    2.7671    1.4837    2.9606 H   0  0  0  0  0  0  0  0  0  0  0  0
    2.2477    0.2143    4.0760 H   0  0  0  0  0  0  0  0  0  0  0  0
    4.9719    0.5069    3.1450 H   0  0  0  0  0  0  0  0  0  0  0  0
    4.5861   -1.0080    3.9517 H   0  0  0  0  0  0  0  0  0  0  0  0
    6.0129   -0.5264    1.3104 H   0  0  0  0  0  0  0  0  0  0  0  0
    6.6038   -1.3299    2.7291 H   0  0  0  0  0  0  0  0  0  0  0  0
    4.9027   -3.1177    2.4018 H   0  0  0  0  0  0  0  0  0  0  0  0
  1  2  1  0
  1 22  1  0
  1 23  1  0
  1 24  1  0
  2 18  1  0
  2  3  1  0
  2 25  1  1
  3  4  1  0
  3 26  1  0
  3 27  1  0
  4  5  1  0
  4  6  1  0
  4 28  1  6
  5 29  1  0
  5 30  1  0
  5 31  1  0
  6 19  1  0
  6  7  1  0
  6 32  1  6
  7  8  1  0
  7  9  1  0
  7 33  1  1
  8 34  1  0
  8 35  1  0
  8 36  1  0
  9 10  1  0
  9 11  1  0
  9 37  1  6
 10 38  1  0
 10 39  1  0
 10 40  1  0
 11 12  1  0
 12 19  1  0
 12 13  1  0
 12 41  1  6
 13 14  1  0
 14 21  1  0
 14 15  1  1
 14 16  1  0
 15 42  1  0
 15 43  1  0
 15 44  1  0
 16 17  1  0
 16 45  1  0
 16 46  1  0
 17 18  1  0
 17 47  1  0
 17 48  1  0
 18 19  1  0
 18 49  1  1
 19 20  1  1
 20 21  1  0
M  END
>  <i_m_ct_stereo_status>  (11) 
1

>  <s_m_source_file>  (11) 
/var/tmp/pbs.5076255.sched01/tmp3_il56_a/09f63jmog.sdf

>  <i_m_source_file_index>  (11) 
4

>  <i_lp_mmshare_version>  (11) 
48012

>  <i_f3d_flags>  (11) 
0

>  <s_epik_input>  (11) 
W0NAQF0xMjNbQ0BASF00W0NASF0oW0NIM10pW0NIMl1bQ0BASF0oW0NIM10pW0NASF0yW0NIMl1bQ0gyXVtDQF0oW0NIM10pKE9PMylPW0NASF0xT1tDQEhdKFtDSDNdKVtDQEBIXTRbQ0gzXQ==

>  <s_epik_cmdline>  (11) 
J2VwaWtfcHl0aG9uJywgJy1waHQnLCAnMi4wJywgJy1waCcsICc3LjAnLCAnLXRuJywgJzgnLCAnLW1hJywgJzIwMCcsICctaW1hZScsICc8aW5maWxlLm1hZT4nLCAnLW9tYWUnLCAnPG91dGZpbGUubWFlPic=

>  <r_lp_tautomer_probability>  (11) 
1

>  <r_epik_Ionization_Penalty>  (11) 
3.19687e-14

>  <r_epik_Ionization_Penalty_Charging>  (11) 
0

>  <r_epik_Ionization_Penalty_Neutral>  (11) 
3.19687e-14

>  <r_epik_State_Penalty>  (11) 
-0

>  <r_epik_Charging_Adjusted_Penalty>  (11) 
0

>  <i_epik_Tot_Q>  (11) 
0

>  <i_epik_Tot_abs_Q>  (11) 
0

>  <s_epik_Chemistry_Notes>  (11) 
This compound contains an acetal/aminal-like group ( X-CH(R)-Y where X, Y are N, S, or O) that may be acid/base labile, releasing an aldehyde.

>  <s_lp_Force_Field>  (11) 
OPLS3e

>  <r_lp_Energy>  (11) 
57.182

>  <b_lp_Chiralities_Consistent>  (11) 
1

>  <s_lp_Variant>  (11) 
2:0-1

>  <s_i_glide_gridfile>  (11) 
pfpi4k_grid

>  <i_i_glide_lignum>  (11) 
4

>  <i_i_glide_rotatable_bonds>  (11) 
0

>  <r_i_docking_score>  (11) 
-3.35113

>  <r_i_glide_ligand_efficiency>  (11) 
-0.159577

>  <r_i_glide_ligand_efficiency_sa>  (11) 
-0.440262

>  <r_i_glide_ligand_efficiency_ln>  (11) 
-0.828559

>  <r_i_glide_gscore>  (11) 
-3.35113

>  <r_i_glide_lipo>  (11) 
-0.618224

>  <r_i_glide_hbond>  (11) 
0

>  <r_i_glide_metal>  (11) 
-0

>  <r_i_glide_rewards>  (11) 
-1.38817

>  <r_i_glide_evdw>  (11) 
-25.3502

>  <r_i_glide_ecoul>  (11) 
-0.12349

>  <r_i_glide_erotb>  (11) 
0

>  <r_i_glide_esite>  (11) 
-0.0586992

>  <r_i_glide_emodel>  (11) 
-30.1297

>  <r_i_glide_energy>  (11) 
-25.4737

>  <r_i_glide_einternal>  (11) 
0

>  <r_i_glide_intrahb_reward>  (11) 
-0

>  <i_i_glide_confnum>  (11) 
2

>  <i_i_glide_posenum>  (11) 
1

>  <r_i_glide_eff_state_penalty>  (11) 
0

>  <ligand_id>  (11) 
2

>  <original_smiles>  (11) 
CC1CC(C)C2C(C)C(C)OC3OC4(C)CCC1C32OO4

>  <smiles>  (11) 
[H]C([H])([H])C1([H])OC2([H])OC3(C([H])([H])[H])OOC24C([H])(C([H])([H])C3([H])[H])C([H])(C([H])([H])[H])C([H])([H])C([H])(C([H])([H])[H])C4([H])C1([H])C([H])([H])[H]

$$$$
2:0:2
     RDKit          3D

 49 52  0  0  1  0  0  0  0  0999 V2000
    5.9717   -3.6612    2.4362 C   0  0  0  0  0  0  0  0  0  0  0  0
    5.5532   -2.2140    2.0788 C   0  0  2  0  0  0  0  0  0  0  0  0
    4.4734   -1.6012    3.0091 C   0  0  0  0  0  0  0  0  0  0  0  0
    3.0310   -1.6853    2.4685 C   0  0  1  0  0  0  0  0  0  0  0  0
    2.5852   -0.3748    1.7726 C   0  0  0  0  0  0  0  0  0  0  0  0
    2.8227   -2.9337    1.5744 C   0  0  2  0  0  0  0  0  0  0  0  0
    2.9438   -4.2554    2.4011 C   0  0  1  0  0  0  0  0  0  0  0  0
    1.7743   -4.4580    3.4094 C   0  0  0  0  0  0  0  0  0  0  0  0
    3.0811   -5.4968    1.5013 C   0  0  1  0  0  0  0  0  0  0  0  0
    1.7483   -5.8971    0.8708 C   0  0  0  0  0  0  0  0  0  0  0  0
    4.0656   -5.2811    0.4940 O   0  0  0  0  0  0  0  0  0  0  0  0
    3.7781   -4.2654   -0.4026 C   0  0  2  0  0  0  0  0  0  0  0  0
    4.6648   -4.2704   -1.4853 O   0  0  0  0  0  0  0  0  0  0  0  0
    4.6221   -3.0522   -2.2106 C   0  0  2  0  0  0  0  0  0  0  0  0
    4.6322   -3.3654   -3.7115 C   0  0  0  0  0  0  0  0  0  0  0  0
    5.8630   -2.2247   -1.8135 C   0  0  0  0  0  0  0  0  0  0  0  0
    6.2880   -2.4776   -0.3662 C   0  0  0  0  0  0  0  0  0  0  0  0
    5.1438   -2.1608    0.6098 C   0  0  1  0  0  0  0  0  0  0  0  0
    3.7698   -2.8750    0.3318 C   0  0  2  0  0  0  0  0  0  0  0  0
    3.1699   -1.9561   -0.5724 O   0  0  0  0  0  0  0  0  0  0  0  0
    3.3865   -2.3520   -2.0324 O   0  0  0  0  0  0  0  0  0  0  0  0
    5.3696   -4.4652    2.0156 H   0  0  0  0  0  0  0  0  0  0  0  0
    5.9679   -3.8176    3.5195 H   0  0  0  0  0  0  0  0  0  0  0  0
    6.9958   -3.8243    2.0916 H   0  0  0  0  0  0  0  0  0  0  0  0
    6.4320   -1.5803    2.2170 H   0  0  0  0  0  0  0  0  0  0  0  0
    4.5088   -2.0489    4.0000 H   0  0  0  0  0  0  0  0  0  0  0  0
    4.7128   -0.5529    3.1866 H   0  0  0  0  0  0  0  0  0  0  0  0
    2.3665   -1.7706    3.3242 H   0  0  0  0  0  0  0  0  0  0  0  0
    3.2548   -0.0929    0.9532 H   0  0  0  0  0  0  0  0  0  0  0  0
    2.5265    0.4662    2.4663 H   0  0  0  0  0  0  0  0  0  0  0  0
    1.5720   -0.4739    1.3681 H   0  0  0  0  0  0  0  0  0  0  0  0
    1.8101   -2.9106    1.1813 H   0  0  0  0  0  0  0  0  0  0  0  0
    3.8299   -4.2346    3.0358 H   0  0  0  0  0  0  0  0  0  0  0  0
    0.7707   -4.3683    2.9780 H   0  0  0  0  0  0  0  0  0  0  0  0
    1.8010   -3.7618    4.2454 H   0  0  0  0  0  0  0  0  0  0  0  0
    1.7958   -5.4453    3.8782 H   0  0  0  0  0  0  0  0  0  0  0  0
    3.4637   -6.3299    2.1001 H   0  0  0  0  0  0  0  0  0  0  0  0
    1.0832   -6.4134    1.5679 H   0  0  0  0  0  0  0  0  0  0  0  0
    1.9414   -6.5946    0.0631 H   0  0  0  0  0  0  0  0  0  0  0  0
    1.2758   -5.0498    0.3952 H   0  0  0  0  0  0  0  0  0  0  0  0
    2.7999   -4.4578   -0.8630 H   0  0  0  0  0  0  0  0  0  0  0  0
    3.7626   -3.9470   -4.0178 H   0  0  0  0  0  0  0  0  0  0  0  0
    5.5251   -3.9304   -3.9761 H   0  0  0  0  0  0  0  0  0  0  0  0
    4.6210   -2.4425   -4.2997 H   0  0  0  0  0  0  0  0  0  0  0  0
    6.7056   -2.5105   -2.4393 H   0  0  0  0  0  0  0  0  0  0  0  0
    5.6690   -1.1647   -1.9902 H   0  0  0  0  0  0  0  0  0  0  0  0
    6.6265   -3.5147   -0.2505 H   0  0  0  0  0  0  0  0  0  0  0  0
    7.1511   -1.8586   -0.1266 H   0  0  0  0  0  0  0  0  0  0  0  0
    4.9540   -1.1010    0.4543 H   0  0  0  0  0  0  0  0  0  0  0  0
  1  2  1  0
  1 22  1  0
  1 23  1  0
  1 24  1  0
  2 18  1  0
  2  3  1  0
  2 25  1  6
  3  4  1  0
  3 26  1  0
  3 27  1  0
  4  5  1  0
  4  6  1  0
  4 28  1  1
  5 29  1  0
  5 30  1  0
  5 31  1  0
  6 19  1  0
  6  7  1  0
  6 32  1  6
  7  8  1  0
  7  9  1  0
  7 33  1  1
  8 34  1  0
  8 35  1  0
  8 36  1  0
  9 10  1  0
  9 11  1  0
  9 37  1  1
 10 38  1  0
 10 39  1  0
 10 40  1  0
 11 12  1  0
 12 19  1  0
 12 13  1  0
 12 41  1  6
 13 14  1  0
 14 21  1  0
 14 15  1  6
 14 16  1  0
 15 42  1  0
 15 43  1  0
 15 44  1  0
 16 17  1  0
 16 45  1  0
 16 46  1  0
 17 18  1  0
 17 47  1  0
 17 48  1  0
 18 19  1  0
 18 49  1  6
 19 20  1  6
 20 21  1  0
M  END
>  <i_m_ct_stereo_status>  (12) 
1

>  <s_m_source_file>  (12) 
/var/tmp/pbs.5076255.sched01/tmp3_il56_a/09f63jmog.sdf

>  <i_m_source_file_index>  (12) 
4

>  <i_lp_mmshare_version>  (12) 
48012

>  <i_f3d_flags>  (12) 
0

>  <s_epik_input>  (12) 
W0NAQF0xMjNbQ0BASF00W0NASF0oW0NIM10pW0NIMl1bQ0BASF0oW0NIM10pW0NASF0yW0NIMl1bQ0gyXVtDQF0oW0NIM10pKE9PMylPW0NASF0xT1tDQEhdKFtDSDNdKVtDQEBIXTRbQ0gzXQ==

>  <s_epik_cmdline>  (12) 
J2VwaWtfcHl0aG9uJywgJy1waHQnLCAnMi4wJywgJy1waCcsICc3LjAnLCAnLXRuJywgJzgnLCAnLW1hJywgJzIwMCcsICctaW1hZScsICc8aW5maWxlLm1hZT4nLCAnLW9tYWUnLCAnPG91dGZpbGUubWFlPic=

>  <r_lp_tautomer_probability>  (12) 
1

>  <r_epik_Ionization_Penalty>  (12) 
3.19687e-14

>  <r_epik_Ionization_Penalty_Charging>  (12) 
0

>  <r_epik_Ionization_Penalty_Neutral>  (12) 
3.19687e-14

>  <r_epik_State_Penalty>  (12) 
-0

>  <r_epik_Charging_Adjusted_Penalty>  (12) 
0

>  <i_epik_Tot_Q>  (12) 
0

>  <i_epik_Tot_abs_Q>  (12) 
0

>  <s_epik_Chemistry_Notes>  (12) 
This compound contains an acetal/aminal-like group ( X-CH(R)-Y where X, Y are N, S, or O) that may be acid/base labile, releasing an aldehyde.

>  <s_lp_Force_Field>  (12) 
OPLS3e

>  <r_lp_Energy>  (12) 
57.182

>  <b_lp_Chiralities_Consistent>  (12) 
1

>  <s_lp_Variant>  (12) 
2:0-1

>  <s_i_glide_gridfile>  (12) 
pfpi4k_grid

>  <i_i_glide_lignum>  (12) 
4

>  <i_i_glide_rotatable_bonds>  (12) 
0

>  <r_i_docking_score>  (12) 
-2.4375

>  <r_i_glide_ligand_efficiency>  (12) 
-0.116072

>  <r_i_glide_ligand_efficiency_sa>  (12) 
-0.320233

>  <r_i_glide_ligand_efficiency_ln>  (12) 
-0.602668

>  <r_i_glide_gscore>  (12) 
-2.4375

>  <r_i_glide_lipo>  (12) 
-0.371935

>  <r_i_glide_hbond>  (12) 
0

>  <r_i_glide_metal>  (12) 
-0

>  <r_i_glide_rewards>  (12) 
-1.43963

>  <r_i_glide_evdw>  (12) 
-17.7303

>  <r_i_glide_ecoul>  (12) 
1.90789

>  <r_i_glide_erotb>  (12) 
0

>  <r_i_glide_esite>  (12) 
-0.0256105

>  <r_i_glide_emodel>  (12) 
-18.151

>  <r_i_glide_energy>  (12) 
-15.8224

>  <r_i_glide_einternal>  (12) 
0

>  <r_i_glide_intrahb_reward>  (12) 
-0

>  <i_i_glide_confnum>  (12) 
1

>  <i_i_glide_posenum>  (12) 
3

>  <r_i_glide_eff_state_penalty>  (12) 
0

>  <ligand_id>  (12) 
2

>  <original_smiles>  (12) 
CC1CC(C)C2C(C)C(C)OC3OC4(C)CCC1C32OO4

>  <smiles>  (12) 
[H]C([H])([H])C1([H])OC2([H])OC3(C([H])([H])[H])OOC24C([H])(C([H])([H])C3([H])[H])C([H])(C([H])([H])[H])C([H])([H])C([H])(C([H])([H])[H])C4([H])C1([H])C([H])([H])[H]

$$$$
3:0:0
     RDKit          3D

 39 43  0  0  1  0  0  0  0  0999 V2000
   -0.2847   -9.2494    6.4767 F   0  0  0  0  0  0  0  0  0  0  0  0
    0.7746   -9.3204    5.5834 C   0  0  0  0  0  0  0  0  0  0  0  0
    1.9767   -9.6350    6.1867 F   0  0  0  0  0  0  0  0  0  0  0  0
    0.5180   -9.7541    4.1486 C   0  0  1  0  0  0  0  0  0  0  0  0
    1.5873   -9.7630    3.0964 C   0  0  0  0  0  0  0  0  0  0  0  0
    1.9124   -8.3095    3.4166 C   0  0  1  0  0  0  0  0  0  0  0  0
    1.8572   -7.2843    2.3975 N   0  0  0  0  0  0  0  0  0  0  0  0
    0.9268   -7.1841    1.3806 C   0  0  0  0  0  0  0  0  0  0  0  0
    1.1571   -6.2471    0.5100 N   0  0  0  0  0  0  0  0  0  0  0  0
    2.3413   -5.6542    0.9583 C   0  0  0  0  0  0  0  0  0  0  0  0
    3.1275   -4.5709    0.4963 C   0  0  0  0  0  0  0  0  0  0  0  0
    2.7641   -3.8490   -0.5803 N   0  0  0  0  0  0  0  0  0  0  0  0
    3.6561   -2.9051   -1.2477 C   0  0  0  0  0  0  0  0  0  0  0  0
    3.0228   -2.3888   -2.5482 C   0  0  0  0  0  0  0  0  0  0  0  0
    4.1922   -2.0029   -3.4557 C   0  0  0  0  0  0  0  0  0  0  0  0
    5.2580   -3.0396   -3.1262 C   0  0  0  0  0  0  0  0  0  0  0  0
    5.0271   -3.4754   -1.6749 C   0  0  0  0  0  0  0  0  0  0  0  0
    4.2683   -4.2648    1.1971 N   0  0  0  0  0  0  0  0  0  0  0  0
    4.5958   -4.9816    2.2706 C   0  0  0  0  0  0  0  0  0  0  0  0
    3.9370   -6.0035    2.8366 N   0  0  0  0  0  0  0  0  0  0  0  0
    2.7988   -6.3030    2.1263 C   0  0  0  0  0  0  0  0  0  0  0  0
    0.8108   -8.2941    4.4582 C   0  0  2  0  0  0  0  0  0  0  0  0
    2.0099   -4.1601   -1.1727 H   0  0  0  0  0  0  0  0  0  0  0  0
   -0.4879   -9.9581    3.7868 H   0  0  0  0  0  0  0  0  0  0  0  0
    2.4155  -10.3993    3.3411 H   0  0  0  0  0  0  0  0  0  0  0  0
    1.2278   -9.9361    2.0795 H   0  0  0  0  0  0  0  0  0  0  0  0
    2.8752   -8.2149    3.9031 H   0  0  0  0  0  0  0  0  0  0  0  0
    0.0877   -7.8557    1.2758 H   0  0  0  0  0  0  0  0  0  0  0  0
    3.8345   -2.0494   -0.5955 H   0  0  0  0  0  0  0  0  0  0  0  0
    2.4489   -3.1736   -3.0497 H   0  0  0  0  0  0  0  0  0  0  0  0
    2.3450   -1.5463   -2.3681 H   0  0  0  0  0  0  0  0  0  0  0  0
    3.9094   -1.9788   -4.5126 H   0  0  0  0  0  0  0  0  0  0  0  0
    4.5412   -1.0126   -3.1821 H   0  0  0  0  0  0  0  0  0  0  0  0
    5.1312   -3.9059   -3.7708 H   0  0  0  0  0  0  0  0  0  0  0  0
    6.2660   -2.6608   -3.2675 H   0  0  0  0  0  0  0  0  0  0  0  0
    5.8052   -3.0741   -1.0159 H   0  0  0  0  0  0  0  0  0  0  0  0
    5.0992   -4.5621   -1.6429 H   0  0  0  0  0  0  0  0  0  0  0  0
    5.5037   -4.6600    2.7626 H   0  0  0  0  0  0  0  0  0  0  0  0
   -0.0299   -7.6115    4.2874 H   0  0  0  0  0  0  0  0  0  0  0  0
  1  2  1  0
  2 22  1  0
  2  3  1  0
  2  4  1  0
  4 22  1  0
  4  5  1  0
  4 24  1  1
  5  6  1  0
  5 25  1  0
  5 26  1  0
  6 22  1  0
  6 27  1  1
  6  7  1  0
  7  8  1  0
  7 21  1  0
  8  9  2  0
  8 28  1  0
  9 10  1  0
 10 11  1  0
 10 21  2  0
 11 18  2  0
 11 12  1  0
 12 13  1  0
 12 23  1  0
 13 17  1  0
 13 14  1  0
 13 29  1  0
 14 15  1  0
 14 30  1  0
 14 31  1  0
 15 16  1  0
 15 32  1  0
 15 33  1  0
 16 17  1  0
 16 34  1  0
 16 35  1  0
 17 36  1  0
 17 37  1  0
 18 19  1  0
 19 38  1  0
 19 20  2  0
 20 21  1  0
 22 39  1  1
M  END
>  <i_m_ct_stereo_status>  (13) 
1

>  <s_m_source_file>  (13) 
/var/tmp/pbs.5076255.sched01/tmp3_il56_a/09f63jmog.sdf

>  <i_m_source_file_index>  (13) 
5

>  <i_lp_mmshare_version>  (13) 
48012

>  <i_f3d_flags>  (13) 
0

>  <s_epik_input>  (13) 
RkMxKEYpW0NASF0oW0NASF0xMilbQ0BASF0oW0NIMl0yKW4oW2NIXW4zKWMoYzM0KW5bY0hdW25IXWNcND1OXFtDSF01W0NIMl1bQ0gyXVtDSDJdW0NIMl01

>  <s_epik_cmdline>  (13) 
J2VwaWtfcHl0aG9uJywgJy1waHQnLCAnMi4wJywgJy1waCcsICc3LjAnLCAnLXRuJywgJzgnLCAnLW1hJywgJzIwMCcsICctaW1hZScsICc8aW5maWxlLm1hZT4nLCAnLW9tYWUnLCAnPG91dGZpbGUubWFlPic=

>  <r_lp_tautomer_probability>  (13) 
1

>  <r_epik_Ionization_Penalty>  (13) 
0.00225297

>  <r_epik_Ionization_Penalty_Charging>  (13) 
0

>  <r_epik_Ionization_Penalty_Neutral>  (13) 
0.00225297

>  <r_epik_State_Penalty>  (13) 
-0

>  <r_epik_Charging_Adjusted_Penalty>  (13) 
0

>  <i_epik_Tot_Q>  (13) 
0

>  <i_epik_Tot_abs_Q>  (13) 
0

>  <s_lp_Force_Field>  (13) 
OPLS3e

>  <r_lp_Energy>  (13) 
35.2039

>  <b_lp_Chiralities_Consistent>  (13) 
1

>  <s_lp_Variant>  (13) 
3:0-1

>  <s_i_glide_gridfile>  (13) 
pfpi4k_grid

>  <i_i_glide_lignum>  (13) 
5

>  <i_i_glide_rotatable_bonds>  (13) 
3

>  <r_i_docking_score>  (13) 
-3.59348

>  <r_i_glide_ligand_efficiency>  (13) 
-0.16334

>  <r_i_glide_ligand_efficiency_sa>  (13) 
-0.457685

>  <r_i_glide_ligand_efficiency_ln>  (13) 
-0.878377

>  <r_i_glide_gscore>  (13) 
-3.59348

>  <r_i_glide_lipo>  (13) 
-0.446364

>  <r_i_glide_hbond>  (13) 
-0.16

>  <r_i_glide_metal>  (13) 
-0

>  <r_i_glide_rewards>  (13) 
-1.33804

>  <r_i_glide_evdw>  (13) 
-28.1688

>  <r_i_glide_ecoul>  (13) 
-3.79442

>  <r_i_glide_erotb>  (13) 
0.593909

>  <r_i_glide_esite>  (13) 
-0.265374

>  <r_i_glide_emodel>  (13) 
-38.7658

>  <r_i_glide_energy>  (13) 
-31.9632

>  <r_i_glide_einternal>  (13) 
0.733607

>  <r_i_glide_intrahb_reward>  (13) 
-0

>  <i_i_glide_confnum>  (13) 
3

>  <i_i_glide_posenum>  (13) 
3

>  <r_i_glide_eff_state_penalty>  (13) 
0

>  <ligand_id>  (13) 
3

>  <original_smiles>  (13) 
FC1(F)C2CC(n3cnc4c(=NC5CCCC5)[nH]cnc43)C21

>  <smiles>  (13) 
[H]c1nc(N([H])C2([H])C([H])([H])C([H])([H])C([H])([H])C2([H])[H])c2nc([H])n(C3([H])C([H])([H])C4([H])C(F)(F)C34[H])c2n1

$$$$
3:0:1
     RDKit          3D

 39 43  0  0  1  0  0  0  0  0999 V2000
   -1.7693    4.6321    3.9660 F   0  0  0  0  0  0  0  0  0  0  0  0
   -1.3114    3.3715    4.2837 C   0  0  0  0  0  0  0  0  0  0  0  0
   -1.5461    3.0446    5.6122 F   0  0  0  0  0  0  0  0  0  0  0  0
   -1.4198    2.3167    3.2252 C   0  0  1  0  0  0  0  0  0  0  0  0
   -0.9395    0.9129    3.4776 C   0  0  0  0  0  0  0  0  0  0  0  0
    0.4097    1.4435    3.9434 C   0  0  1  0  0  0  0  0  0  0  0  0
    1.5913    1.0406    3.2659 N   0  0  0  0  0  0  0  0  0  0  0  0
    1.7138    0.8469    1.8835 C   0  0  0  0  0  0  0  0  0  0  0  0
    2.8302    0.3830    1.5033 N   0  0  0  0  0  0  0  0  0  0  0  0
    3.5817    0.2165    2.6526 C   0  0  0  0  0  0  0  0  0  0  0  0
    4.8920   -0.2638    2.9201 C   0  0  0  0  0  0  0  0  0  0  0  0
    5.7756   -0.6891    1.9898 N   0  0  0  0  0  0  0  0  0  0  0  0
    5.4378   -1.6690    0.9362 C   0  0  0  0  0  0  0  0  0  0  0  0
    6.6576   -2.1832    0.1467 C   0  0  0  0  0  0  0  0  0  0  0  0
    6.1297   -2.5115   -1.2605 C   0  0  0  0  0  0  0  0  0  0  0  0
    5.0427   -1.4807   -1.5255 C   0  0  0  0  0  0  0  0  0  0  0  0
    4.5569   -1.1043   -0.1738 C   0  0  0  0  0  0  0  0  0  0  0  0
    5.3116   -0.2000    4.2142 N   0  0  0  0  0  0  0  0  0  0  0  0
    4.5096    0.2444    5.1851 C   0  0  0  0  0  0  0  0  0  0  0  0
    3.2405    0.6788    5.0722 N   0  0  0  0  0  0  0  0  0  0  0  0
    2.8162    0.6620    3.7693 C   0  0  0  0  0  0  0  0  0  0  0  0
   -0.0465    2.8625    3.6373 C   0  0  2  0  0  0  0  0  0  0  0  0
    6.7352   -0.3744    2.0287 H   0  0  0  0  0  0  0  0  0  0  0  0
   -1.7590    2.5621    2.2201 H   0  0  0  0  0  0  0  0  0  0  0  0
   -1.4550    0.3859    4.2706 H   0  0  0  0  0  0  0  0  0  0  0  0
   -0.9184    0.3055    2.5622 H   0  0  0  0  0  0  0  0  0  0  0  0
    0.5570    1.3065    5.0099 H   0  0  0  0  0  0  0  0  0  0  0  0
    0.8488    1.0220    1.2248 H   0  0  0  0  0  0  0  0  0  0  0  0
    4.9365   -2.5241    1.4161 H   0  0  0  0  0  0  0  0  0  0  0  0
    7.3956   -1.3649    0.0834 H   0  0  0  0  0  0  0  0  0  0  0  0
    7.1272   -3.0384    0.6423 H   0  0  0  0  0  0  0  0  0  0  0  0
    6.8932   -2.4979   -2.0306 H   0  0  0  0  0  0  0  0  0  0  0  0
    5.6425   -3.4928   -1.2475 H   0  0  0  0  0  0  0  0  0  0  0  0
    5.4489   -0.5789   -1.9857 H   0  0  0  0  0  0  0  0  0  0  0  0
    4.2273   -1.8250   -2.1670 H   0  0  0  0  0  0  0  0  0  0  0  0
    3.5341   -1.4806   -0.0502 H   0  0  0  0  0  0  0  0  0  0  0  0
    4.5812   -0.0002   -0.1901 H   0  0  0  0  0  0  0  0  0  0  0  0
    4.9657    0.2261    6.1815 H   0  0  0  0  0  0  0  0  0  0  0  0
    0.4710    3.4068    2.8507 H   0  0  0  0  0  0  0  0  0  0  0  0
  1  2  1  0
  2 22  1  0
  2  3  1  0
  2  4  1  0
  4 22  1  0
  4  5  1  0
  4 24  1  6
  5  6  1  0
  5 25  1  0
  5 26  1  0
  6 22  1  0
  6 27  1  1
  6  7  1  0
  7  8  1  0
  7 21  1  0
  8  9  2  0
  8 28  1  0
  9 10  1  0
 10 11  1  0
 10 21  2  0
 11 18  2  0
 11 12  1  0
 12 13  1  0
 12 23  1  0
 13 17  1  0
 13 14  1  0
 13 29  1  0
 14 15  1  0
 14 30  1  0
 14 31  1  0
 15 16  1  0
 15 32  1  0
 15 33  1  0
 16 17  1  0
 16 34  1  0
 16 35  1  0
 17 36  1  0
 17 37  1  0
 18 19  1  0
 19 38  1  0
 19 20  2  0
 20 21  1  0
 22 39  1  6
M  END
>  <i_m_ct_stereo_status>  (14) 
1

>  <s_m_source_file>  (14) 
/var/tmp/pbs.5076255.sched01/tmp3_il56_a/09f63jmog.sdf

>  <i_m_source_file_index>  (14) 
5

>  <i_lp_mmshare_version>  (14) 
48012

>  <i_f3d_flags>  (14) 
0

>  <s_epik_input>  (14) 
RkMxKEYpW0NASF0oW0NASF0xMilbQ0BASF0oW0NIMl0yKW4oW2NIXW4zKWMoYzM0KW5bY0hdW25IXWNcND1OXFtDSF01W0NIMl1bQ0gyXVtDSDJdW0NIMl01

>  <s_epik_cmdline>  (14) 
J2VwaWtfcHl0aG9uJywgJy1waHQnLCAnMi4wJywgJy1waCcsICc3LjAnLCAnLXRuJywgJzgnLCAnLW1hJywgJzIwMCcsICctaW1hZScsICc8aW5maWxlLm1hZT4nLCAnLW9tYWUnLCAnPG91dGZpbGUubWFlPic=

>  <r_lp_tautomer_probability>  (14) 
1

>  <r_epik_Ionization_Penalty>  (14) 
0.00225297

>  <r_epik_Ionization_Penalty_Charging>  (14) 
0

>  <r_epik_Ionization_Penalty_Neutral>  (14) 
0.00225297

>  <r_epik_State_Penalty>  (14) 
-0

>  <r_epik_Charging_Adjusted_Penalty>  (14) 
0

>  <i_epik_Tot_Q>  (14) 
0

>  <i_epik_Tot_abs_Q>  (14) 
0

>  <s_lp_Force_Field>  (14) 
OPLS3e

>  <r_lp_Energy>  (14) 
35.2039

>  <b_lp_Chiralities_Consistent>  (14) 
1

>  <s_lp_Variant>  (14) 
3:0-1

>  <s_i_glide_gridfile>  (14) 
pfpi4k_grid

>  <i_i_glide_lignum>  (14) 
5

>  <i_i_glide_rotatable_bonds>  (14) 
3

>  <r_i_docking_score>  (14) 
-3.57788

>  <r_i_glide_ligand_efficiency>  (14) 
-0.162631

>  <r_i_glide_ligand_efficiency_sa>  (14) 
-0.455698

>  <r_i_glide_ligand_efficiency_ln>  (14) 
-0.874564

>  <r_i_glide_gscore>  (14) 
-3.57788

>  <r_i_glide_lipo>  (14) 
-0.236521

>  <r_i_glide_hbond>  (14) 
-0.2523

>  <r_i_glide_metal>  (14) 
-0

>  <r_i_glide_rewards>  (14) 
-1.36736

>  <r_i_glide_evdw>  (14) 
-25.7982

>  <r_i_glide_ecoul>  (14) 
-5.79707

>  <r_i_glide_erotb>  (14) 
0.593909

>  <r_i_glide_esite>  (14) 
-0.156131

>  <r_i_glide_emodel>  (14) 
-34.4564

>  <r_i_glide_energy>  (14) 
-31.5953

>  <r_i_glide_einternal>  (14) 
4.80597

>  <r_i_glide_intrahb_reward>  (14) 
-0

>  <i_i_glide_confnum>  (14) 
4

>  <i_i_glide_posenum>  (14) 
6

>  <r_i_glide_eff_state_penalty>  (14) 
0

>  <ligand_id>  (14) 
3

>  <original_smiles>  (14) 
FC1(F)C2CC(n3cnc4c(=NC5CCCC5)[nH]cnc43)C21

>  <smiles>  (14) 
[H]c1nc(N([H])C2([H])C([H])([H])C([H])([H])C([H])([H])C2([H])[H])c2nc([H])n(C3([H])C([H])([H])C4([H])C(F)(F)C34[H])c2n1

$$$$
3:0:2
     RDKit          3D

 39 43  0  0  1  0  0  0  0  0999 V2000
    3.0673  -12.1634    4.3930 F   0  0  0  0  0  0  0  0  0  0  0  0
    1.9902  -11.3652    4.0501 C   0  0  0  0  0  0  0  0  0  0  0  0
    0.8197  -12.0630    3.8385 F   0  0  0  0  0  0  0  0  0  0  0  0
    1.9153   -9.9926    4.6795 C   0  0  1  0  0  0  0  0  0  0  0  0
    0.8435   -8.9964    4.3406 C   0  0  0  0  0  0  0  0  0  0  0  0
    1.1651   -9.1561    2.8659 C   0  0  1  0  0  0  0  0  0  0  0  0
    1.4751   -8.0158    2.0418 N   0  0  0  0  0  0  0  0  0  0  0  0
    0.5245   -7.3415    1.3029 C   0  0  0  0  0  0  0  0  0  0  0  0
    0.9296   -6.2646    0.6908 N   0  0  0  0  0  0  0  0  0  0  0  0
    2.2814   -6.2061    1.0130 C   0  0  0  0  0  0  0  0  0  0  0  0
    3.3035   -5.2921    0.6826 C   0  0  0  0  0  0  0  0  0  0  0  0
    3.0534   -4.2265   -0.1039 N   0  0  0  0  0  0  0  0  0  0  0  0
    4.0830   -3.2715   -0.4887 C   0  0  0  0  0  0  0  0  0  0  0  0
    3.4781   -2.1512   -1.3420 C   0  0  0  0  0  0  0  0  0  0  0  0
    4.6122   -1.6556   -2.2329 C   0  0  0  0  0  0  0  0  0  0  0  0
    5.4213   -2.9126   -2.5353 C   0  0  0  0  0  0  0  0  0  0  0  0
    5.2278   -3.8590   -1.3417 C   0  0  0  0  0  0  0  0  0  0  0  0
    4.5496   -5.5255    1.1934 N   0  0  0  0  0  0  0  0  0  0  0  0
    4.7522   -6.5734    1.9904 C   0  0  0  0  0  0  0  0  0  0  0  0
    3.8772   -7.4978    2.4034 N   0  0  0  0  0  0  0  0  0  0  0  0
    2.6379   -7.2812    1.8665 C   0  0  0  0  0  0  0  0  0  0  0  0
    2.2612  -10.1427    3.1960 C   0  0  2  0  0  0  0  0  0  0  0  0
    2.2043   -4.1713   -0.6510 H   0  0  0  0  0  0  0  0  0  0  0  0
    2.7211   -9.6307    5.3099 H   0  0  0  0  0  0  0  0  0  0  0  0
   -0.1477   -9.3598    4.5630 H   0  0  0  0  0  0  0  0  0  0  0  0
    1.0111   -7.9887    4.7311 H   0  0  0  0  0  0  0  0  0  0  0  0
    0.3723   -9.6684    2.3443 H   0  0  0  0  0  0  0  0  0  0  0  0
   -0.5061   -7.6684    1.2569 H   0  0  0  0  0  0  0  0  0  0  0  0
    4.5202   -2.8335    0.4128 H   0  0  0  0  0  0  0  0  0  0  0  0
    2.6811   -2.5400   -1.9793 H   0  0  0  0  0  0  0  0  0  0  0  0
    3.0412   -1.3639   -0.7214 H   0  0  0  0  0  0  0  0  0  0  0  0
    4.2438   -1.1473   -3.1269 H   0  0  0  0  0  0  0  0  0  0  0  0
    5.2162   -0.9511   -1.6712 H   0  0  0  0  0  0  0  0  0  0  0  0
    5.0183   -3.3946   -3.4231 H   0  0  0  0  0  0  0  0  0  0  0  0
    6.4714   -2.6963   -2.7215 H   0  0  0  0  0  0  0  0  0  0  0  0
    6.1315   -3.9263   -0.7281 H   0  0  0  0  0  0  0  0  0  0  0  0
    5.0262   -4.8640   -1.7219 H   0  0  0  0  0  0  0  0  0  0  0  0
    5.7597   -6.7035    2.3599 H   0  0  0  0  0  0  0  0  0  0  0  0
    3.2842   -9.9065    2.9094 H   0  0  0  0  0  0  0  0  0  0  0  0
  1  2  1  0
  2 22  1  0
  2  3  1  0
  2  4  1  0
  4 22  1  0
  4  5  1  0
  4 24  1  1
  5  6  1  0
  5 25  1  0
  5 26  1  0
  6 22  1  0
  6 27  1  6
  6  7  1  0
  7  8  1  0
  7 21  1  0
  8  9  2  0
  8 28  1  0
  9 10  1  0
 10 11  1  0
 10 21  2  0
 11 18  2  0
 11 12  1  0
 12 13  1  0
 12 23  1  0
 13 17  1  0
 13 14  1  0
 13 29  1  0
 14 15  1  0
 14 30  1  0
 14 31  1  0
 15 16  1  0
 15 32  1  0
 15 33  1  0
 16 17  1  0
 16 34  1  0
 16 35  1  0
 17 36  1  0
 17 37  1  0
 18 19  1  0
 19 38  1  0
 19 20  2  0
 20 21  1  0
 22 39  1  1
M  END
>  <i_m_ct_stereo_status>  (15) 
1

>  <s_m_source_file>  (15) 
/var/tmp/pbs.5076255.sched01/tmp3_il56_a/09f63jmog.sdf

>  <i_m_source_file_index>  (15) 
5

>  <i_lp_mmshare_version>  (15) 
48012

>  <i_f3d_flags>  (15) 
0

>  <s_epik_input>  (15) 
RkMxKEYpW0NASF0oW0NASF0xMilbQ0BASF0oW0NIMl0yKW4oW2NIXW4zKWMoYzM0KW5bY0hdW25IXWNcND1OXFtDSF01W0NIMl1bQ0gyXVtDSDJdW0NIMl01

>  <s_epik_cmdline>  (15) 
J2VwaWtfcHl0aG9uJywgJy1waHQnLCAnMi4wJywgJy1waCcsICc3LjAnLCAnLXRuJywgJzgnLCAnLW1hJywgJzIwMCcsICctaW1hZScsICc8aW5maWxlLm1hZT4nLCAnLW9tYWUnLCAnPG91dGZpbGUubWFlPic=

>  <r_lp_tautomer_probability>  (15) 
1

>  <r_epik_Ionization_Penalty>  (15) 
0.00225297

>  <r_epik_Ionization_Penalty_Charging>  (15) 
0

>  <r_epik_Ionization_Penalty_Neutral>  (15) 
0.00225297

>  <r_epik_State_Penalty>  (15) 
-0

>  <r_epik_Charging_Adjusted_Penalty>  (15) 
0

>  <i_epik_Tot_Q>  (15) 
0

>  <i_epik_Tot_abs_Q>  (15) 
0

>  <s_lp_Force_Field>  (15) 
OPLS3e

>  <r_lp_Energy>  (15) 
35.2039

>  <b_lp_Chiralities_Consistent>  (15) 
1

>  <s_lp_Variant>  (15) 
3:0-1

>  <s_i_glide_gridfile>  (15) 
pfpi4k_grid

>  <i_i_glide_lignum>  (15) 
5

>  <i_i_glide_rotatable_bonds>  (15) 
3

>  <r_i_docking_score>  (15) 
-3.33837

>  <r_i_glide_ligand_efficiency>  (15) 
-0.151744

>  <r_i_glide_ligand_efficiency_sa>  (15) 
-0.425192

>  <r_i_glide_ligand_efficiency_ln>  (15) 
-0.816018

>  <r_i_glide_gscore>  (15) 
-3.33837

>  <r_i_glide_lipo>  (15) 
-0.248251

>  <r_i_glide_hbond>  (15) 
-0.16

>  <r_i_glide_metal>  (15) 
-0

>  <r_i_glide_rewards>  (15) 
-1.36949

>  <r_i_glide_evdw>  (15) 
-28.2381

>  <r_i_glide_ecoul>  (15) 
-3.72885

>  <r_i_glide_erotb>  (15) 
0.593909

>  <r_i_glide_esite>  (15) 
-0.183297

>  <r_i_glide_emodel>  (15) 
-38.2818

>  <r_i_glide_energy>  (15) 
-31.967

>  <r_i_glide_einternal>  (15) 
0.600464

>  <r_i_glide_intrahb_reward>  (15) 
-0

>  <i_i_glide_confnum>  (15) 
3

>  <i_i_glide_posenum>  (15) 
24

>  <r_i_glide_eff_state_penalty>  (15) 
0

>  <ligand_id>  (15) 
3

>  <original_smiles>  (15) 
FC1(F)C2CC(n3cnc4c(=NC5CCCC5)[nH]cnc43)C21

>  <smiles>  (15) 
[H]c1nc(N([H])C2([H])C([H])([H])C([H])([H])C([H])([H])C2([H])[H])c2nc([H])n(C3([H])C([H])([H])C4([H])C(F)(F)C34[H])c2n1

$$$$
4:0:0
     RDKit          3D

 44 48  0  0  1  0  0  0  0  0999 V2000
    3.3527  -12.1432    5.0471 C   0  0  0  0  0  0  0  0  0  0  0  0
    2.3446  -11.2421    4.4365 N   0  0  2  0  0  0  0  0  0  0  0  0
    2.5450  -11.1070    2.9575 C   0  0  0  0  0  0  0  0  0  0  0  0
    1.5723  -10.0934    2.3012 C   0  0  0  0  0  0  0  0  0  0  0  0
    1.5649   -8.7606    3.0849 C   0  0  1  0  0  0  0  0  0  0  0  0
    2.9690   -8.2379    3.0895 C   0  0  0  0  0  0  0  0  0  0  0  0
    3.9522   -8.4812    4.0585 C   0  0  0  0  0  0  0  0  0  0  0  0
    5.2482   -8.0170    3.7542 C   0  0  0  0  0  0  0  0  0  0  0  0
    5.4728   -7.3414    2.5259 C   0  0  0  0  0  0  0  0  0  0  0  0
    4.4101   -7.0612    1.6255 C   0  0  0  0  0  0  0  0  0  0  0  0
    4.6418   -6.3673    0.4765 O   0  0  0  0  0  0  0  0  0  0  0  0
    3.1027   -7.4902    1.9360 C   0  0  0  0  0  0  0  0  0  0  0  0
    1.9046   -7.2471    1.3109 O   0  0  0  0  0  0  0  0  0  0  0  0
    0.9508   -7.5461    2.3460 C   0  0  1  0  0  0  0  0  0  0  0  0
   -0.5361   -7.5942    2.0110 C   0  0  0  0  0  0  0  0  0  0  0  0
   -1.4437   -7.7511    3.2600 C   0  0  1  0  0  0  0  0  0  0  0  0
   -1.9712   -9.0545    3.2645 O   0  0  0  0  0  0  0  0  0  0  0  0
   -0.8086   -7.4277    4.6157 C   0  0  0  0  0  0  0  0  0  0  0  0
    0.2749   -8.0268    5.1533 C   0  0  0  0  0  0  0  0  0  0  0  0
    1.0135   -9.1576    4.4593 C   0  0  2  0  0  0  0  0  0  0  0  0
    2.1248   -9.9529    5.1862 C   0  0  2  0  0  0  0  0  0  0  0  0
    3.4282   -9.1214    5.3381 C   0  0  0  0  0  0  0  0  0  0  0  0
    4.3705  -11.7745    4.9029 H   0  0  0  0  0  0  0  0  0  0  0  0
    3.3038  -13.1284    4.5907 H   0  0  0  0  0  0  0  0  0  0  0  0
    3.1695  -12.2583    6.1135 H   0  0  0  0  0  0  0  0  0  0  0  0
    3.5744  -10.8159    2.7454 H   0  0  0  0  0  0  0  0  0  0  0  0
    2.4338  -12.0876    2.4954 H   0  0  0  0  0  0  0  0  0  0  0  0
    1.8760   -9.9242    1.2706 H   0  0  0  0  0  0  0  0  0  0  0  0
    0.5686  -10.5239    2.2529 H   0  0  0  0  0  0  0  0  0  0  0  0
    6.0608   -8.1748    4.4555 H   0  0  0  0  0  0  0  0  0  0  0  0
    6.4693   -7.0152    2.2835 H   0  0  0  0  0  0  0  0  0  0  0  0
    3.8743   -6.2729   -0.0694 H   0  0  0  0  0  0  0  0  0  0  0  0
    1.0442   -6.6704    2.9944 H   0  0  0  0  0  0  0  0  0  0  0  0
   -0.7823   -6.6610    1.5073 H   0  0  0  0  0  0  0  0  0  0  0  0
   -0.7524   -8.3788    1.2903 H   0  0  0  0  0  0  0  0  0  0  0  0
   -2.2999   -7.0939    3.1354 H   0  0  0  0  0  0  0  0  0  0  0  0
   -1.8363   -9.4928    4.1055 H   0  0  0  0  0  0  0  0  0  0  0  0
   -1.2978   -6.6354    5.1647 H   0  0  0  0  0  0  0  0  0  0  0  0
    0.6318   -7.7254    6.1276 H   0  0  0  0  0  0  0  0  0  0  0  0
    0.2001   -9.8739    4.3311 H   0  0  0  0  0  0  0  0  0  0  0  0
    1.7741  -10.2350    6.1775 H   0  0  0  0  0  0  0  0  0  0  0  0
    4.2207   -9.7081    5.7997 H   0  0  0  0  0  0  0  0  0  0  0  0
    3.2278   -8.3155    6.0430 H   0  0  0  0  0  0  0  0  0  0  0  0
    1.4665  -11.7422    4.5402 H   0  0  0  0  0  0  0  0  0  0  0  0
  1  2  1  0
  1 23  1  0
  1 24  1  0
  1 25  1  0
  2 21  1  0
  2  3  1  0
  2 44  1  6
  3  4  1  0
  3 26  1  0
  3 27  1  0
  5  4  1  6
  4 28  1  0
  4 29  1  0
  5 14  1  0
  5 20  1  0
  5  6  1  0
  6 12  2  0
  6  7  1  0
  7 22  1  0
  7  8  2  0
  8  9  1  0
  8 30  1  0
  9 10  2  0
  9 31  1  0
 10 11  1  0
 10 12  1  0
 11 32  1  0
 12 13  1  0
 13 14  1  0
 14 15  1  0
 14 33  1  1
 15 16  1  0
 15 34  1  0
 15 35  1  0
 16 17  1  0
 16 18  1  0
 16 36  1  6
 17 37  1  0
 18 19  2  0
 18 38  1  0
 19 20  1  0
 19 39  1  0
 20 21  1  0
 20 40  1  6
 21 22  1  0
 21 41  1  1
 22 42  1  0
 22 43  1  0
M  CHG  1   2   1
M  END
>  <i_m_ct_stereo_status>  (16) 
1

>  <s_m_source_file>  (16) 
/var/tmp/pbs.5076255.sched01/tmp3_il56_a/09f63jmog.sdf

>  <i_m_source_file_index>  (16) 
6

>  <i_lp_mmshare_version>  (16) 
48012

>  <i_f3d_flags>  (16) 
0

>  <s_epik_input>  (16) 
W0NIMl0xW0NIMl1OKFtDSDNdKVtDQEBIXShbQ0gyXTIpW0NASF0zW0NIXT1bQ0hdW0NASF0oW09IXSlbQ0gyXVtDQEBIXTRPYzVjKFtPSF0pW2NIXVtjSF1jMmM1W0NAQF0xMzQ=

>  <s_epik_cmdline>  (16) 
J2VwaWtfcHl0aG9uJywgJy1waHQnLCAnMi4wJywgJy1waCcsICc3LjAnLCAnLXRuJywgJzgnLCAnLW1hJywgJzIwMCcsICctaW1hZScsICc8aW5maWxlLm1hZT4nLCAnLW9tYWUnLCAnPG91dGZpbGUubWFlPic=

>  <r_lp_tautomer_probability>  (16) 
1

>  <r_epik_Ionization_Penalty>  (16) 
0.0538835

>  <r_epik_Ionization_Penalty_Charging>  (16) 
0.0435257

>  <r_epik_Ionization_Penalty_Neutral>  (16) 
0.0103578

>  <r_epik_State_Penalty>  (16) 
0.0442752

>  <r_epik_Charging_Adjusted_Penalty>  (16) 
0.0878009

>  <i_epik_Tot_Q>  (16) 
1

>  <i_epik_Tot_abs_Q>  (16) 
1

>  <s_lp_Force_Field>  (16) 
OPLS3e

>  <r_lp_Energy>  (16) 
72.5615

>  <b_lp_Chiralities_Consistent>  (16) 
1

>  <s_lp_Variant>  (16) 
4:0-1

>  <s_i_glide_gridfile>  (16) 
pfpi4k_grid

>  <i_i_glide_lignum>  (16) 
6

>  <i_i_glide_rotatable_bonds>  (16) 
2

>  <r_i_docking_score>  (16) 
-3.7948

>  <r_i_glide_ligand_efficiency>  (16) 
-0.172491

>  <r_i_glide_ligand_efficiency_sa>  (16) 
-0.483327

>  <r_i_glide_ligand_efficiency_ln>  (16) 
-0.927588

>  <r_i_glide_gscore>  (16) 
-3.7948

>  <r_i_glide_lipo>  (16) 
-0.215701

>  <r_i_glide_hbond>  (16) 
-0.141988

>  <r_i_glide_metal>  (16) 
-0

>  <r_i_glide_rewards>  (16) 
-1.3611

>  <r_i_glide_evdw>  (16) 
-19.7574

>  <r_i_glide_ecoul>  (16) 
-7.04118

>  <r_i_glide_erotb>  (16) 
0

>  <r_i_glide_esite>  (16) 
-0.03197

>  <r_i_glide_emodel>  (16) 
-35.5129

>  <r_i_glide_energy>  (16) 
-26.7986

>  <r_i_glide_einternal>  (16) 
1.23974

>  <r_i_glide_intrahb_reward>  (16) 
-0

>  <i_i_glide_confnum>  (16) 
2

>  <i_i_glide_posenum>  (16) 
23

>  <r_i_glide_eff_state_penalty>  (16) 
0

>  <ligand_id>  (16) 
4

>  <original_smiles>  (16) 
CN1CCC23c4c5ccc(O)c4OC2CC(O)C=CC3C1C5

>  <smiles>  (16) 
[H]Oc1c([H])c([H])c2c3c1OC1([H])C([H])([H])C([H])(O[H])C([H])=C([H])C4([H])C31C([H])([H])C([H])([H])[N+]([H])(C([H])([H])[H])C4([H])C2([H])[H]

$$$$
4:0:1
     RDKit          3D

 44 48  0  0  1  0  0  0  0  0999 V2000
    4.2976  -12.5991    3.4528 C   0  0  0  0  0  0  0  0  0  0  0  0
    3.2818  -11.7212    4.0873 N   0  0  2  0  0  0  0  0  0  0  0  0
    2.2091  -11.3310    3.1222 C   0  0  0  0  0  0  0  0  0  0  0  0
    1.1769  -10.3386    3.7092 C   0  0  0  0  0  0  0  0  0  0  0  0
    1.9039   -9.1551    4.3923 C   0  0  1  0  0  0  0  0  0  0  0  0
    2.7630   -8.4923    3.3584 C   0  0  0  0  0  0  0  0  0  0  0  0
    4.1012   -8.7794    3.0686 C   0  0  0  0  0  0  0  0  0  0  0  0
    4.6458   -8.1351    1.9394 C   0  0  0  0  0  0  0  0  0  0  0  0
    3.8279   -7.2425    1.1935 C   0  0  0  0  0  0  0  0  0  0  0  0
    2.4974   -6.9329    1.5953 C   0  0  0  0  0  0  0  0  0  0  0  0
    1.7515   -6.0366    0.8827 O   0  0  0  0  0  0  0  0  0  0  0  0
    1.9544   -7.5528    2.7377 C   0  0  0  0  0  0  0  0  0  0  0  0
    0.7674   -7.3529    3.3961 O   0  0  0  0  0  0  0  0  0  0  0  0
    1.0315   -7.9135    4.6930 C   0  0  1  0  0  0  0  0  0  0  0  0
   -0.1135   -8.0776    5.6843 C   0  0  0  0  0  0  0  0  0  0  0  0
    0.3575   -8.5261    7.0994 C   0  0  1  0  0  0  0  0  0  0  0  0
   -0.0582   -9.8519    7.3324 O   0  0  0  0  0  0  0  0  0  0  0  0
    1.8540   -8.3579    7.4169 C   0  0  0  0  0  0  0  0  0  0  0  0
    2.8834   -8.9083    6.7350 C   0  0  0  0  0  0  0  0  0  0  0  0
    2.6691   -9.8215    5.5431 C   0  0  2  0  0  0  0  0  0  0  0  0
    3.8496  -10.5981    4.9138 C   0  0  2  0  0  0  0  0  0  0  0  0
    4.7889   -9.6705    4.0993 C   0  0  0  0  0  0  0  0  0  0  0  0
    4.7995  -12.1072    2.6176 H   0  0  0  0  0  0  0  0  0  0  0  0
    3.8240  -13.4915    3.0508 H   0  0  0  0  0  0  0  0  0  0  0  0
    5.0490  -12.9138    4.1750 H   0  0  0  0  0  0  0  0  0  0  0  0
    2.6621  -10.9053    2.2251 H   0  0  0  0  0  0  0  0  0  0  0  0
    1.6985  -12.2346    2.7987 H   0  0  0  0  0  0  0  0  0  0  0  0
    0.5220   -9.9957    2.9118 H   0  0  0  0  0  0  0  0  0  0  0  0
    0.5304  -10.8602    4.4181 H   0  0  0  0  0  0  0  0  0  0  0  0
    5.6743   -8.3217    1.6505 H   0  0  0  0  0  0  0  0  0  0  0  0
    4.2428   -6.7885    0.3103 H   0  0  0  0  0  0  0  0  0  0  0  0
    2.2305   -5.7020    0.1421 H   0  0  0  0  0  0  0  0  0  0  0  0
    1.6709   -7.1494    5.1463 H   0  0  0  0  0  0  0  0  0  0  0  0
   -0.5808   -7.0956    5.7740 H   0  0  0  0  0  0  0  0  0  0  0  0
   -0.8895   -8.7351    5.2920 H   0  0  0  0  0  0  0  0  0  0  0  0
   -0.1775   -7.9304    7.8382 H   0  0  0  0  0  0  0  0  0  0  0  0
    0.6280  -10.4650    7.0932 H   0  0  0  0  0  0  0  0  0  0  0  0
    2.0718   -7.7197    8.2639 H   0  0  0  0  0  0  0  0  0  0  0  0
    3.8988   -8.7296    7.0521 H   0  0  0  0  0  0  0  0  0  0  0  0
    2.0474  -10.5937    5.9987 H   0  0  0  0  0  0  0  0  0  0  0  0
    4.4288  -11.0688    5.7085 H   0  0  0  0  0  0  0  0  0  0  0  0
    5.5837  -10.2370    3.6156 H   0  0  0  0  0  0  0  0  0  0  0  0
    5.2983   -9.0166    4.8036 H   0  0  0  0  0  0  0  0  0  0  0  0
    2.8042  -12.3186    4.7619 H   0  0  0  0  0  0  0  0  0  0  0  0
  1  2  1  0
  1 23  1  0
  1 24  1  0
  1 25  1  0
  2 21  1  0
  2  3  1  0
  2 44  1  1
  3  4  1  0
  3 26  1  0
  3 27  1  0
  5  4  1  6
  4 28  1  0
  4 29  1  0
  5 14  1  0
  5 20  1  0
  5  6  1  0
  6 12  2  0
  6  7  1  0
  7 22  1  0
  7  8  2  0
  8  9  1  0
  8 30  1  0
  9 10  2  0
  9 31  1  0
 10 11  1  0
 10 12  1  0
 11 32  1  0
 12 13  1  0
 13 14  1  0
 14 15  1  0
 14 33  1  1
 15 16  1  0
 15 34  1  0
 15 35  1  0
 16 17  1  0
 16 18  1  0
 16 36  1  1
 17 37  1  0
 18 19  2  0
 18 38  1  0
 19 20  1  0
 19 39  1  0
 20 21  1  0
 20 40  1  1
 21 22  1  0
 21 41  1  1
 22 42  1  0
 22 43  1  0
M  CHG  1   2   1
M  END
>  <i_m_ct_stereo_status>  (17) 
1

>  <s_m_source_file>  (17) 
/var/tmp/pbs.5076255.sched01/tmp3_il56_a/09f63jmog.sdf

>  <i_m_source_file_index>  (17) 
6

>  <i_lp_mmshare_version>  (17) 
48012

>  <i_f3d_flags>  (17) 
0

>  <s_epik_input>  (17) 
W0NIMl0xW0NIMl1OKFtDSDNdKVtDQEBIXShbQ0gyXTIpW0NASF0zW0NIXT1bQ0hdW0NASF0oW09IXSlbQ0gyXVtDQEBIXTRPYzVjKFtPSF0pW2NIXVtjSF1jMmM1W0NAQF0xMzQ=

>  <s_epik_cmdline>  (17) 
J2VwaWtfcHl0aG9uJywgJy1waHQnLCAnMi4wJywgJy1waCcsICc3LjAnLCAnLXRuJywgJzgnLCAnLW1hJywgJzIwMCcsICctaW1hZScsICc8aW5maWxlLm1hZT4nLCAnLW9tYWUnLCAnPG91dGZpbGUubWFlPic=

>  <r_lp_tautomer_probability>  (17) 
1

>  <r_epik_Ionization_Penalty>  (17) 
0.0538835

>  <r_epik_Ionization_Penalty_Charging>  (17) 
0.0435257

>  <r_epik_Ionization_Penalty_Neutral>  (17) 
0.0103578

>  <r_epik_State_Penalty>  (17) 
0.0442752

>  <r_epik_Charging_Adjusted_Penalty>  (17) 
0.0878009

>  <i_epik_Tot_Q>  (17) 
1

>  <i_epik_Tot_abs_Q>  (17) 
1

>  <s_lp_Force_Field>  (17) 
OPLS3e

>  <r_lp_Energy>  (17) 
72.5615

>  <b_lp_Chiralities_Consistent>  (17) 
1

>  <s_lp_Variant>  (17) 
4:0-1

>  <s_i_glide_gridfile>  (17) 
pfpi4k_grid

>  <i_i_glide_lignum>  (17) 
6

>  <i_i_glide_rotatable_bonds>  (17) 
2

>  <r_i_docking_score>  (17) 
-3.794

>  <r_i_glide_ligand_efficiency>  (17) 
-0.172455

>  <r_i_glide_ligand_efficiency_sa>  (17) 
-0.483225

>  <r_i_glide_ligand_efficiency_ln>  (17) 
-0.927392

>  <r_i_glide_gscore>  (17) 
-3.794

>  <r_i_glide_lipo>  (17) 
-0.221219

>  <r_i_glide_hbond>  (17) 
-0.114861

>  <r_i_glide_metal>  (17) 
-0

>  <r_i_glide_rewards>  (17) 
-1.3611

>  <r_i_glide_evdw>  (17) 
-17.0952

>  <r_i_glide_ecoul>  (17) 
-8.11664

>  <r_i_glide_erotb>  (17) 
0

>  <r_i_glide_esite>  (17) 
-0.0245663

>  <r_i_glide_emodel>  (17) 
-34.1499

>  <r_i_glide_energy>  (17) 
-25.2118

>  <r_i_glide_einternal>  (17) 
0.55582

>  <r_i_glide_intrahb_reward>  (17) 
-0

>  <i_i_glide_confnum>  (17) 
2

>  <i_i_glide_posenum>  (17) 
22

>  <r_i_glide_eff_state_penalty>  (17) 
0

>  <ligand_id>  (17) 
4

>  <original_smiles>  (17) 
CN1CCC23c4c5ccc(O)c4OC2CC(O)C=CC3C1C5

>  <smiles>  (17) 
[H]Oc1c([H])c([H])c2c3c1OC1([H])C([H])([H])C([H])(O[H])C([H])=C([H])C4([H])C31C([H])([H])C([H])([H])[N+]([H])(C([H])([H])[H])C4([H])C2([H])[H]

$$$$
4:0:2
     RDKit          3D

 44 48  0  0  1  0  0  0  0  0999 V2000
    3.4021  -12.2140    5.0716 C   0  0  0  0  0  0  0  0  0  0  0  0
    2.4161  -11.2859    4.4646 N   0  0  2  0  0  0  0  0  0  0  0  0
    2.6711  -11.0859    3.0009 C   0  0  0  0  0  0  0  0  0  0  0  0
    1.7226  -10.0471    2.3493 C   0  0  0  0  0  0  0  0  0  0  0  0
    1.6829   -8.7493    3.1934 C   0  0  1  0  0  0  0  0  0  0  0  0
    3.0842   -8.2251    3.2813 C   0  0  0  0  0  0  0  0  0  0  0  0
    4.0263   -8.5090    4.2764 C   0  0  0  0  0  0  0  0  0  0  0  0
    5.3339   -8.0313    4.0472 C   0  0  0  0  0  0  0  0  0  0  0  0
    5.6067   -7.3001    2.8602 C   0  0  0  0  0  0  0  0  0  0  0  0
    4.5779   -6.9760    1.9331 C   0  0  0  0  0  0  0  0  0  0  0  0
    4.8536   -6.2223    0.8332 O   0  0  0  0  0  0  0  0  0  0  0  0
    3.2605   -7.4230    2.1682 C   0  0  0  0  0  0  0  0  0  0  0  0
    2.0860   -7.1572    1.5086 O   0  0  0  0  0  0  0  0  0  0  0  0
    1.0925   -7.5033    2.4872 C   0  0  1  0  0  0  0  0  0  0  0  0
   -0.3791   -7.5429    2.0832 C   0  0  0  0  0  0  0  0  0  0  0  0
   -1.3366   -7.7609    3.2910 C   0  0  1  0  0  0  0  0  0  0  0  0
   -1.8690   -9.0597    3.2195 O   0  0  0  0  0  0  0  0  0  0  0  0
   -0.7548   -7.4892    4.6868 C   0  0  0  0  0  0  0  0  0  0  0  0
    0.3102   -8.1100    5.2444 C   0  0  0  0  0  0  0  0  0  0  0  0
    1.0769   -9.2058    4.5274 C   0  0  2  0  0  0  0  0  0  0  0  0
    2.1610  -10.0325    5.2612 C   0  0  2  0  0  0  0  0  0  0  0  0
    3.4531   -9.2067    5.5054 C   0  0  0  0  0  0  0  0  0  0  0  0
    4.4216  -11.8351    4.9861 H   0  0  0  0  0  0  0  0  0  0  0  0
    3.3789  -13.1779    4.5707 H   0  0  0  0  0  0  0  0  0  0  0  0
    3.1810  -12.3772    6.1225 H   0  0  0  0  0  0  0  0  0  0  0  0
    3.7071  -10.7827    2.8450 H   0  0  0  0  0  0  0  0  0  0  0  0
    2.5831  -12.0435    2.4896 H   0  0  0  0  0  0  0  0  0  0  0  0
    2.0598   -9.8504    1.3332 H   0  0  0  0  0  0  0  0  0  0  0  0
    0.7209  -10.4736    2.2498 H   0  0  0  0  0  0  0  0  0  0  0  0
    6.1152   -8.2199    4.7730 H   0  0  0  0  0  0  0  0  0  0  0  0
    6.6147   -6.9671    2.6833 H   0  0  0  0  0  0  0  0  0  0  0  0
    5.7611   -5.9753    0.7720 H   0  0  0  0  0  0  0  0  0  0  0  0
    1.1538   -6.6577    3.1780 H   0  0  0  0  0  0  0  0  0  0  0  0
   -0.6062   -6.5828    1.6241 H   0  0  0  0  0  0  0  0  0  0  0  0
   -0.5551   -8.2682    1.2907 H   0  0  0  0  0  0  0  0  0  0  0  0
   -2.1843   -7.0885    3.1681 H   0  0  0  0  0  0  0  0  0  0  0  0
   -1.7947   -9.5270    4.0487 H   0  0  0  0  0  0  0  0  0  0  0  0
   -1.2663   -6.7206    5.2535 H   0  0  0  0  0  0  0  0  0  0  0  0
    0.6249   -7.8506    6.2435 H   0  0  0  0  0  0  0  0  0  0  0  0
    0.2713   -9.9169    4.3375 H   0  0  0  0  0  0  0  0  0  0  0  0
    1.7722  -10.3535    6.2259 H   0  0  0  0  0  0  0  0  0  0  0  0
    4.2296   -9.8118    5.9705 H   0  0  0  0  0  0  0  0  0  0  0  0
    3.2241   -8.4333    6.2362 H   0  0  0  0  0  0  0  0  0  0  0  0
    1.5331  -11.7911    4.5108 H   0  0  0  0  0  0  0  0  0  0  0  0
  1  2  1  0
  1 23  1  0
  1 24  1  0
  1 25  1  0
  2 21  1  0
  2  3  1  0
  2 44  1  6
  3  4  1  0
  3 26  1  0
  3 27  1  0
  5  4  1  6
  4 28  1  0
  4 29  1  0
  5 14  1  0
  5 20  1  0
  5  6  1  0
  6 12  2  0
  6  7  1  0
  7 22  1  0
  7  8  2  0
  8  9  1  0
  8 30  1  0
  9 10  2  0
  9 31  1  0
 10 11  1  0
 10 12  1  0
 11 32  1  0
 12 13  1  0
 13 14  1  0
 14 15  1  0
 14 33  1  1
 15 16  1  0
 15 34  1  0
 15 35  1  0
 16 17  1  0
 16 18  1  0
 16 36  1  6
 17 37  1  0
 18 19  2  0
 18 38  1  0
 19 20  1  0
 19 39  1  0
 20 21  1  0
 20 40  1  6
 21 22  1  0
 21 41  1  1
 22 42  1  0
 22 43  1  0
M  CHG  1   2   1
M  END
>  <i_m_ct_stereo_status>  (18) 
1

>  <s_m_source_file>  (18) 
/var/tmp/pbs.5076255.sched01/tmp3_il56_a/09f63jmog.sdf

>  <i_m_source_file_index>  (18) 
6

>  <i_lp_mmshare_version>  (18) 
48012

>  <i_f3d_flags>  (18) 
0

>  <s_epik_input>  (18) 
W0NIMl0xW0NIMl1OKFtDSDNdKVtDQEBIXShbQ0gyXTIpW0NASF0zW0NIXT1bQ0hdW0NASF0oW09IXSlbQ0gyXVtDQEBIXTRPYzVjKFtPSF0pW2NIXVtjSF1jMmM1W0NAQF0xMzQ=

>  <s_epik_cmdline>  (18) 
J2VwaWtfcHl0aG9uJywgJy1waHQnLCAnMi4wJywgJy1waCcsICc3LjAnLCAnLXRuJywgJzgnLCAnLW1hJywgJzIwMCcsICctaW1hZScsICc8aW5maWxlLm1hZT4nLCAnLW9tYWUnLCAnPG91dGZpbGUubWFlPic=

>  <r_lp_tautomer_probability>  (18) 
1

>  <r_epik_Ionization_Penalty>  (18) 
0.0538835

>  <r_epik_Ionization_Penalty_Charging>  (18) 
0.0435257

>  <r_epik_Ionization_Penalty_Neutral>  (18) 
0.0103578

>  <r_epik_State_Penalty>  (18) 
0.0442752

>  <r_epik_Charging_Adjusted_Penalty>  (18) 
0.0878009

>  <i_epik_Tot_Q>  (18) 
1

>  <i_epik_Tot_abs_Q>  (18) 
1

>  <s_lp_Force_Field>  (18) 
OPLS3e

>  <r_lp_Energy>  (18) 
72.5615

>  <b_lp_Chiralities_Consistent>  (18) 
1

>  <s_lp_Variant>  (18) 
4:0-1

>  <s_i_glide_gridfile>  (18) 
pfpi4k_grid

>  <i_i_glide_lignum>  (18) 
6

>  <i_i_glide_rotatable_bonds>  (18) 
2

>  <r_i_docking_score>  (18) 
-3.54722

>  <r_i_glide_ligand_efficiency>  (18) 
-0.161237

>  <r_i_glide_ligand_efficiency_sa>  (18) 
-0.451793

>  <r_i_glide_ligand_efficiency_ln>  (18) 
-0.86707

>  <r_i_glide_gscore>  (18) 
-3.54722

>  <r_i_glide_lipo>  (18) 
-0.169449

>  <r_i_glide_hbond>  (18) 
-0.156664

>  <r_i_glide_metal>  (18) 
-0

>  <r_i_glide_rewards>  (18) 
-1.3611

>  <r_i_glide_evdw>  (18) 
-19.3267

>  <r_i_glide_ecoul>  (18) 
-5.73478

>  <r_i_glide_erotb>  (18) 
0

>  <r_i_glide_esite>  (18) 
-0.0334556

>  <r_i_glide_emodel>  (18) 
-33.2192

>  <r_i_glide_energy>  (18) 
-25.0615

>  <r_i_glide_einternal>  (18) 
1.20967

>  <r_i_glide_intrahb_reward>  (18) 
-0

>  <i_i_glide_confnum>  (18) 
2

>  <i_i_glide_posenum>  (18) 
17

>  <r_i_glide_eff_state_penalty>  (18) 
0

>  <ligand_id>  (18) 
4

>  <original_smiles>  (18) 
CN1CCC23c4c5ccc(O)c4OC2CC(O)C=CC3C1C5

>  <smiles>  (18) 
[H]Oc1c([H])c([H])c2c3c1OC1([H])C([H])([H])C([H])(O[H])C([H])=C([H])C4([H])C31C([H])([H])C([H])([H])[N+]([H])(C([H])([H])[H])C4([H])C2([H])[H]

$$$$
4:1:0
     RDKit          3D

 43 47  0  0  1  0  0  0  0  0999 V2000
    8.2611   -2.1254    0.1886 C   0  0  0  0  0  0  0  0  0  0  0  0
    6.9932   -2.2120   -0.5186 N   0  0  0  0  0  0  0  0  0  0  0  0
    6.4714   -3.5943   -0.5044 C   0  0  0  0  0  0  0  0  0  0  0  0
    5.5152   -3.9329    0.6738 C   0  0  0  0  0  0  0  0  0  0  0  0
    4.4516   -2.8208    0.8213 C   0  0  1  0  0  0  0  0  0  0  0  0
    3.7029   -2.7322   -0.4759 C   0  0  0  0  0  0  0  0  0  0  0  0
    4.0047   -1.9164   -1.5741 C   0  0  0  0  0  0  0  0  0  0  0  0
    3.2067   -2.0830   -2.7177 C   0  0  0  0  0  0  0  0  0  0  0  0
    2.1815   -3.0586   -2.6978 C   0  0  0  0  0  0  0  0  0  0  0  0
    1.8793   -3.7861   -1.5161 C   0  0  0  0  0  0  0  0  0  0  0  0
    0.8467   -4.6637   -1.5202 O   0  0  0  0  0  0  0  0  0  0  0  0
    2.6458   -3.6149   -0.3495 C   0  0  0  0  0  0  0  0  0  0  0  0
    2.4960   -4.1149    0.9213 O   0  0  0  0  0  0  0  0  0  0  0  0
    3.2237   -3.1543    1.7050 C   0  0  1  0  0  0  0  0  0  0  0  0
    3.4582   -3.4118    3.1906 C   0  0  0  0  0  0  0  0  0  0  0  0
    4.0744   -2.1911    3.9344 C   0  0  1  0  0  0  0  0  0  0  0  0
    5.3942   -2.5094    4.2993 O   0  0  0  0  0  0  0  0  0  0  0  0
    4.0287   -0.8368    3.2057 C   0  0  0  0  0  0  0  0  0  0  0  0
    4.5373   -0.5650    1.9805 C   0  0  0  0  0  0  0  0  0  0  0  0
    5.2925   -1.5901    1.1651 C   0  0  2  0  0  0  0  0  0  0  0  0
    6.0395   -1.1578   -0.1121 C   0  0  2  0  0  0  0  0  0  0  0  0
    5.0983   -0.8904   -1.3106 C   0  0  0  0  0  0  0  0  0  0  0  0
    8.9952   -2.8242   -0.2208 H   0  0  0  0  0  0  0  0  0  0  0  0
    8.1097   -2.3718    1.2351 H   0  0  0  0  0  0  0  0  0  0  0  0
    8.6916   -1.1250    0.1057 H   0  0  0  0  0  0  0  0  0  0  0  0
    5.9412   -3.7745   -1.4406 H   0  0  0  0  0  0  0  0  0  0  0  0
    7.3045   -4.2914   -0.5008 H   0  0  0  0  0  0  0  0  0  0  0  0
    5.0457   -4.9038    0.4937 H   0  0  0  0  0  0  0  0  0  0  0  0
    6.0791   -4.0567    1.5986 H   0  0  0  0  0  0  0  0  0  0  0  0
    3.3709   -1.4732   -3.6002 H   0  0  0  0  0  0  0  0  0  0  0  0
    1.5828   -3.1933   -3.5853 H   0  0  0  0  0  0  0  0  0  0  0  0
    0.5020   -4.7432   -2.4337 H   0  0  0  0  0  0  0  0  0  0  0  0
    2.5456   -2.2970    1.6891 H   0  0  0  0  0  0  0  0  0  0  0  0
    2.4849   -3.6217    3.6347 H   0  0  0  0  0  0  0  0  0  0  0  0
    4.0426   -4.3193    3.3399 H   0  0  0  0  0  0  0  0  0  0  0  0
    3.5369   -2.0576    4.8723 H   0  0  0  0  0  0  0  0  0  0  0  0
    5.8791   -2.6887    3.5087 H   0  0  0  0  0  0  0  0  0  0  0  0
    3.5159   -0.0453    3.7360 H   0  0  0  0  0  0  0  0  0  0  0  0
    4.4369    0.4242    1.5566 H   0  0  0  0  0  0  0  0  0  0  0  0
    6.0601   -1.8668    1.8792 H   0  0  0  0  0  0  0  0  0  0  0  0
    6.6037   -0.2450    0.0846 H   0  0  0  0  0  0  0  0  0  0  0  0
    5.6637   -0.7685   -2.2299 H   0  0  0  0  0  0  0  0  0  0  0  0
    4.5971    0.0573   -1.1498 H   0  0  0  0  0  0  0  0  0  0  0  0
  1  2  1  0
  1 23  1  0
  1 24  1  0
  1 25  1  0
  2 21  1  0
  2  3  1  0
  3  4  1  0
  3 26  1  0
  3 27  1  0
  5  4  1  6
  4 28  1  0
  4 29  1  0
  5 14  1  0
  5 20  1  0
  5  6  1  0
  6 12  2  0
  6  7  1  0
  7 22  1  0
  7  8  2  0
  8  9  1  0
  8 30  1  0
  9 10  2  0
  9 31  1  0
 10 11  1  0
 10 12  1  0
 11 32  1  0
 12 13  1  0
 13 14  1  0
 14 15  1  0
 14 33  1  1
 15 16  1  0
 15 34  1  0
 15 35  1  0
 16 17  1  0
 16 18  1  0
 16 36  1  1
 17 37  1  0
 18 19  2  0
 18 38  1  0
 19 20  1  0
 19 39  1  0
 20 21  1  0
 20 40  1  1
 21 22  1  0
 21 41  1  1
 22 42  1  0
 22 43  1  0
M  END
>  <i_m_ct_stereo_status>  (19) 
1

>  <s_m_source_file>  (19) 
/var/tmp/pbs.5076255.sched01/tmp3_il56_a/09f63jmog.sdf

>  <i_m_source_file_index>  (19) 
7

>  <i_lp_mmshare_version>  (19) 
48012

>  <i_f3d_flags>  (19) 
0

>  <s_epik_input>  (19) 
W0NIMl0xW0NIMl1OKFtDSDNdKVtDQEBIXShbQ0gyXTIpW0NASF0zW0NIXT1bQ0hdW0NASF0oW09IXSlbQ0gyXVtDQEBIXTRPYzVjKFtPSF0pW2NIXVtjSF1jMmM1W0NAQF0xMzQ=

>  <s_epik_cmdline>  (19) 
J2VwaWtfcHl0aG9uJywgJy1waHQnLCAnMi4wJywgJy1waCcsICc3LjAnLCAnLXRuJywgJzgnLCAnLW1hJywgJzIwMCcsICctaW1hZScsICc8aW5maWxlLm1hZT4nLCAnLW9tYWUnLCAnPG91dGZpbGUubWFlPic=

>  <r_lp_tautomer_probability>  (19) 
1

>  <r_epik_Ionization_Penalty>  (19) 
1.57086

>  <r_epik_Ionization_Penalty_Charging>  (19) 
0

>  <r_epik_Ionization_Penalty_Neutral>  (19) 
1.57086

>  <r_epik_State_Penalty>  (19) 
1.67165

>  <r_epik_Charging_Adjusted_Penalty>  (19) 
1.67165

>  <i_epik_Tot_Q>  (19) 
0

>  <i_epik_Tot_abs_Q>  (19) 
0

>  <s_lp_Force_Field>  (19) 
OPLS3e

>  <r_lp_Energy>  (19) 
69.8009

>  <b_lp_Chiralities_Consistent>  (19) 
1

>  <s_lp_Variant>  (19) 
4:0-2

>  <s_i_glide_gridfile>  (19) 
pfpi4k_grid

>  <i_i_glide_lignum>  (19) 
7

>  <i_i_glide_rotatable_bonds>  (19) 
2

>  <r_i_docking_score>  (19) 
-4.07352

>  <r_i_glide_ligand_efficiency>  (19) 
-0.18516

>  <r_i_glide_ligand_efficiency_sa>  (19) 
-0.518825

>  <r_i_glide_ligand_efficiency_ln>  (19) 
-0.995716

>  <r_i_glide_gscore>  (19) 
-4.07352

>  <r_i_glide_lipo>  (19) 
-0.52176

>  <r_i_glide_hbond>  (19) 
-0.124169

>  <r_i_glide_metal>  (19) 
-0

>  <r_i_glide_rewards>  (19) 
-1.36797

>  <r_i_glide_evdw>  (19) 
-11.9019

>  <r_i_glide_ecoul>  (19) 
-9.76348

>  <r_i_glide_erotb>  (19) 
0

>  <r_i_glide_esite>  (19) 
0

>  <r_i_glide_emodel>  (19) 
-27.1466

>  <r_i_glide_energy>  (19) 
-21.6654

>  <r_i_glide_einternal>  (19) 
0.0394702

>  <r_i_glide_intrahb_reward>  (19) 
-0

>  <i_i_glide_confnum>  (19) 
1

>  <i_i_glide_posenum>  (19) 
37

>  <r_i_glide_eff_state_penalty>  (19) 
0

>  <ligand_id>  (19) 
4

>  <original_smiles>  (19) 
CN1CCC23c4c5ccc(O)c4OC2CC(O)C=CC3C1C5

>  <smiles>  (19) 
[H]Oc1c([H])c([H])c2c3c1OC1([H])C([H])([H])C([H])(O[H])C([H])=C([H])C4([H])C([H])(N(C([H])([H])[H])C([H])([H])C([H])([H])C314)C2([H])[H]

$$$$
4:1:1
     RDKit          3D

 43 47  0  0  1  0  0  0  0  0999 V2000
    4.7776   -2.3629    3.6960 C   0  0  0  0  0  0  0  0  0  0  0  0
    4.1972   -2.4770    2.3673 N   0  0  0  0  0  0  0  0  0  0  0  0
    4.5815   -1.3585    1.4919 C   0  0  0  0  0  0  0  0  0  0  0  0
    5.8548   -1.6063    0.6371 C   0  0  0  0  0  0  0  0  0  0  0  0
    5.7425   -2.9835   -0.0435 C   0  0  1  0  0  0  0  0  0  0  0  0
    4.5227   -2.9716   -0.9142 C   0  0  0  0  0  0  0  0  0  0  0  0
    3.2391   -3.4149   -0.5566 C   0  0  0  0  0  0  0  0  0  0  0  0
    2.2618   -3.2677   -1.5515 C   0  0  0  0  0  0  0  0  0  0  0  0
    2.5913   -2.6640   -2.8014 C   0  0  0  0  0  0  0  0  0  0  0  0
    3.9215   -2.2911   -3.1107 C   0  0  0  0  0  0  0  0  0  0  0  0
    4.2146   -1.7148   -4.3079 O   0  0  0  0  0  0  0  0  0  0  0  0
    4.9590   -2.4946   -2.1520 C   0  0  0  0  0  0  0  0  0  0  0  0
    6.3001   -2.3837   -2.2549 O   0  0  0  0  0  0  0  0  0  0  0  0
    6.7450   -3.2425   -1.1889 C   0  0  1  0  0  0  0  0  0  0  0  0
    8.2251   -3.3177   -0.8613 C   0  0  0  0  0  0  0  0  0  0  0  0
    8.5898   -4.4606    0.1229 C   0  0  1  0  0  0  0  0  0  0  0  0
    9.1042   -3.8891    1.2787 O   0  0  0  0  0  0  0  0  0  0  0  0
    7.5423   -5.5204    0.4893 C   0  0  0  0  0  0  0  0  0  0  0  0
    6.2561   -5.3254    0.8579 C   0  0  0  0  0  0  0  0  0  0  0  0
    5.7114   -3.9540    1.1418 C   0  0  2  0  0  0  0  0  0  0  0  0
    4.3293   -3.8367    1.8028 C   0  0  2  0  0  0  0  0  0  0  0  0
    3.1730   -4.0627    0.8179 C   0  0  0  0  0  0  0  0  0  0  0  0
    4.5306   -1.3967    4.1344 H   0  0  0  0  0  0  0  0  0  0  0  0
    5.8560   -2.4679    3.6768 H   0  0  0  0  0  0  0  0  0  0  0  0
    4.3654   -3.1354    4.3468 H   0  0  0  0  0  0  0  0  0  0  0  0
    3.7499   -1.1389    0.8193 H   0  0  0  0  0  0  0  0  0  0  0  0
    4.7306   -0.4576    2.0834 H   0  0  0  0  0  0  0  0  0  0  0  0
    5.9633   -0.8053   -0.0982 H   0  0  0  0  0  0  0  0  0  0  0  0
    6.7521   -1.5650    1.2623 H   0  0  0  0  0  0  0  0  0  0  0  0
    1.2310   -3.5332   -1.3517 H   0  0  0  0  0  0  0  0  0  0  0  0
    1.8159   -2.4516   -3.5057 H   0  0  0  0  0  0  0  0  0  0  0  0
    5.0790   -1.3732   -4.2901 H   0  0  0  0  0  0  0  0  0  0  0  0
    6.4615   -4.2322   -1.5385 H   0  0  0  0  0  0  0  0  0  0  0  0
    8.7636   -3.5037   -1.7869 H   0  0  0  0  0  0  0  0  0  0  0  0
    8.6046   -2.3604   -0.5195 H   0  0  0  0  0  0  0  0  0  0  0  0
    9.4019   -5.0330   -0.3013 H   0  0  0  0  0  0  0  0  0  0  0  0
    8.3426   -3.6104    1.7539 H   0  0  0  0  0  0  0  0  0  0  0  0
    7.8797   -6.5322    0.3068 H   0  0  0  0  0  0  0  0  0  0  0  0
    5.5924   -6.1648    0.9532 H   0  0  0  0  0  0  0  0  0  0  0  0
    6.4453   -3.6281    1.8785 H   0  0  0  0  0  0  0  0  0  0  0  0
    4.2233   -4.5568    2.6086 H   0  0  0  0  0  0  0  0  0  0  0  0
    2.2375   -3.7876    1.3040 H   0  0  0  0  0  0  0  0  0  0  0  0
    3.1069   -5.1305    0.6231 H   0  0  0  0  0  0  0  0  0  0  0  0
  1  2  1  0
  1 23  1  0
  1 24  1  0
  1 25  1  0
  2 21  1  0
  2  3  1  0
  3  4  1  0
  3 26  1  0
  3 27  1  0
  5  4  1  1
  4 28  1  0
  4 29  1  0
  5 14  1  0
  5 20  1  0
  5  6  1  0
  6 12  2  0
  6  7  1  0
  7 22  1  0
  7  8  2  0
  8  9  1  0
  8 30  1  0
  9 10  2  0
  9 31  1  0
 10 11  1  0
 10 12  1  0
 11 32  1  0
 12 13  1  0
 13 14  1  0
 14 15  1  0
 14 33  1  6
 15 16  1  0
 15 34  1  0
 15 35  1  0
 16 17  1  0
 16 18  1  0
 16 36  1  6
 17 37  1  0
 18 19  2  0
 18 38  1  0
 19 20  1  0
 19 39  1  0
 20 21  1  0
 20 40  1  1
 21 22  1  0
 21 41  1  1
 22 42  1  0
 22 43  1  0
M  END
>  <i_m_ct_stereo_status>  (20) 
1

>  <s_m_source_file>  (20) 
/var/tmp/pbs.5076255.sched01/tmp3_il56_a/09f63jmog.sdf

>  <i_m_source_file_index>  (20) 
7

>  <i_lp_mmshare_version>  (20) 
48012

>  <i_f3d_flags>  (20) 
0

>  <s_epik_input>  (20) 
W0NIMl0xW0NIMl1OKFtDSDNdKVtDQEBIXShbQ0gyXTIpW0NASF0zW0NIXT1bQ0hdW0NASF0oW09IXSlbQ0gyXVtDQEBIXTRPYzVjKFtPSF0pW2NIXVtjSF1jMmM1W0NAQF0xMzQ=

>  <s_epik_cmdline>  (20) 
J2VwaWtfcHl0aG9uJywgJy1waHQnLCAnMi4wJywgJy1waCcsICc3LjAnLCAnLXRuJywgJzgnLCAnLW1hJywgJzIwMCcsICctaW1hZScsICc8aW5maWxlLm1hZT4nLCAnLW9tYWUnLCAnPG91dGZpbGUubWFlPic=

>  <r_lp_tautomer_probability>  (20) 
1

>  <r_epik_Ionization_Penalty>  (20) 
1.57086

>  <r_epik_Ionization_Penalty_Charging>  (20) 
0

>  <r_epik_Ionization_Penalty_Neutral>  (20) 
1.57086

>  <r_epik_State_Penalty>  (20) 
1.67165

>  <r_epik_Charging_Adjusted_Penalty>  (20) 
1.67165

>  <i_epik_Tot_Q>  (20) 
0

>  <i_epik_Tot_abs_Q>  (20) 
0

>  <s_lp_Force_Field>  (20) 
OPLS3e

>  <r_lp_Energy>  (20) 
69.8009

>  <b_lp_Chiralities_Consistent>  (20) 
1

>  <s_lp_Variant>  (20) 
4:0-2

>  <s_i_glide_gridfile>  (20) 
pfpi4k_grid

>  <i_i_glide_lignum>  (20) 
7

>  <i_i_glide_rotatable_bonds>  (20) 
2

>  <r_i_docking_score>  (20) 
-3.4637

>  <r_i_glide_ligand_efficiency>  (20) 
-0.157441

>  <r_i_glide_ligand_efficiency_sa>  (20) 
-0.441155

>  <r_i_glide_ligand_efficiency_ln>  (20) 
-0.846654

>  <r_i_glide_gscore>  (20) 
-3.4637

>  <r_i_glide_lipo>  (20) 
-1.02049

>  <r_i_glide_hbond>  (20) 
-0.0288802

>  <r_i_glide_metal>  (20) 
-0

>  <r_i_glide_rewards>  (20) 
-1.36797

>  <r_i_glide_evdw>  (20) 
-20.9811

>  <r_i_glide_ecoul>  (20) 
0.0180269

>  <r_i_glide_erotb>  (20) 
0

>  <r_i_glide_esite>  (20) 
0

>  <r_i_glide_emodel>  (20) 
-24.9866

>  <r_i_glide_energy>  (20) 
-20.9631

>  <r_i_glide_einternal>  (20) 
0.437185

>  <r_i_glide_intrahb_reward>  (20) 
-0

>  <i_i_glide_confnum>  (20) 
2

>  <i_i_glide_posenum>  (20) 
2

>  <r_i_glide_eff_state_penalty>  (20) 
0

>  <ligand_id>  (20) 
4

>  <original_smiles>  (20) 
CN1CCC23c4c5ccc(O)c4OC2CC(O)C=CC3C1C5

>  <smiles>  (20) 
[H]Oc1c([H])c([H])c2c3c1OC1([H])C([H])([H])C([H])(O[H])C([H])=C([H])C4([H])C([H])(N(C([H])([H])[H])C([H])([H])C([H])([H])C314)C2([H])[H]

$$$$
4:1:2
     RDKit          3D

 43 47  0  0  1  0  0  0  0  0999 V2000
    5.0610   -3.8231   -2.8734 C   0  0  0  0  0  0  0  0  0  0  0  0
    4.6310   -2.8773   -1.8524 N   0  0  0  0  0  0  0  0  0  0  0  0
    3.1931   -3.0318   -1.5380 C   0  0  0  0  0  0  0  0  0  0  0  0
    2.8817   -4.0037   -0.3662 C   0  0  0  0  0  0  0  0  0  0  0  0
    3.7972   -3.6984    0.8411 C   0  0  1  0  0  0  0  0  0  0  0  0
    3.5533   -2.2813    1.2574 C   0  0  0  0  0  0  0  0  0  0  0  0
    4.2358   -1.1458    0.8096 C   0  0  0  0  0  0  0  0  0  0  0  0
    3.7365    0.0871    1.2705 C   0  0  0  0  0  0  0  0  0  0  0  0
    2.6078    0.1219    2.1340 C   0  0  0  0  0  0  0  0  0  0  0  0
    2.0092   -1.0766    2.6003 C   0  0  0  0  0  0  0  0  0  0  0  0
    0.9628   -1.0339    3.4736 O   0  0  0  0  0  0  0  0  0  0  0  0
    2.5172   -2.3214    2.1777 C   0  0  0  0  0  0  0  0  0  0  0  0
    2.2107   -3.5987    2.5834 O   0  0  0  0  0  0  0  0  0  0  0  0
    3.3871   -4.3329    2.1946 C   0  0  1  0  0  0  0  0  0  0  0  0
    3.4110   -5.8595    2.2974 C   0  0  0  0  0  0  0  0  0  0  0  0
    4.8254   -6.4716    2.0547 C   0  0  1  0  0  0  0  0  0  0  0  0
    4.8265   -7.1786    0.8340 O   0  0  0  0  0  0  0  0  0  0  0  0
    6.0233   -5.5053    2.1077 C   0  0  0  0  0  0  0  0  0  0  0  0
    6.1912   -4.3972    1.3495 C   0  0  0  0  0  0  0  0  0  0  0  0
    5.1974   -3.9765    0.2879 C   0  0  2  0  0  0  0  0  0  0  0  0
    5.5503   -2.8296   -0.6933 C   0  0  2  0  0  0  0  0  0  0  0  0
    5.4659   -1.4263   -0.0471 C   0  0  0  0  0  0  0  0  0  0  0  0
    4.4372   -3.7291   -3.7636 H   0  0  0  0  0  0  0  0  0  0  0  0
    5.0094   -4.8560   -2.5286 H   0  0  0  0  0  0  0  0  0  0  0  0
    6.0872   -3.6027   -3.1740 H   0  0  0  0  0  0  0  0  0  0  0  0
    2.7941   -2.0465   -1.2873 H   0  0  0  0  0  0  0  0  0  0  0  0
    2.6433   -3.3381   -2.4270 H   0  0  0  0  0  0  0  0  0  0  0  0
    1.8289   -3.9139   -0.1003 H   0  0  0  0  0  0  0  0  0  0  0  0
    3.0138   -5.0372   -0.6901 H   0  0  0  0  0  0  0  0  0  0  0  0
    4.2032    1.0034    0.9509 H   0  0  0  0  0  0  0  0  0  0  0  0
    2.2142    1.0732    2.4504 H   0  0  0  0  0  0  0  0  0  0  0  0
    0.6595   -1.9010    3.6868 H   0  0  0  0  0  0  0  0  0  0  0  0
    4.1074   -4.0109    2.9545 H   0  0  0  0  0  0  0  0  0  0  0  0
    3.1056   -6.1106    3.3130 H   0  0  0  0  0  0  0  0  0  0  0  0
    2.6589   -6.3064    1.6477 H   0  0  0  0  0  0  0  0  0  0  0  0
    5.0060   -7.2193    2.8285 H   0  0  0  0  0  0  0  0  0  0  0  0
    4.3272   -7.9739    0.9434 H   0  0  0  0  0  0  0  0  0  0  0  0
    6.7812   -5.7493    2.8372 H   0  0  0  0  0  0  0  0  0  0  0  0
    7.0714   -3.7847    1.4708 H   0  0  0  0  0  0  0  0  0  0  0  0
    5.1685   -4.8886   -0.3059 H   0  0  0  0  0  0  0  0  0  0  0  0
    6.5658   -2.9596   -1.0686 H   0  0  0  0  0  0  0  0  0  0  0  0
    5.5302   -0.6584   -0.8168 H   0  0  0  0  0  0  0  0  0  0  0  0
    6.3349   -1.2893    0.5945 H   0  0  0  0  0  0  0  0  0  0  0  0
  1  2  1  0
  1 23  1  0
  1 24  1  0
  1 25  1  0
  2 21  1  0
  2  3  1  0
  3  4  1  0
  3 26  1  0
  3 27  1  0
  5  4  1  6
  4 28  1  0
  4 29  1  0
  5 14  1  0
  5 20  1  0
  5  6  1  0
  6 12  2  0
  6  7  1  0
  7 22  1  0
  7  8  2  0
  8  9  1  0
  8 30  1  0
  9 10  2  0
  9 31  1  0
 10 11  1  0
 10 12  1  0
 11 32  1  0
 12 13  1  0
 13 14  1  0
 14 15  1  0
 14 33  1  1
 15 16  1  0
 15 34  1  0
 15 35  1  0
 16 17  1  0
 16 18  1  0
 16 36  1  1
 17 37  1  0
 18 19  2  0
 18 38  1  0
 19 20  1  0
 19 39  1  0
 20 21  1  0
 20 40  1  6
 21 22  1  0
 21 41  1  6
 22 42  1  0
 22 43  1  0
M  END
>  <i_m_ct_stereo_status>  (21) 
1

>  <s_m_source_file>  (21) 
/var/tmp/pbs.5076255.sched01/tmp3_il56_a/09f63jmog.sdf

>  <i_m_source_file_index>  (21) 
7

>  <i_lp_mmshare_version>  (21) 
48012

>  <i_f3d_flags>  (21) 
0

>  <s_epik_input>  (21) 
W0NIMl0xW0NIMl1OKFtDSDNdKVtDQEBIXShbQ0gyXTIpW0NASF0zW0NIXT1bQ0hdW0NASF0oW09IXSlbQ0gyXVtDQEBIXTRPYzVjKFtPSF0pW2NIXVtjSF1jMmM1W0NAQF0xMzQ=

>  <s_epik_cmdline>  (21) 
J2VwaWtfcHl0aG9uJywgJy1waHQnLCAnMi4wJywgJy1waCcsICc3LjAnLCAnLXRuJywgJzgnLCAnLW1hJywgJzIwMCcsICctaW1hZScsICc8aW5maWxlLm1hZT4nLCAnLW9tYWUnLCAnPG91dGZpbGUubWFlPic=

>  <r_lp_tautomer_probability>  (21) 
1

>  <r_epik_Ionization_Penalty>  (21) 
1.57086

>  <r_epik_Ionization_Penalty_Charging>  (21) 
0

>  <r_epik_Ionization_Penalty_Neutral>  (21) 
1.57086

>  <r_epik_State_Penalty>  (21) 
1.67165

>  <r_epik_Charging_Adjusted_Penalty>  (21) 
1.67165

>  <i_epik_Tot_Q>  (21) 
0

>  <i_epik_Tot_abs_Q>  (21) 
0

>  <s_lp_Force_Field>  (21) 
OPLS3e

>  <r_lp_Energy>  (21) 
69.8009

>  <b_lp_Chiralities_Consistent>  (21) 
1

>  <s_lp_Variant>  (21) 
4:0-2

>  <s_i_glide_gridfile>  (21) 
pfpi4k_grid

>  <i_i_glide_lignum>  (21) 
7

>  <i_i_glide_rotatable_bonds>  (21) 
2

>  <r_i_docking_score>  (21) 
-2.80897

>  <r_i_glide_ligand_efficiency>  (21) 
-0.127681

>  <r_i_glide_ligand_efficiency_sa>  (21) 
-0.357766

>  <r_i_glide_ligand_efficiency_ln>  (21) 
-0.686616

>  <r_i_glide_gscore>  (21) 
-2.80897

>  <r_i_glide_lipo>  (21) 
-0.287942

>  <r_i_glide_hbond>  (21) 
0

>  <r_i_glide_metal>  (21) 
-0

>  <r_i_glide_rewards>  (21) 
-1.36797

>  <r_i_glide_evdw>  (21) 
-21.0934

>  <r_i_glide_ecoul>  (21) 
-0.655939

>  <r_i_glide_erotb>  (21) 
0

>  <r_i_glide_esite>  (21) 
0

>  <r_i_glide_emodel>  (21) 
-25.268

>  <r_i_glide_energy>  (21) 
-21.7493

>  <r_i_glide_einternal>  (21) 
0.50332

>  <r_i_glide_intrahb_reward>  (21) 
-0

>  <i_i_glide_confnum>  (21) 
2

>  <i_i_glide_posenum>  (21) 
17

>  <r_i_glide_eff_state_penalty>  (21) 
0

>  <ligand_id>  (21) 
4

>  <original_smiles>  (21) 
CN1CCC23c4c5ccc(O)c4OC2CC(O)C=CC3C1C5

>  <smiles>  (21) 
[H]Oc1c([H])c([H])c2c3c1OC1([H])C([H])([H])C([H])(O[H])C([H])=C([H])C4([H])C([H])(N(C([H])([H])[H])C([H])([H])C([H])([H])C314)C2([H])[H]

$$$$
4:2:0
     RDKit          3D

 43 47  0  0  1  0  0  0  0  0999 V2000
    3.3164  -12.1868    5.0584 C   0  0  0  0  0  0  0  0  0  0  0  0
    2.3099  -11.2798    4.4588 N   0  0  2  0  0  0  0  0  0  0  0  0
    2.5440  -11.0979    2.9920 C   0  0  0  0  0  0  0  0  0  0  0  0
    1.5809  -10.0677    2.3445 C   0  0  0  0  0  0  0  0  0  0  0  0
    1.5552   -8.7611    3.1727 C   0  0  1  0  0  0  0  0  0  0  0  0
    2.9611   -8.2415    3.2336 C   0  0  0  0  0  0  0  0  0  0  0  0
    3.9165   -8.5146    4.2188 C   0  0  0  0  0  0  0  0  0  0  0  0
    5.2230   -8.0557    3.9594 C   0  0  0  0  0  0  0  0  0  0  0  0
    5.4769   -7.3502    2.7568 C   0  0  0  0  0  0  0  0  0  0  0  0
    4.4410   -7.0310    1.8388 C   0  0  0  0  0  0  0  0  0  0  0  0
    4.7167   -6.2980    0.7207 O   0  0  0  0  0  0  0  0  0  0  0  0
    3.1217   -7.4616    2.1024 C   0  0  0  0  0  0  0  0  0  0  0  0
    1.9353   -7.2002    1.4573 O   0  0  0  0  0  0  0  0  0  0  0  0
    0.9590   -7.5270    2.4566 C   0  0  1  0  0  0  0  0  0  0  0  0
   -0.5179   -7.5721    2.0750 C   0  0  0  0  0  0  0  0  0  0  0  0
   -1.4578   -7.7653    3.3024 C   0  0  1  0  0  0  0  0  0  0  0  0
   -2.0032   -9.0555    3.2646 O   0  0  0  0  0  0  0  0  0  0  0  0
   -0.8541   -7.4735    4.6823 C   0  0  0  0  0  0  0  0  0  0  0  0
    0.2166   -8.0920    5.2311 C   0  0  0  0  0  0  0  0  0  0  0  0
    0.9689   -9.2043    4.5189 C   0  0  2  0  0  0  0  0  0  0  0  0
    2.0647  -10.0208    5.2476 C   0  0  2  0  0  0  0  0  0  0  0  0
    3.3602   -9.1876    5.4642 C   0  0  0  0  0  0  0  0  0  0  0  0
    4.3355  -11.8062    4.9456 H   0  0  0  0  0  0  0  0  0  0  0  0
    3.2902  -13.1636    4.5733 H   0  0  0  0  0  0  0  0  0  0  0  0
    3.1212  -12.3369    6.1199 H   0  0  0  0  0  0  0  0  0  0  0  0
    3.5774  -10.7961    2.8083 H   0  0  0  0  0  0  0  0  0  0  0  0
    2.4489  -12.0637    2.4938 H   0  0  0  0  0  0  0  0  0  0  0  0
    1.9036   -9.8666    1.3200 H   0  0  0  0  0  0  0  0  0  0  0  0
    0.5810  -10.5008    2.2581 H   0  0  0  0  0  0  0  0  0  0  0  0
    6.0113   -8.2410    4.6745 H   0  0  0  0  0  0  0  0  0  0  0  0
    6.4816   -7.0244    2.5479 H   0  0  0  0  0  0  0  0  0  0  0  0
    1.0309   -6.6694    3.1305 H   0  0  0  0  0  0  0  0  0  0  0  0
   -0.7533   -6.6206    1.6013 H   0  0  0  0  0  0  0  0  0  0  0  0
   -0.7093   -8.3155    1.3016 H   0  0  0  0  0  0  0  0  0  0  0  0
   -2.3052   -7.0919    3.1788 H   0  0  0  0  0  0  0  0  0  0  0  0
   -1.8277   -9.5431    4.0738 H   0  0  0  0  0  0  0  0  0  0  0  0
   -1.3532   -6.6998    5.2444 H   0  0  0  0  0  0  0  0  0  0  0  0
    0.5482   -7.8178    6.2220 H   0  0  0  0  0  0  0  0  0  0  0  0
    0.1578   -9.9145    4.3520 H   0  0  0  0  0  0  0  0  0  0  0  0
    1.6890  -10.3311    6.2237 H   0  0  0  0  0  0  0  0  0  0  0  0
    4.1415   -9.7862    5.9321 H   0  0  0  0  0  0  0  0  0  0  0  0
    3.1377   -8.3989    6.1888 H   0  0  0  0  0  0  0  0  0  0  0  0
    1.4407  -11.7879    4.5263 H   0  0  0  0  0  0  0  0  0  0  0  0
  1  2  1  0
  1 23  1  0
  1 24  1  0
  1 25  1  0
  2 21  1  0
  2  3  1  0
  2 43  1  6
  3  4  1  0
  3 26  1  0
  3 27  1  0
  5  4  1  6
  4 28  1  0
  4 29  1  0
  5 14  1  0
  5 20  1  0
  5  6  1  0
  6 12  2  0
  6  7  1  0
  7 22  1  0
  7  8  2  0
  8  9  1  0
  8 30  1  0
  9 10  2  0
  9 31  1  0
 10 11  1  0
 10 12  1  0
 12 13  1  0
 13 14  1  0
 14 15  1  0
 14 32  1  1
 15 16  1  0
 15 33  1  0
 15 34  1  0
 16 17  1  0
 16 18  1  0
 16 35  1  6
 17 36  1  0
 18 19  2  0
 18 37  1  0
 19 20  1  0
 19 38  1  0
 20 21  1  0
 20 39  1  6
 21 22  1  0
 21 40  1  1
 22 41  1  0
 22 42  1  0
M  CHG  2   2   1  11  -1
M  END
>  <i_m_ct_stereo_status>  (22) 
1

>  <s_m_source_file>  (22) 
/var/tmp/pbs.5076255.sched01/tmp3_il56_a/09f63jmog.sdf

>  <i_m_source_file_index>  (22) 
8

>  <i_lp_mmshare_version>  (22) 
48012

>  <i_f3d_flags>  (22) 
0

>  <s_epik_input>  (22) 
W0NIMl0xW0NIMl1OKFtDSDNdKVtDQEBIXShbQ0gyXTIpW0NASF0zW0NIXT1bQ0hdW0NASF0oW09IXSlbQ0gyXVtDQEBIXTRPYzVjKFtPSF0pW2NIXVtjSF1jMmM1W0NAQF0xMzQ=

>  <s_epik_cmdline>  (22) 
J2VwaWtfcHl0aG9uJywgJy1waHQnLCAnMi4wJywgJy1waCcsICc3LjAnLCAnLXRuJywgJzgnLCAnLW1hJywgJzIwMCcsICctaW1hZScsICc8aW5maWxlLm1hZT4nLCAnLW9tYWUnLCAnPG91dGZpbGUubWFlPic=

>  <r_epik_Ionization_Penalty>  (22) 
2.44179

>  <r_epik_Ionization_Penalty_Charging>  (22) 
2.44179

>  <r_epik_Ionization_Penalty_Neutral>  (22) 
2.34423e-07

>  <r_epik_State_Penalty>  (22) 
2.59713

>  <r_epik_Charging_Adjusted_Penalty>  (22) 
5.03892

>  <i_epik_Tot_Q>  (22) 
0

>  <i_epik_Tot_abs_Q>  (22) 
2

>  <s_lp_Force_Field>  (22) 
OPLS3e

>  <r_lp_Energy>  (22) 
70.589

>  <b_lp_Chiralities_Consistent>  (22) 
1

>  <s_lp_Variant>  (22) 
4:0-3

>  <s_i_glide_gridfile>  (22) 
pfpi4k_grid

>  <i_i_glide_lignum>  (22) 
8

>  <i_i_glide_rotatable_bonds>  (22) 
1

>  <r_i_docking_score>  (22) 
-3.44034

>  <r_i_glide_ligand_efficiency>  (22) 
-0.156379

>  <r_i_glide_ligand_efficiency_sa>  (22) 
-0.43818

>  <r_i_glide_ligand_efficiency_ln>  (22) 
-0.840945

>  <r_i_glide_gscore>  (22) 
-3.44034

>  <r_i_glide_lipo>  (22) 
-0.191139

>  <r_i_glide_hbond>  (22) 
-0.149309

>  <r_i_glide_metal>  (22) 
-0

>  <r_i_glide_rewards>  (22) 
-1.36797

>  <r_i_glide_evdw>  (22) 
-18.094

>  <r_i_glide_ecoul>  (22) 
-5.28423

>  <r_i_glide_erotb>  (22) 
0

>  <r_i_glide_esite>  (22) 
-0.0345846

>  <r_i_glide_emodel>  (22) 
-30.4692

>  <r_i_glide_energy>  (22) 
-23.3783

>  <r_i_glide_einternal>  (22) 
1.19938

>  <r_i_glide_intrahb_reward>  (22) 
-0

>  <i_i_glide_confnum>  (22) 
1

>  <i_i_glide_posenum>  (22) 
1

>  <r_i_glide_eff_state_penalty>  (22) 
0

>  <ligand_id>  (22) 
4

>  <original_smiles>  (22) 
CN1CCC23c4c5ccc(O)c4OC2CC(O)C=CC3C1C5

>  <smiles>  (22) 
[H]OC1([H])C([H])=C([H])C2([H])C34c5c(c([O-])c([H])c([H])c5C([H])([H])C2([H])[N+]([H])(C([H])([H])[H])C([H])([H])C3([H])[H])OC4([H])C1([H])[H]

$$$$
4:2:1
     RDKit          3D

 43 47  0  0  1  0  0  0  0  0999 V2000
    5.8726   -5.0313    4.9579 C   0  0  0  0  0  0  0  0  0  0  0  0
    5.5265   -4.2948    3.7209 N   0  0  2  0  0  0  0  0  0  0  0  0
    4.1097   -3.8383    3.7150 C   0  0  0  0  0  0  0  0  0  0  0  0
    3.7032   -3.1354    2.3960 C   0  0  0  0  0  0  0  0  0  0  0  0
    4.1416   -3.9946    1.1797 C   0  0  1  0  0  0  0  0  0  0  0  0
    3.4994   -5.3438    1.3247 C   0  0  0  0  0  0  0  0  0  0  0  0
    4.0249   -6.4769    1.9627 C   0  0  0  0  0  0  0  0  0  0  0  0
    3.1494   -7.5627    2.1279 C   0  0  0  0  0  0  0  0  0  0  0  0
    1.8159   -7.4447    1.6652 C   0  0  0  0  0  0  0  0  0  0  0  0
    1.3684   -6.2940    0.9552 C   0  0  0  0  0  0  0  0  0  0  0  0
    0.0824   -6.2615    0.5030 O   0  0  0  0  0  0  0  0  0  0  0  0
    2.2678   -5.2283    0.7215 C   0  0  0  0  0  0  0  0  0  0  0  0
    2.1577   -4.0782   -0.0304 O   0  0  0  0  0  0  0  0  0  0  0  0
    3.4983   -3.6295   -0.1765 C   0  0  1  0  0  0  0  0  0  0  0  0
    3.7539   -2.2370   -0.7481 C   0  0  0  0  0  0  0  0  0  0  0  0
    5.2616   -1.9822   -1.0411 C   0  0  1  0  0  0  0  0  0  0  0  0
    5.7789   -1.0485   -0.1195 O   0  0  0  0  0  0  0  0  0  0  0  0
    6.1608   -3.2287   -1.0765 C   0  0  0  0  0  0  0  0  0  0  0  0
    6.3385   -4.1202   -0.0699 C   0  0  0  0  0  0  0  0  0  0  0  0
    5.6643   -3.9899    1.2803 C   0  0  2  0  0  0  0  0  0  0  0  0
    6.0315   -4.9253    2.4567 C   0  0  2  0  0  0  0  0  0  0  0  0
    5.5074   -6.3674    2.2634 C   0  0  0  0  0  0  0  0  0  0  0  0
    5.2700   -5.9317    5.0762 H   0  0  0  0  0  0  0  0  0  0  0  0
    5.6948   -4.4129    5.8372 H   0  0  0  0  0  0  0  0  0  0  0  0
    6.9230   -5.3216    4.9732 H   0  0  0  0  0  0  0  0  0  0  0  0
    3.4491   -4.6820    3.9029 H   0  0  0  0  0  0  0  0  0  0  0  0
    3.9496   -3.1632    4.5530 H   0  0  0  0  0  0  0  0  0  0  0  0
    2.6237   -2.9693    2.4034 H   0  0  0  0  0  0  0  0  0  0  0  0
    4.1476   -2.1381    2.3557 H   0  0  0  0  0  0  0  0  0  0  0  0
    3.4914   -8.4750    2.6056 H   0  0  0  0  0  0  0  0  0  0  0  0
    1.1322   -8.2673    1.8029 H   0  0  0  0  0  0  0  0  0  0  0  0
    3.8537   -4.3207   -0.9425 H   0  0  0  0  0  0  0  0  0  0  0  0
    3.2007   -2.1817   -1.6873 H   0  0  0  0  0  0  0  0  0  0  0  0
    3.3116   -1.4593   -0.1252 H   0  0  0  0  0  0  0  0  0  0  0  0
    5.3272   -1.5088   -2.0212 H   0  0  0  0  0  0  0  0  0  0  0  0
    5.1366   -0.3579   -0.0105 H   0  0  0  0  0  0  0  0  0  0  0  0
    6.6712   -3.3980   -2.0133 H   0  0  0  0  0  0  0  0  0  0  0  0
    6.9937   -4.9653   -0.2067 H   0  0  0  0  0  0  0  0  0  0  0  0
    6.0183   -2.9999    1.5651 H   0  0  0  0  0  0  0  0  0  0  0  0
    7.1164   -4.9891    2.5237 H   0  0  0  0  0  0  0  0  0  0  0  0
    5.7303   -6.9946    3.1235 H   0  0  0  0  0  0  0  0  0  0  0  0
    6.0397   -6.8228    1.4271 H   0  0  0  0  0  0  0  0  0  0  0  0
    6.0511   -3.4397    3.7860 H   0  0  0  0  0  0  0  0  0  0  0  0
  1  2  1  0
  1 23  1  0
  1 24  1  0
  1 25  1  0
  2 21  1  0
  2  3  1  0
  2 43  1  1
  3  4  1  0
  3 26  1  0
  3 27  1  0
  5  4  1  1
  4 28  1  0
  4 29  1  0
  5 14  1  0
  5 20  1  0
  5  6  1  0
  6 12  2  0
  6  7  1  0
  7 22  1  0
  7  8  2  0
  8  9  1  0
  8 30  1  0
  9 10  2  0
  9 31  1  0
 10 11  1  0
 10 12  1  0
 12 13  1  0
 13 14  1  0
 14 15  1  0
 14 32  1  6
 15 16  1  0
 15 33  1  0
 15 34  1  0
 16 17  1  0
 16 18  1  0
 16 35  1  6
 17 36  1  0
 18 19  2  0
 18 37  1  0
 19 20  1  0
 19 38  1  0
 20 21  1  0
 20 39  1  1
 21 22  1  0
 21 40  1  1
 22 41  1  0
 22 42  1  0
M  CHG  2   2   1  11  -1
M  END
>  <i_m_ct_stereo_status>  (23) 
1

>  <s_m_source_file>  (23) 
/var/tmp/pbs.5076255.sched01/tmp3_il56_a/09f63jmog.sdf

>  <i_m_source_file_index>  (23) 
8

>  <i_lp_mmshare_version>  (23) 
48012

>  <i_f3d_flags>  (23) 
0

>  <s_epik_input>  (23) 
W0NIMl0xW0NIMl1OKFtDSDNdKVtDQEBIXShbQ0gyXTIpW0NASF0zW0NIXT1bQ0hdW0NASF0oW09IXSlbQ0gyXVtDQEBIXTRPYzVjKFtPSF0pW2NIXVtjSF1jMmM1W0NAQF0xMzQ=

>  <s_epik_cmdline>  (23) 
J2VwaWtfcHl0aG9uJywgJy1waHQnLCAnMi4wJywgJy1waCcsICc3LjAnLCAnLXRuJywgJzgnLCAnLW1hJywgJzIwMCcsICctaW1hZScsICc8aW5maWxlLm1hZT4nLCAnLW9tYWUnLCAnPG91dGZpbGUubWFlPic=

>  <r_epik_Ionization_Penalty>  (23) 
2.44179

>  <r_epik_Ionization_Penalty_Charging>  (23) 
2.44179

>  <r_epik_Ionization_Penalty_Neutral>  (23) 
2.34423e-07

>  <r_epik_State_Penalty>  (23) 
2.59713

>  <r_epik_Charging_Adjusted_Penalty>  (23) 
5.03892

>  <i_epik_Tot_Q>  (23) 
0

>  <i_epik_Tot_abs_Q>  (23) 
2

>  <s_lp_Force_Field>  (23) 
OPLS3e

>  <r_lp_Energy>  (23) 
70.589

>  <b_lp_Chiralities_Consistent>  (23) 
1

>  <s_lp_Variant>  (23) 
4:0-3

>  <s_i_glide_gridfile>  (23) 
pfpi4k_grid

>  <i_i_glide_lignum>  (23) 
8

>  <i_i_glide_rotatable_bonds>  (23) 
1

>  <r_i_docking_score>  (23) 
-3.41552

>  <r_i_glide_ligand_efficiency>  (23) 
-0.155251

>  <r_i_glide_ligand_efficiency_sa>  (23) 
-0.435019

>  <r_i_glide_ligand_efficiency_ln>  (23) 
-0.834878

>  <r_i_glide_gscore>  (23) 
-3.41552

>  <r_i_glide_lipo>  (23) 
-0.336002

>  <r_i_glide_hbond>  (23) 
-0.226389

>  <r_i_glide_metal>  (23) 
-0

>  <r_i_glide_rewards>  (23) 
-1.36797

>  <r_i_glide_evdw>  (23) 
-14.2808

>  <r_i_glide_ecoul>  (23) 
-5.14079

>  <r_i_glide_erotb>  (23) 
0

>  <r_i_glide_esite>  (23) 
0

>  <r_i_glide_emodel>  (23) 
-26.7672

>  <r_i_glide_energy>  (23) 
-19.4216

>  <r_i_glide_einternal>  (23) 
0.62762

>  <r_i_glide_intrahb_reward>  (23) 
-0

>  <i_i_glide_confnum>  (23) 
1

>  <i_i_glide_posenum>  (23) 
37

>  <r_i_glide_eff_state_penalty>  (23) 
0

>  <ligand_id>  (23) 
4

>  <original_smiles>  (23) 
CN1CCC23c4c5ccc(O)c4OC2CC(O)C=CC3C1C5

>  <smiles>  (23) 
[H]OC1([H])C([H])=C([H])C2([H])C34c5c(c([O-])c([H])c([H])c5C([H])([H])C2([H])[N+]([H])(C([H])([H])[H])C([H])([H])C3([H])[H])OC4([H])C1([H])[H]

$$$$
4:2:2
     RDKit          3D

 43 47  0  0  1  0  0  0  0  0999 V2000
    3.2715  -12.1890    4.7292 C   0  0  0  0  0  0  0  0  0  0  0  0
    2.3378  -11.2343    4.0815 N   0  0  2  0  0  0  0  0  0  0  0  0
    2.8787  -10.7373    2.7765 C   0  0  0  0  0  0  0  0  0  0  0  0
    1.9826   -9.6638    2.1060 C   0  0  0  0  0  0  0  0  0  0  0  0
    1.6270   -8.5573    3.1313 C   0  0  1  0  0  0  0  0  0  0  0  0
    2.9161   -7.9745    3.6332 C   0  0  0  0  0  0  0  0  0  0  0  0
    3.6422   -8.3871    4.7560 C   0  0  0  0  0  0  0  0  0  0  0  0
    4.9154   -7.8038    4.9123 C   0  0  0  0  0  0  0  0  0  0  0  0
    5.3612   -6.8489    3.9619 C   0  0  0  0  0  0  0  0  0  0  0  0
    4.5333   -6.4112    2.8959 C   0  0  0  0  0  0  0  0  0  0  0  0
    4.9733   -5.4485    2.0378 O   0  0  0  0  0  0  0  0  0  0  0  0
    3.2446   -6.9707    2.7416 C   0  0  0  0  0  0  0  0  0  0  0  0
    2.2186   -6.6556    1.8819 O   0  0  0  0  0  0  0  0  0  0  0  0
    1.0790   -7.2371    2.5363 C   0  0  1  0  0  0  0  0  0  0  0  0
   -0.2555   -7.2858    1.8000 C   0  0  0  0  0  0  0  0  0  0  0  0
   -1.4274   -7.7884    2.6921 C   0  0  1  0  0  0  0  0  0  0  0  0
   -1.8146   -9.0749    2.2769 O   0  0  0  0  0  0  0  0  0  0  0  0
   -1.1940   -7.7639    4.2110 C   0  0  0  0  0  0  0  0  0  0  0  0
   -0.2123   -8.4073    4.8846 C   0  0  0  0  0  0  0  0  0  0  0  0
    0.8003   -9.3006    4.1907 C   0  0  2  0  0  0  0  0  0  0  0  0
    1.7834  -10.1808    5.0048 C   0  0  2  0  0  0  0  0  0  0  0  0
    2.8937   -9.3351    5.6842 C   0  0  0  0  0  0  0  0  0  0  0  0
    4.2398  -11.7307    4.9333 H   0  0  0  0  0  0  0  0  0  0  0  0
    3.4498  -13.0423    4.0738 H   0  0  0  0  0  0  0  0  0  0  0  0
    2.8665  -12.5658    5.6679 H   0  0  0  0  0  0  0  0  0  0  0  0
    3.8872  -10.3492    2.9092 H   0  0  0  0  0  0  0  0  0  0  0  0
    3.0033  -11.5863    2.1002 H   0  0  0  0  0  0  0  0  0  0  0  0
    2.5046   -9.2527    1.2417 H   0  0  0  0  0  0  0  0  0  0  0  0
    1.0832  -10.1333    1.7061 H   0  0  0  0  0  0  0  0  0  0  0  0
    5.5364   -8.0843    5.7510 H   0  0  0  0  0  0  0  0  0  0  0  0
    6.3467   -6.4257    4.0741 H   0  0  0  0  0  0  0  0  0  0  0  0
    0.9028   -6.5320    3.3537 H   0  0  0  0  0  0  0  0  0  0  0  0
   -0.4807   -6.2754    1.4695 H   0  0  0  0  0  0  0  0  0  0  0  0
   -0.1709   -7.8554    0.8776 H   0  0  0  0  0  0  0  0  0  0  0  0
   -2.2924   -7.1578    2.4962 H   0  0  0  0  0  0  0  0  0  0  0  0
   -1.0641   -9.6474    2.3296 H   0  0  0  0  0  0  0  0  0  0  0  0
   -1.8907   -7.1595    4.7733 H   0  0  0  0  0  0  0  0  0  0  0  0
   -0.1502   -8.3250    5.9604 H   0  0  0  0  0  0  0  0  0  0  0  0
    0.1292  -10.0108    3.7086 H   0  0  0  0  0  0  0  0  0  0  0  0
    1.2269  -10.7077    5.7837 H   0  0  0  0  0  0  0  0  0  0  0  0
    3.6129   -9.9644    6.2063 H   0  0  0  0  0  0  0  0  0  0  0  0
    2.4360   -8.7263    6.4642 H   0  0  0  0  0  0  0  0  0  0  0  0
    1.5357  -11.7955    3.8281 H   0  0  0  0  0  0  0  0  0  0  0  0
  1  2  1  0
  1 23  1  0
  1 24  1  0
  1 25  1  0
  2 21  1  0
  2  3  1  0
  2 43  1  6
  3  4  1  0
  3 26  1  0
  3 27  1  0
  5  4  1  6
  4 28  1  0
  4 29  1  0
  5 14  1  0
  5 20  1  0
  5  6  1  0
  6 12  2  0
  6  7  1  0
  7 22  1  0
  7  8  2  0
  8  9  1  0
  8 30  1  0
  9 10  2  0
  9 31  1  0
 10 11  1  0
 10 12  1  0
 12 13  1  0
 13 14  1  0
 14 15  1  0
 14 32  1  1
 15 16  1  0
 15 33  1  0
 15 34  1  0
 16 17  1  0
 16 18  1  0
 16 35  1  1
 17 36  1  0
 18 19  2  0
 18 37  1  0
 19 20  1  0
 19 38  1  0
 20 21  1  0
 20 39  1  6
 21 22  1  0
 21 40  1  1
 22 41  1  0
 22 42  1  0
M  CHG  2   2   1  11  -1
M  END
>  <i_m_ct_stereo_status>  (24) 
1

>  <s_m_source_file>  (24) 
/var/tmp/pbs.5076255.sched01/tmp3_il56_a/09f63jmog.sdf

>  <i_m_source_file_index>  (24) 
8

>  <i_lp_mmshare_version>  (24) 
48012

>  <i_f3d_flags>  (24) 
0

>  <s_epik_input>  (24) 
W0NIMl0xW0NIMl1OKFtDSDNdKVtDQEBIXShbQ0gyXTIpW0NASF0zW0NIXT1bQ0hdW0NASF0oW09IXSlbQ0gyXVtDQEBIXTRPYzVjKFtPSF0pW2NIXVtjSF1jMmM1W0NAQF0xMzQ=

>  <s_epik_cmdline>  (24) 
J2VwaWtfcHl0aG9uJywgJy1waHQnLCAnMi4wJywgJy1waCcsICc3LjAnLCAnLXRuJywgJzgnLCAnLW1hJywgJzIwMCcsICctaW1hZScsICc8aW5maWxlLm1hZT4nLCAnLW9tYWUnLCAnPG91dGZpbGUubWFlPic=

>  <r_epik_Ionization_Penalty>  (24) 
2.44179

>  <r_epik_Ionization_Penalty_Charging>  (24) 
2.44179

>  <r_epik_Ionization_Penalty_Neutral>  (24) 
2.34423e-07

>  <r_epik_State_Penalty>  (24) 
2.59713

>  <r_epik_Charging_Adjusted_Penalty>  (24) 
5.03892

>  <i_epik_Tot_Q>  (24) 
0

>  <i_epik_Tot_abs_Q>  (24) 
2

>  <s_lp_Force_Field>  (24) 
OPLS3e

>  <r_lp_Energy>  (24) 
70.589

>  <b_lp_Chiralities_Consistent>  (24) 
1

>  <s_lp_Variant>  (24) 
4:0-3

>  <s_i_glide_gridfile>  (24) 
pfpi4k_grid

>  <i_i_glide_lignum>  (24) 
8

>  <i_i_glide_rotatable_bonds>  (24) 
1

>  <r_i_docking_score>  (24) 
-2.86829

>  <r_i_glide_ligand_efficiency>  (24) 
-0.130377

>  <r_i_glide_ligand_efficiency_sa>  (24) 
-0.365321

>  <r_i_glide_ligand_efficiency_ln>  (24) 
-0.701114

>  <r_i_glide_gscore>  (24) 
-2.86829

>  <r_i_glide_lipo>  (24) 
-0.0815068

>  <r_i_glide_hbond>  (24) 
0

>  <r_i_glide_metal>  (24) 
-0

>  <r_i_glide_rewards>  (24) 
-1.36797

>  <r_i_glide_evdw>  (24) 
-19.0929

>  <r_i_glide_ecoul>  (24) 
-3.00497

>  <r_i_glide_erotb>  (24) 
0

>  <r_i_glide_esite>  (24) 
-0.0134223

>  <r_i_glide_emodel>  (24) 
-28.5681

>  <r_i_glide_energy>  (24) 
-22.0978

>  <r_i_glide_einternal>  (24) 
0.00823533

>  <r_i_glide_intrahb_reward>  (24) 
-0

>  <i_i_glide_confnum>  (24) 
2

>  <i_i_glide_posenum>  (24) 
6

>  <r_i_glide_eff_state_penalty>  (24) 
0

>  <ligand_id>  (24) 
4

>  <original_smiles>  (24) 
CN1CCC23c4c5ccc(O)c4OC2CC(O)C=CC3C1C5

>  <smiles>  (24) 
[H]OC1([H])C([H])=C([H])C2([H])C34c5c(c([O-])c([H])c([H])c5C([H])([H])C2([H])[N+]([H])(C([H])([H])[H])C([H])([H])C3([H])[H])OC4([H])C1([H])[H]

$$$$
5:0:0
     RDKit          3D

 87 91  0  0  1  0  0  0  0  0999 V2000
    2.9161   -7.4022    2.9962 C   0  0  0  0  0  0  0  0  0  0  0  0
    2.4806   -6.6374    1.9857 C   0  0  0  0  0  0  0  0  0  0  0  0
    1.0440   -6.8182    1.5095 C   0  0  0  0  0  0  0  0  0  0  0  0
    3.3411   -5.6172    1.1921 C   0  0  2  0  0  0  0  0  0  0  0  0
    4.8554   -5.6813    1.4830 C   0  0  0  0  0  0  0  0  0  0  0  0
    5.2479   -5.0011    2.8148 C   0  0  0  0  0  0  0  0  0  0  0  0
    4.7525   -3.5440    2.9586 C   0  0  2  0  0  0  0  0  0  0  0  0
    5.5896   -2.6166    2.0492 C   0  0  0  0  0  0  0  0  0  0  0  0
    4.9534   -3.1468    4.4330 C   0  0  0  0  0  0  0  0  0  0  0  0
    4.4452   -1.7354    4.7337 C   0  0  0  0  0  0  0  0  0  0  0  0
    2.9324   -1.4996    4.4020 C   0  0  2  0  0  0  0  0  0  0  0  0
    2.1237   -2.2933    5.4668 C   0  0  0  0  0  0  0  0  0  0  0  0
    2.5729   -2.1055    3.0159 C   0  0  0  0  0  0  0  0  0  0  0  0
    1.6849   -1.4700    2.2105 C   0  0  0  0  0  0  0  0  0  0  0  0
    0.9718   -0.1559    2.5012 C   0  0  0  0  0  0  0  0  0  0  0  0
    1.1358    0.3449    3.9564 C   0  0  2  0  0  0  0  0  0  0  0  0
    0.4321    1.7351    4.3907 C   0  0  2  0  0  0  0  0  0  0  0  0
   -0.6217    1.3724    5.4804 C   0  0  0  0  0  0  0  0  0  0  0  0
   -0.2941    2.4701    3.2032 C   0  0  1  0  0  0  0  0  0  0  0  0
   -1.3859    1.7367    2.6902 O   0  0  0  0  0  0  0  0  0  0  0  0
   -0.8021    3.9178    3.4499 C   0  0  1  0  0  0  0  0  0  0  0  0
   -2.0184    3.9493    4.1655 O   0  0  0  0  0  0  0  0  0  0  0  0
    0.2977    4.8133    4.0472 C   0  0  1  0  0  0  0  0  0  0  0  0
   -0.1634    6.1404    4.2420 O   0  0  0  0  0  0  0  0  0  0  0  0
    1.0189    4.2226    5.3006 C   0  0  0  0  0  0  0  0  0  0  0  0
    2.2753    5.0984    5.5647 C   0  0  0  0  0  0  0  0  0  0  0  0
    0.1393    4.3136    6.5779 C   0  0  0  0  0  0  0  0  0  0  0  0
    1.4936    2.7614    4.9382 C   0  0  1  0  0  0  0  0  0  0  0  0
    2.5099    2.1679    5.9453 C   0  0  0  0  0  0  0  0  0  0  0  0
    2.7165    0.6490    5.8620 C   0  0  0  0  0  0  0  0  0  0  0  0
    2.6040    0.0723    4.4295 C   0  0  1  0  0  0  0  0  0  0  0  0
    3.6061    0.8026    3.4872 C   0  0  0  0  0  0  0  0  0  0  0  0
    3.2299   -3.4755    2.6580 C   0  0  1  0  0  0  0  0  0  0  0  0
    2.8683   -4.1336    1.2891 C   0  0  1  0  0  0  0  0  0  0  0  0
    3.2493   -3.3428    0.0066 C   0  0  0  0  0  0  0  0  0  0  0  0
    2.2399   -8.0866    3.4939 H   0  0  0  0  0  0  0  0  0  0  0  0
    3.9333   -7.4012    3.3526 H   0  0  0  0  0  0  0  0  0  0  0  0
    0.5089   -5.8831    1.3861 H   0  0  0  0  0  0  0  0  0  0  0  0
    0.4806   -7.4225    2.2207 H   0  0  0  0  0  0  0  0  0  0  0  0
    1.0360   -7.3555    0.5623 H   0  0  0  0  0  0  0  0  0  0  0  0
    3.2090   -5.9347    0.1574 H   0  0  0  0  0  0  0  0  0  0  0  0
    5.1914   -6.7134    1.4577 H   0  0  0  0  0  0  0  0  0  0  0  0
    5.3889   -5.2102    0.6594 H   0  0  0  0  0  0  0  0  0  0  0  0
    4.8305   -5.5560    3.6563 H   0  0  0  0  0  0  0  0  0  0  0  0
    6.3293   -5.0555    2.9412 H   0  0  0  0  0  0  0  0  0  0  0  0
    5.1390   -1.6306    1.9323 H   0  0  0  0  0  0  0  0  0  0  0  0
    5.7513   -3.0258    1.0537 H   0  0  0  0  0  0  0  0  0  0  0  0
    6.5794   -2.4746    2.4689 H   0  0  0  0  0  0  0  0  0  0  0  0
    4.4506   -3.8597    5.0876 H   0  0  0  0  0  0  0  0  0  0  0  0
    6.0060   -3.2214    4.7071 H   0  0  0  0  0  0  0  0  0  0  0  0
    4.6282   -1.5365    5.7889 H   0  0  0  0  0  0  0  0  0  0  0  0
    5.1004   -1.0553    4.1994 H   0  0  0  0  0  0  0  0  0  0  0  0
    2.3445   -1.9635    6.4783 H   0  0  0  0  0  0  0  0  0  0  0  0
    2.3525   -3.3529    5.4446 H   0  0  0  0  0  0  0  0  0  0  0  0
    1.0500   -2.2358    5.3194 H   0  0  0  0  0  0  0  0  0  0  0  0
    1.4105   -1.8935    1.2634 H   0  0  0  0  0  0  0  0  0  0  0  0
    1.3152    0.5691    1.7672 H   0  0  0  0  0  0  0  0  0  0  0  0
   -0.0805   -0.3329    2.3107 H   0  0  0  0  0  0  0  0  0  0  0  0
    0.5579   -0.3937    4.4941 H   0  0  0  0  0  0  0  0  0  0  0  0
   -1.2861    2.1838    5.7358 H   0  0  0  0  0  0  0  0  0  0  0  0
   -0.1610    1.0414    6.4067 H   0  0  0  0  0  0  0  0  0  0  0  0
   -1.2839    0.5754    5.1445 H   0  0  0  0  0  0  0  0  0  0  0  0
    0.4334    2.5425    2.3916 H   0  0  0  0  0  0  0  0  0  0  0  0
   -1.5060    1.9903    1.7841 H   0  0  0  0  0  0  0  0  0  0  0  0
   -1.0751    4.3530    2.4888 H   0  0  0  0  0  0  0  0  0  0  0  0
   -2.5951    3.3286    3.7311 H   0  0  0  0  0  0  0  0  0  0  0  0
    1.0568    4.8969    3.2693 H   0  0  0  0  0  0  0  0  0  0  0  0
    0.1451    6.6786    3.5177 H   0  0  0  0  0  0  0  0  0  0  0  0
    2.7958    4.7977    6.4758 H   0  0  0  0  0  0  0  0  0  0  0  0
    2.0112    6.1499    5.6897 H   0  0  0  0  0  0  0  0  0  0  0  0
    2.9835    5.0394    4.7373 H   0  0  0  0  0  0  0  0  0  0  0  0
    0.4384    3.5980    7.3422 H   0  0  0  0  0  0  0  0  0  0  0  0
   -0.9150    4.1603    6.3806 H   0  0  0  0  0  0  0  0  0  0  0  0
    0.1994    5.3043    7.0271 H   0  0  0  0  0  0  0  0  0  0  0  0
    2.1017    2.9792    4.0618 H   0  0  0  0  0  0  0  0  0  0  0  0
    3.4713    2.6298    5.7385 H   0  0  0  0  0  0  0  0  0  0  0  0
    2.2684    2.4433    6.9745 H   0  0  0  0  0  0  0  0  0  0  0  0
    3.6756    0.3998    6.3183 H   0  0  0  0  0  0  0  0  0  0  0  0
    1.9577    0.1922    6.4913 H   0  0  0  0  0  0  0  0  0  0  0  0
    3.1948    1.6748    2.9915 H   0  0  0  0  0  0  0  0  0  0  0  0
    3.9350    0.1757    2.6577 H   0  0  0  0  0  0  0  0  0  0  0  0
    4.4996    1.1238    4.0253 H   0  0  0  0  0  0  0  0  0  0  0  0
    2.7574   -4.1474    3.3708 H   0  0  0  0  0  0  0  0  0  0  0  0
    1.7948   -4.1454    1.2779 H   0  0  0  0  0  0  0  0  0  0  0  0
    4.2361   -3.5986   -0.3814 H   0  0  0  0  0  0  0  0  0  0  0  0
    3.2359   -2.2619    0.1478 H   0  0  0  0  0  0  0  0  0  0  0  0
    2.5470   -3.5667   -0.8010 H   0  0  0  0  0  0  0  0  0  0  0  0
  1  2  2  0
  1 36  1  0
  1 37  1  0
  2  3  1  0
  2  4  1  0
  3 38  1  0
  3 39  1  0
  3 40  1  0
  4 34  1  0
  4  5  1  0
  4 41  1  6
  5  6  1  0
  5 42  1  0
  5 43  1  0
  6  7  1  0
  6 44  1  0
  6 45  1  0
  7 33  1  0
  7  8  1  6
  7  9  1  0
  8 46  1  0
  8 47  1  0
  8 48  1  0
  9 10  1  0
  9 49  1  0
  9 50  1  0
 10 11  1  0
 10 51  1  0
 10 52  1  0
 11 31  1  0
 11 12  1  1
 11 13  1  0
 12 53  1  0
 12 54  1  0
 12 55  1  0
 13 14  2  0
 13 33  1  0
 14 15  1  0
 14 56  1  0
 15 16  1  0
 15 57  1  0
 15 58  1  0
 16 31  1  0
 16 17  1  0
 16 59  1  1
 17 28  1  0
 17 18  1  1
 17 19  1  0
 18 60  1  0
 18 61  1  0
 18 62  1  0
 19 20  1  0
 19 21  1  0
 19 63  1  6
 20 64  1  0
 21 22  1  0
 21 23  1  0
 21 65  1  6
 22 66  1  0
 23 24  1  0
 23 25  1  0
 23 67  1  6
 24 68  1  0
 25 26  1  0
 25 27  1  0
 25 28  1  0
 26 69  1  0
 26 70  1  0
 26 71  1  0
 27 72  1  0
 27 73  1  0
 27 74  1  0
 28 29  1  0
 28 75  1  6
 29 30  1  0
 29 76  1  0
 29 77  1  0
 30 31  1  0
 30 78  1  0
 30 79  1  0
 31 32  1  6
 32 80  1  0
 32 81  1  0
 32 82  1  0
 33 34  1  0
 33 83  1  1
 34 35  1  0
 34 84  1  1
 35 85  1  0
 35 86  1  0
 35 87  1  0
M  END
>  <i_m_ct_stereo_status>  (25) 
1

>  <s_m_source_file>  (25) 
/var/tmp/pbs.5076255.sched01/tmp3_il56_a/09f63jmog.sdf

>  <i_m_source_file_index>  (25) 
9

>  <i_lp_mmshare_version>  (25) 
48012

>  <i_f3d_flags>  (25) 
0

>  <s_epik_input>  (25) 
W0NIMl09QyhbQ0gzXSlbQ0BIXShbQ0gyXVtDSDJdMSlbQ0BIXShbQ0gzXSlbQ0BASF0oW0NAXTEyW0NIM10pQz0zW0NAQF0oW0NIM10pKFtDSDJdW0NIMl0yKVtDQEBdNChbQ0gzXSlbQ0BIXShbQ0gyXVtDSF0zKVtDQEBdNShbQ0gzXSlbQ0BIXShbQ0gyXVtDSDJdNClDKFtDSDNdKShbQ0gzXSlbQ0BIXShbT0hdKVtDQEhdKFtPSF0pW0NAQEhdNVtPSF0=

>  <s_epik_cmdline>  (25) 
J2VwaWtfcHl0aG9uJywgJy1waHQnLCAnMi4wJywgJy1waCcsICc3LjAnLCAnLXRuJywgJzgnLCAnLW1hJywgJzIwMCcsICctaW1hZScsICc8aW5maWxlLm1hZT4nLCAnLW9tYWUnLCAnPG91dGZpbGUubWFlPic=

>  <r_lp_tautomer_probability>  (25) 
1

>  <r_epik_Ionization_Penalty>  (25) 
9.82312e-07

>  <r_epik_Ionization_Penalty_Charging>  (25) 
0

>  <r_epik_Ionization_Penalty_Neutral>  (25) 
9.82312e-07

>  <r_epik_State_Penalty>  (25) 
-0

>  <r_epik_Charging_Adjusted_Penalty>  (25) 
0

>  <i_epik_Tot_Q>  (25) 
0

>  <i_epik_Tot_abs_Q>  (25) 
0

>  <s_lp_Force_Field>  (25) 
OPLS3e

>  <r_lp_Energy>  (25) 
97.0953

>  <b_lp_Chiralities_Consistent>  (25) 
1

>  <s_lp_Variant>  (25) 
5:0-1

>  <s_i_glide_gridfile>  (25) 
pfpi4k_grid

>  <i_i_glide_lignum>  (25) 
9

>  <i_i_glide_rotatable_bonds>  (25) 
4

>  <r_i_docking_score>  (25) 
-2.47093

>  <r_i_glide_ligand_efficiency>  (25) 
-0.0705981

>  <r_i_glide_ligand_efficiency_sa>  (25) 
-0.230931

>  <r_i_glide_ligand_efficiency_ln>  (25) 
-0.542425

>  <r_i_glide_gscore>  (25) 
-2.47093

>  <r_i_glide_lipo>  (25) 
-0.19514

>  <r_i_glide_hbond>  (25) 
0

>  <r_i_glide_metal>  (25) 
-0

>  <r_i_glide_rewards>  (25) 
-0.103954

>  <r_i_glide_evdw>  (25) 
-25.2709

>  <r_i_glide_ecoul>  (25) 
-6.63151

>  <r_i_glide_erotb>  (25) 
0.0864316

>  <r_i_glide_esite>  (25) 
0

>  <r_i_glide_emodel>  (25) 
-35.7699

>  <r_i_glide_energy>  (25) 
-31.9024

>  <r_i_glide_einternal>  (25) 
3.04373

>  <r_i_glide_intrahb_reward>  (25) 
-0

>  <i_i_glide_confnum>  (25) 
4

>  <i_i_glide_posenum>  (25) 
36

>  <r_i_glide_eff_state_penalty>  (25) 
0

>  <ligand_id>  (25) 
5

>  <original_smiles>  (25) 
C=C(C)C1CCC2(C)CCC3(C)C(=CCC4C5(C)C(O)C(O)C(O)C(C)(C)C5CCC43C)C2C1C

>  <smiles>  (25) 
[H]OC1([H])C([H])(O[H])C(C([H])([H])[H])(C([H])([H])[H])C2([H])C([H])([H])C([H])([H])C3(C([H])([H])[H])C([H])(C([H])([H])C([H])=C4C5([H])C([H])(C([H])([H])[H])C([H])(C(=C([H])[H])C([H])([H])[H])C([H])([H])C([H])([H])C5(C([H])([H])[H])C([H])([H])C([H])([H])C43C([H])([H])[H])C2(C([H])([H])[H])C1([H])O[H]

$$$$
5:0:1
     RDKit          3D

 87 91  0  0  1  0  0  0  0  0999 V2000
    0.6924   -7.7206    3.5210 C   0  0  0  0  0  0  0  0  0  0  0  0
    1.2500   -6.9421    2.5671 C   0  0  0  0  0  0  0  0  0  0  0  0
    0.5610   -6.8559    1.2221 C   0  0  0  0  0  0  0  0  0  0  0  0
    2.5877   -6.1707    2.6916 C   0  0  2  0  0  0  0  0  0  0  0  0
    3.5175   -6.6429    3.8264 C   0  0  0  0  0  0  0  0  0  0  0  0
    3.1148   -6.1253    5.2262 C   0  0  0  0  0  0  0  0  0  0  0  0
    2.9361   -4.5915    5.2954 C   0  0  2  0  0  0  0  0  0  0  0  0
    4.3304   -3.9173    5.3142 C   0  0  0  0  0  0  0  0  0  0  0  0
    2.2151   -4.3015    6.6255 C   0  0  0  0  0  0  0  0  0  0  0  0
    1.9090   -2.8140    6.8115 C   0  0  0  0  0  0  0  0  0  0  0  0
    1.0538   -2.1676    5.6704 C   0  0  2  0  0  0  0  0  0  0  0  0
   -0.3878   -2.7341    5.8422 C   0  0  0  0  0  0  0  0  0  0  0  0
    1.5516   -2.6217    4.2705 C   0  0  0  0  0  0  0  0  0  0  0  0
    1.5261   -1.7615    3.2250 C   0  0  0  0  0  0  0  0  0  0  0  0
    1.0628   -0.3102    3.2600 C   0  0  0  0  0  0  0  0  0  0  0  0
    0.3623    0.1009    4.5804 C   0  0  2  0  0  0  0  0  0  0  0  0
   -0.1667    1.6192    4.7471 C   0  0  2  0  0  0  0  0  0  0  0  0
   -1.7174    1.5353    4.8751 C   0  0  0  0  0  0  0  0  0  0  0  0
    0.1963    2.5398    3.5296 C   0  0  1  0  0  0  0  0  0  0  0  0
   -0.4444    2.1529    2.3269 O   0  0  0  0  0  0  0  0  0  0  0  0
   -0.0344    4.0709    3.6876 C   0  0  1  0  0  0  0  0  0  0  0  0
   -1.3851    4.4578    3.4845 O   0  0  0  0  0  0  0  0  0  0  0  0
    0.5415    4.6235    5.0040 C   0  0  1  0  0  0  0  0  0  0  0  0
    0.2638    6.0167    5.1025 O   0  0  0  0  0  0  0  0  0  0  0  0
    0.1682    3.8285    6.2851 C   0  0  0  0  0  0  0  0  0  0  0  0
    1.0972    4.3291    7.4236 C   0  0  0  0  0  0  0  0  0  0  0  0
   -1.2821    4.1116    6.7474 C   0  0  0  0  0  0  0  0  0  0  0  0
    0.4696    2.3071    6.0171 C   0  0  1  0  0  0  0  0  0  0  0  0
    0.4546    1.4369    7.2978 C   0  0  0  0  0  0  0  0  0  0  0  0
    0.3717   -0.0778    7.0688 C   0  0  0  0  0  0  0  0  0  0  0  0
    1.0979   -0.5688    5.7916 C   0  0  1  0  0  0  0  0  0  0  0  0
    2.5941   -0.1142    5.8265 C   0  0  0  0  0  0  0  0  0  0  0  0
    2.0037   -4.1075    4.1380 C   0  0  1  0  0  0  0  0  0  0  0  0
    2.4539   -4.6125    2.7238 C   0  0  1  0  0  0  0  0  0  0  0  0
    3.7296   -3.9340    2.1447 C   0  0  0  0  0  0  0  0  0  0  0  0
   -0.2601   -8.2023    3.3147 H   0  0  0  0  0  0  0  0  0  0  0  0
    1.1339   -7.9129    4.4831 H   0  0  0  0  0  0  0  0  0  0  0  0
    0.5079   -5.8587    0.8222 H   0  0  0  0  0  0  0  0  0  0  0  0
   -0.4472   -7.2683    1.2732 H   0  0  0  0  0  0  0  0  0  0  0  0
    1.1061   -7.4657    0.5069 H   0  0  0  0  0  0  0  0  0  0  0  0
    3.0987   -6.4232    1.7629 H   0  0  0  0  0  0  0  0  0  0  0  0
    3.5772   -7.7281    3.8199 H   0  0  0  0  0  0  0  0  0  0  0  0
    4.5394   -6.3296    3.5959 H   0  0  0  0  0  0  0  0  0  0  0  0
    2.1756   -6.5674    5.5427 H   0  0  0  0  0  0  0  0  0  0  0  0
    3.8599   -6.4557    5.9569 H   0  0  0  0  0  0  0  0  0  0  0  0
    4.2666   -2.8438    5.1401 H   0  0  0  0  0  0  0  0  0  0  0  0
    5.0027   -4.3297    4.5669 H   0  0  0  0  0  0  0  0  0  0  0  0
    4.8170   -4.0760    6.2777 H   0  0  0  0  0  0  0  0  0  0  0  0
    1.2850   -4.8663    6.6826 H   0  0  0  0  0  0  0  0  0  0  0  0
    2.8154   -4.6633    7.4625 H   0  0  0  0  0  0  0  0  0  0  0  0
    1.4055   -2.6997    7.7718 H   0  0  0  0  0  0  0  0  0  0  0  0
    2.8697   -2.3228    6.9368 H   0  0  0  0  0  0  0  0  0  0  0  0
   -0.8105   -2.5044    6.8189 H   0  0  0  0  0  0  0  0  0  0  0  0
   -0.4106   -3.8191    5.7617 H   0  0  0  0  0  0  0  0  0  0  0  0
   -1.0782   -2.3822    5.0798 H   0  0  0  0  0  0  0  0  0  0  0  0
    1.8391   -2.0732    2.2407 H   0  0  0  0  0  0  0  0  0  0  0  0
    1.9315    0.3144    3.0496 H   0  0  0  0  0  0  0  0  0  0  0  0
    0.3709   -0.2063    2.4244 H   0  0  0  0  0  0  0  0  0  0  0  0
   -0.5602   -0.4609    4.4986 H   0  0  0  0  0  0  0  0  0  0  0  0
   -2.2195    2.4895    4.8072 H   0  0  0  0  0  0  0  0  0  0  0  0
   -2.0356    1.0736    5.8049 H   0  0  0  0  0  0  0  0  0  0  0  0
   -2.1541    0.9524    4.0658 H   0  0  0  0  0  0  0  0  0  0  0  0
    1.2656    2.4446    3.3548 H   0  0  0  0  0  0  0  0  0  0  0  0
   -0.1967    2.7615    1.6434 H   0  0  0  0  0  0  0  0  0  0  0  0
    0.5049    4.5817    2.8821 H   0  0  0  0  0  0  0  0  0  0  0  0
   -1.5836    4.2534    2.5825 H   0  0  0  0  0  0  0  0  0  0  0  0
    1.6244    4.5446    4.8887 H   0  0  0  0  0  0  0  0  0  0  0  0
    0.6232    6.4415    4.3412 H   0  0  0  0  0  0  0  0  0  0  0  0
    0.8408    3.8817    8.3843 H   0  0  0  0  0  0  0  0  0  0  0  0
    1.0241    5.4100    7.5551 H   0  0  0  0  0  0  0  0  0  0  0  0
    2.1431    4.0988    7.2160 H   0  0  0  0  0  0  0  0  0  0  0  0
   -1.6911    3.3322    7.3870 H   0  0  0  0  0  0  0  0  0  0  0  0
   -1.9606    4.2302    5.9110 H   0  0  0  0  0  0  0  0  0  0  0  0
   -1.3385    5.0460    7.3067 H   0  0  0  0  0  0  0  0  0  0  0  0
    1.5217    2.3700    5.7606 H   0  0  0  0  0  0  0  0  0  0  0  0
    1.3898    1.6252    7.8239 H   0  0  0  0  0  0  0  0  0  0  0  0
   -0.3293    1.7443    7.9915 H   0  0  0  0  0  0  0  0  0  0  0  0
    0.7393   -0.5885    7.9602 H   0  0  0  0  0  0  0  0  0  0  0  0
   -0.6836   -0.3257    6.9918 H   0  0  0  0  0  0  0  0  0  0  0  0
    2.7744    0.8471    5.3587 H   0  0  0  0  0  0  0  0  0  0  0  0
    3.2445   -0.7938    5.2766 H   0  0  0  0  0  0  0  0  0  0  0  0
    2.9705   -0.0588    6.8496 H   0  0  0  0  0  0  0  0  0  0  0  0
    1.0680   -4.6457    4.2775 H   0  0  0  0  0  0  0  0  0  0  0  0
    1.6552   -4.3376    2.0396 H   0  0  0  0  0  0  0  0  0  0  0  0
    4.6522   -4.4453    2.4178 H   0  0  0  0  0  0  0  0  0  0  0  0
    3.8500   -2.8971    2.4640 H   0  0  0  0  0  0  0  0  0  0  0  0
    3.7022   -3.9319    1.0525 H   0  0  0  0  0  0  0  0  0  0  0  0
  1  2  2  0
  1 36  1  0
  1 37  1  0
  2  3  1  0
  2  4  1  0
  3 38  1  0
  3 39  1  0
  3 40  1  0
  4 34  1  0
  4  5  1  0
  4 41  1  6
  5  6  1  0
  5 42  1  0
  5 43  1  0
  6  7  1  0
  6 44  1  0
  6 45  1  0
  7 33  1  0
  7  8  1  1
  7  9  1  0
  8 46  1  0
  8 47  1  0
  8 48  1  0
  9 10  1  0
  9 49  1  0
  9 50  1  0
 10 11  1  0
 10 51  1  0
 10 52  1  0
 11 31  1  0
 11 12  1  1
 11 13  1  0
 12 53  1  0
 12 54  1  0
 12 55  1  0
 13 14  2  0
 13 33  1  0
 14 15  1  0
 14 56  1  0
 15 16  1  0
 15 57  1  0
 15 58  1  0
 16 31  1  0
 16 17  1  0
 16 59  1  6
 17 28  1  0
 17 18  1  1
 17 19  1  0
 18 60  1  0
 18 61  1  0
 18 62  1  0
 19 20  1  0
 19 21  1  0
 19 63  1  6
 20 64  1  0
 21 22  1  0
 21 23  1  0
 21 65  1  6
 22 66  1  0
 23 24  1  0
 23 25  1  0
 23 67  1  6
 24 68  1  0
 25 26  1  0
 25 27  1  0
 25 28  1  0
 26 69  1  0
 26 70  1  0
 26 71  1  0
 27 72  1  0
 27 73  1  0
 27 74  1  0
 28 29  1  0
 28 75  1  6
 29 30  1  0
 29 76  1  0
 29 77  1  0
 30 31  1  0
 30 78  1  0
 30 79  1  0
 31 32  1  1
 32 80  1  0
 32 81  1  0
 32 82  1  0
 33 34  1  0
 33 83  1  1
 34 35  1  0
 34 84  1  6
 35 85  1  0
 35 86  1  0
 35 87  1  0
M  END
>  <i_m_ct_stereo_status>  (26) 
1

>  <s_m_source_file>  (26) 
/var/tmp/pbs.5076255.sched01/tmp3_il56_a/09f63jmog.sdf

>  <i_m_source_file_index>  (26) 
9

>  <i_lp_mmshare_version>  (26) 
48012

>  <i_f3d_flags>  (26) 
0

>  <s_epik_input>  (26) 
W0NIMl09QyhbQ0gzXSlbQ0BIXShbQ0gyXVtDSDJdMSlbQ0BIXShbQ0gzXSlbQ0BASF0oW0NAXTEyW0NIM10pQz0zW0NAQF0oW0NIM10pKFtDSDJdW0NIMl0yKVtDQEBdNChbQ0gzXSlbQ0BIXShbQ0gyXVtDSF0zKVtDQEBdNShbQ0gzXSlbQ0BIXShbQ0gyXVtDSDJdNClDKFtDSDNdKShbQ0gzXSlbQ0BIXShbT0hdKVtDQEhdKFtPSF0pW0NAQEhdNVtPSF0=

>  <s_epik_cmdline>  (26) 
J2VwaWtfcHl0aG9uJywgJy1waHQnLCAnMi4wJywgJy1waCcsICc3LjAnLCAnLXRuJywgJzgnLCAnLW1hJywgJzIwMCcsICctaW1hZScsICc8aW5maWxlLm1hZT4nLCAnLW9tYWUnLCAnPG91dGZpbGUubWFlPic=

>  <r_lp_tautomer_probability>  (26) 
1

>  <r_epik_Ionization_Penalty>  (26) 
9.82312e-07

>  <r_epik_Ionization_Penalty_Charging>  (26) 
0

>  <r_epik_Ionization_Penalty_Neutral>  (26) 
9.82312e-07

>  <r_epik_State_Penalty>  (26) 
-0

>  <r_epik_Charging_Adjusted_Penalty>  (26) 
0

>  <i_epik_Tot_Q>  (26) 
0

>  <i_epik_Tot_abs_Q>  (26) 
0

>  <s_lp_Force_Field>  (26) 
OPLS3e

>  <r_lp_Energy>  (26) 
97.0953

>  <b_lp_Chiralities_Consistent>  (26) 
1

>  <s_lp_Variant>  (26) 
5:0-1

>  <s_i_glide_gridfile>  (26) 
pfpi4k_grid

>  <i_i_glide_lignum>  (26) 
9

>  <i_i_glide_rotatable_bonds>  (26) 
4

>  <r_i_docking_score>  (26) 
-2.25421

>  <r_i_glide_ligand_efficiency>  (26) 
-0.0644059

>  <r_i_glide_ligand_efficiency_sa>  (26) 
-0.210676

>  <r_i_glide_ligand_efficiency_ln>  (26) 
-0.494848

>  <r_i_glide_gscore>  (26) 
-2.25421

>  <r_i_glide_lipo>  (26) 
-0.0149732

>  <r_i_glide_hbond>  (26) 
0

>  <r_i_glide_metal>  (26) 
-0

>  <r_i_glide_rewards>  (26) 
-0.103954

>  <r_i_glide_evdw>  (26) 
-24.2991

>  <r_i_glide_ecoul>  (26) 
-6.7117

>  <r_i_glide_erotb>  (26) 
0.0864316

>  <r_i_glide_esite>  (26) 
0

>  <r_i_glide_emodel>  (26) 
-34.6662

>  <r_i_glide_energy>  (26) 
-31.0108

>  <r_i_glide_einternal>  (26) 
2.42847

>  <r_i_glide_intrahb_reward>  (26) 
-0

>  <i_i_glide_confnum>  (26) 
2

>  <i_i_glide_posenum>  (26) 
29

>  <r_i_glide_eff_state_penalty>  (26) 
0

>  <ligand_id>  (26) 
5

>  <original_smiles>  (26) 
C=C(C)C1CCC2(C)CCC3(C)C(=CCC4C5(C)C(O)C(O)C(O)C(C)(C)C5CCC43C)C2C1C

>  <smiles>  (26) 
[H]OC1([H])C([H])(O[H])C(C([H])([H])[H])(C([H])([H])[H])C2([H])C([H])([H])C([H])([H])C3(C([H])([H])[H])C([H])(C([H])([H])C([H])=C4C5([H])C([H])(C([H])([H])[H])C([H])(C(=C([H])[H])C([H])([H])[H])C([H])([H])C([H])([H])C5(C([H])([H])[H])C([H])([H])C([H])([H])C43C([H])([H])[H])C2(C([H])([H])[H])C1([H])O[H]

$$$$
5:0:2
     RDKit          3D

 87 91  0  0  1  0  0  0  0  0999 V2000
    0.3658   -9.3741    4.5978 C   0  0  0  0  0  0  0  0  0  0  0  0
    0.4629   -8.7270    3.4282 C   0  0  0  0  0  0  0  0  0  0  0  0
   -0.7994   -8.5042    2.5998 C   0  0  0  0  0  0  0  0  0  0  0  0
    1.7863   -8.2447    2.8043 C   0  0  2  0  0  0  0  0  0  0  0  0
    3.0545   -8.7889    3.5101 C   0  0  0  0  0  0  0  0  0  0  0  0
    3.3791   -8.0567    4.8278 C   0  0  0  0  0  0  0  0  0  0  0  0
    3.4773   -6.5239    4.6978 C   0  0  2  0  0  0  0  0  0  0  0  0
    4.8037   -6.1544    3.9947 C   0  0  0  0  0  0  0  0  0  0  0  0
    3.4866   -5.9507    6.1270 C   0  0  0  0  0  0  0  0  0  0  0  0
    3.5136   -4.4190    6.1454 C   0  0  0  0  0  0  0  0  0  0  0  0
    2.3280   -3.7309    5.3861 C   0  0  2  0  0  0  0  0  0  0  0  0
    1.0581   -3.9688    6.2492 C   0  0  0  0  0  0  0  0  0  0  0  0
    2.0796   -4.4250    4.0168 C   0  0  0  0  0  0  0  0  0  0  0  0
    1.7182   -3.6838    2.9451 C   0  0  0  0  0  0  0  0  0  0  0  0
    1.5327   -2.1744    2.9026 C   0  0  0  0  0  0  0  0  0  0  0  0
    1.5462   -1.4944    4.2906 C   0  0  2  0  0  0  0  0  0  0  0  0
    1.3580    0.1068    4.3728 C   0  0  2  0  0  0  0  0  0  0  0  0
    0.0337    0.3580    5.1604 C   0  0  0  0  0  0  0  0  0  0  0  0
    1.2515    0.7966    2.9589 C   0  0  1  0  0  0  0  0  0  0  0  0
    0.1017    0.4086    2.2331 O   0  0  0  0  0  0  0  0  0  0  0  0
    1.3318    2.3478    2.9187 C   0  0  1  0  0  0  0  0  0  0  0  0
    0.1132    2.9788    3.2778 O   0  0  0  0  0  0  0  0  0  0  0  0
    2.5173    2.9076    3.7268 C   0  0  1  0  0  0  0  0  0  0  0  0
    2.5241    4.3231    3.6910 O   0  0  0  0  0  0  0  0  0  0  0  0
    2.6505    2.3522    5.1793 C   0  0  0  0  0  0  0  0  0  0  0  0
    4.0500    2.7630    5.7021 C   0  0  0  0  0  0  0  0  0  0  0  0
    1.6187    2.9892    6.1497 C   0  0  0  0  0  0  0  0  0  0  0  0
    2.5812    0.7805    5.0991 C   0  0  1  0  0  0  0  0  0  0  0  0
    3.0418    0.0717    6.4017 C   0  0  0  0  0  0  0  0  0  0  0  0
    2.6471   -1.4089    6.5213 C   0  0  0  0  0  0  0  0  0  0  0  0
    2.6497   -2.1688    5.1699 C   0  0  1  0  0  0  0  0  0  0  0  0
    4.0415   -2.0340    4.4807 C   0  0  0  0  0  0  0  0  0  0  0  0
    2.2005   -5.9775    3.9758 C   0  0  1  0  0  0  0  0  0  0  0  0
    1.8970   -6.7030    2.6217 C   0  0  1  0  0  0  0  0  0  0  0  0
    2.8485   -6.3653    1.4417 C   0  0  0  0  0  0  0  0  0  0  0  0
   -0.5896   -9.6796    4.9732 H   0  0  0  0  0  0  0  0  0  0  0  0
    1.1971   -9.6599    5.2206 H   0  0  0  0  0  0  0  0  0  0  0  0
   -0.8997   -7.4963    2.2115 H   0  0  0  0  0  0  0  0  0  0  0  0
   -1.6929   -8.7263    3.1824 H   0  0  0  0  0  0  0  0  0  0  0  0
   -0.7955   -9.1904    1.7547 H   0  0  0  0  0  0  0  0  0  0  0  0
    1.7683   -8.7030    1.8136 H   0  0  0  0  0  0  0  0  0  0  0  0
    2.9551   -9.8534    3.6779 H   0  0  0  0  0  0  0  0  0  0  0  0
    3.8985   -8.7088    2.8285 H   0  0  0  0  0  0  0  0  0  0  0  0
    2.6092   -8.2639    5.5727 H   0  0  0  0  0  0  0  0  0  0  0  0
    4.2983   -8.4622    5.2529 H   0  0  0  0  0  0  0  0  0  0  0  0
    4.8222   -5.1153    3.6675 H   0  0  0  0  0  0  0  0  0  0  0  0
    5.0071   -6.7676    3.1210 H   0  0  0  0  0  0  0  0  0  0  0  0
    5.6527   -6.3042    4.6661 H   0  0  0  0  0  0  0  0  0  0  0  0
    2.6202   -6.3026    6.6783 H   0  0  0  0  0  0  0  0  0  0  0  0
    4.3493   -6.3370    6.6757 H   0  0  0  0  0  0  0  0  0  0  0  0
    3.5193   -4.1009    7.1871 H   0  0  0  0  0  0  0  0  0  0  0  0
    4.4816   -4.1251    5.7531 H   0  0  0  0  0  0  0  0  0  0  0  0
    1.1572   -3.5532    7.2495 H   0  0  0  0  0  0  0  0  0  0  0  0
    0.8530   -5.0266    6.3909 H   0  0  0  0  0  0  0  0  0  0  0  0
    0.1533   -3.5667    5.8043 H   0  0  0  0  0  0  0  0  0  0  0  0
    1.5101   -4.1632    2.0061 H   0  0  0  0  0  0  0  0  0  0  0  0
    2.2794   -1.7655    2.2266 H   0  0  0  0  0  0  0  0  0  0  0  0
    0.5614   -2.0115    2.4578 H   0  0  0  0  0  0  0  0  0  0  0  0
    0.6228   -1.8618    4.7090 H   0  0  0  0  0  0  0  0  0  0  0  0
   -0.2979    1.3848    5.1435 H   0  0  0  0  0  0  0  0  0  0  0  0
    0.1153    0.0695    6.2032 H   0  0  0  0  0  0  0  0  0  0  0  0
   -0.7934   -0.2013    4.7312 H   0  0  0  0  0  0  0  0  0  0  0  0
    2.1159    0.4646    2.3818 H   0  0  0  0  0  0  0  0  0  0  0  0
    0.2008    0.6750    1.3194 H   0  0  0  0  0  0  0  0  0  0  0  0
    1.4833    2.6395    1.8769 H   0  0  0  0  0  0  0  0  0  0  0  0
   -0.1199    3.5720    2.5717 H   0  0  0  0  0  0  0  0  0  0  0  0
    3.4119    2.5923    3.1873 H   0  0  0  0  0  0  0  0  0  0  0  0
    2.3720    4.5926    2.7873 H   0  0  0  0  0  0  0  0  0  0  0  0
    4.1967    2.4859    6.7497 H   0  0  0  0  0  0  0  0  0  0  0  0
    4.2038    3.8432    5.6438 H   0  0  0  0  0  0  0  0  0  0  0  0
    4.8446    2.2890    5.1256 H   0  0  0  0  0  0  0  0  0  0  0  0
    1.4385    2.3780    7.0345 H   0  0  0  0  0  0  0  0  0  0  0  0
    0.6577    3.1866    5.6907 H   0  0  0  0  0  0  0  0  0  0  0  0
    1.9626    3.9647    6.5030 H   0  0  0  0  0  0  0  0  0  0  0  0
    3.4075    0.5984    4.4109 H   0  0  0  0  0  0  0  0  0  0  0  0
    4.1247    0.1176    6.4334 H   0  0  0  0  0  0  0  0  0  0  0  0
    2.6974    0.6046    7.2926 H   0  0  0  0  0  0  0  0  0  0  0  0
    3.3092   -1.8873    7.2475 H   0  0  0  0  0  0  0  0  0  0  0  0
    1.6548   -1.4420    6.9508 H   0  0  0  0  0  0  0  0  0  0  0  0
    4.1216   -1.1858    3.8079 H   0  0  0  0  0  0  0  0  0  0  0  0
    4.2729   -2.8854    3.8399 H   0  0  0  0  0  0  0  0  0  0  0  0
    4.8485   -1.9501    5.2106 H   0  0  0  0  0  0  0  0  0  0  0  0
    1.3674   -6.2914    4.5961 H   0  0  0  0  0  0  0  0  0  0  0  0
    0.9239   -6.3304    2.3009 H   0  0  0  0  0  0  0  0  0  0  0  0
    3.7126   -7.0296    1.3837 H   0  0  0  0  0  0  0  0  0  0  0  0
    3.2478   -5.3513    1.4794 H   0  0  0  0  0  0  0  0  0  0  0  0
    2.3297   -6.4730    0.4854 H   0  0  0  0  0  0  0  0  0  0  0  0
  1  2  2  0
  1 36  1  0
  1 37  1  0
  2  3  1  0
  2  4  1  0
  3 38  1  0
  3 39  1  0
  3 40  1  0
  4 34  1  0
  4  5  1  0
  4 41  1  6
  5  6  1  0
  5 42  1  0
  5 43  1  0
  6  7  1  0
  6 44  1  0
  6 45  1  0
  7 33  1  0
  7  8  1  6
  7  9  1  0
  8 46  1  0
  8 47  1  0
  8 48  1  0
  9 10  1  0
  9 49  1  0
  9 50  1  0
 10 11  1  0
 10 51  1  0
 10 52  1  0
 11 31  1  0
 11 12  1  1
 11 13  1  0
 12 53  1  0
 12 54  1  0
 12 55  1  0
 13 14  2  0
 13 33  1  0
 14 15  1  0
 14 56  1  0
 15 16  1  0
 15 57  1  0
 15 58  1  0
 16 31  1  0
 16 17  1  0
 16 59  1  1
 17 28  1  0
 17 18  1  1
 17 19  1  0
 18 60  1  0
 18 61  1  0
 18 62  1  0
 19 20  1  0
 19 21  1  0
 19 63  1  6
 20 64  1  0
 21 22  1  0
 21 23  1  0
 21 65  1  6
 22 66  1  0
 23 24  1  0
 23 25  1  0
 23 67  1  6
 24 68  1  0
 25 26  1  0
 25 27  1  0
 25 28  1  0
 26 69  1  0
 26 70  1  0
 26 71  1  0
 27 72  1  0
 27 73  1  0
 27 74  1  0
 28 29  1  0
 28 75  1  6
 29 30  1  0
 29 76  1  0
 29 77  1  0
 30 31  1  0
 30 78  1  0
 30 79  1  0
 31 32  1  6
 32 80  1  0
 32 81  1  0
 32 82  1  0
 33 34  1  0
 33 83  1  1
 34 35  1  0
 34 84  1  6
 35 85  1  0
 35 86  1  0
 35 87  1  0
M  END
>  <i_m_ct_stereo_status>  (27) 
1

>  <s_m_source_file>  (27) 
/var/tmp/pbs.5076255.sched01/tmp3_il56_a/09f63jmog.sdf

>  <i_m_source_file_index>  (27) 
9

>  <i_lp_mmshare_version>  (27) 
48012

>  <i_f3d_flags>  (27) 
0

>  <s_epik_input>  (27) 
W0NIMl09QyhbQ0gzXSlbQ0BIXShbQ0gyXVtDSDJdMSlbQ0BIXShbQ0gzXSlbQ0BASF0oW0NAXTEyW0NIM10pQz0zW0NAQF0oW0NIM10pKFtDSDJdW0NIMl0yKVtDQEBdNChbQ0gzXSlbQ0BIXShbQ0gyXVtDSF0zKVtDQEBdNShbQ0gzXSlbQ0BIXShbQ0gyXVtDSDJdNClDKFtDSDNdKShbQ0gzXSlbQ0BIXShbT0hdKVtDQEhdKFtPSF0pW0NAQEhdNVtPSF0=

>  <s_epik_cmdline>  (27) 
J2VwaWtfcHl0aG9uJywgJy1waHQnLCAnMi4wJywgJy1waCcsICc3LjAnLCAnLXRuJywgJzgnLCAnLW1hJywgJzIwMCcsICctaW1hZScsICc8aW5maWxlLm1hZT4nLCAnLW9tYWUnLCAnPG91dGZpbGUubWFlPic=

>  <r_lp_tautomer_probability>  (27) 
1

>  <r_epik_Ionization_Penalty>  (27) 
9.82312e-07

>  <r_epik_Ionization_Penalty_Charging>  (27) 
0

>  <r_epik_Ionization_Penalty_Neutral>  (27) 
9.82312e-07

>  <r_epik_State_Penalty>  (27) 
-0

>  <r_epik_Charging_Adjusted_Penalty>  (27) 
0

>  <i_epik_Tot_Q>  (27) 
0

>  <i_epik_Tot_abs_Q>  (27) 
0

>  <s_lp_Force_Field>  (27) 
OPLS3e

>  <r_lp_Energy>  (27) 
97.0953

>  <b_lp_Chiralities_Consistent>  (27) 
1

>  <s_lp_Variant>  (27) 
5:0-1

>  <s_i_glide_gridfile>  (27) 
pfpi4k_grid

>  <i_i_glide_lignum>  (27) 
9

>  <i_i_glide_rotatable_bonds>  (27) 
4

>  <r_i_docking_score>  (27) 
-1.96713

>  <r_i_glide_ligand_efficiency>  (27) 
-0.0562038

>  <r_i_glide_ligand_efficiency_sa>  (27) 
-0.183846

>  <r_i_glide_ligand_efficiency_ln>  (27) 
-0.43183

>  <r_i_glide_gscore>  (27) 
-1.96713

>  <r_i_glide_lipo>  (27) 
-0.0162683

>  <r_i_glide_hbond>  (27) 
0

>  <r_i_glide_metal>  (27) 
-0

>  <r_i_glide_rewards>  (27) 
-0.103954

>  <r_i_glide_evdw>  (27) 
-25.0255

>  <r_i_glide_ecoul>  (27) 
-4.54714

>  <r_i_glide_erotb>  (27) 
0.0864316

>  <r_i_glide_esite>  (27) 
0

>  <r_i_glide_emodel>  (27) 
-32.1514

>  <r_i_glide_energy>  (27) 
-29.5726

>  <r_i_glide_einternal>  (27) 
3.11776

>  <r_i_glide_intrahb_reward>  (27) 
-0

>  <i_i_glide_confnum>  (27) 
2

>  <i_i_glide_posenum>  (27) 
1

>  <r_i_glide_eff_state_penalty>  (27) 
0

>  <ligand_id>  (27) 
5

>  <original_smiles>  (27) 
C=C(C)C1CCC2(C)CCC3(C)C(=CCC4C5(C)C(O)C(O)C(O)C(C)(C)C5CCC43C)C2C1C

>  <smiles>  (27) 
[H]OC1([H])C([H])(O[H])C(C([H])([H])[H])(C([H])([H])[H])C2([H])C([H])([H])C([H])([H])C3(C([H])([H])[H])C([H])(C([H])([H])C([H])=C4C5([H])C([H])(C([H])([H])[H])C([H])(C(=C([H])[H])C([H])([H])[H])C([H])([H])C([H])([H])C5(C([H])([H])[H])C([H])([H])C([H])([H])C43C([H])([H])[H])C2(C([H])([H])[H])C1([H])O[H]

$$$$
6:0:0
     RDKit          3D

 77 82  0  0  1  0  0  0  0  0999 V2000
    2.0872    2.4876    2.4948 C   0  0  0  0  0  0  0  0  0  0  0  0
    2.1359    1.2753    3.4637 C   0  0  0  0  0  0  0  0  0  0  0  0
    2.5099    1.8582    4.8440 C   0  0  0  0  0  0  0  0  0  0  0  0
    0.7200    0.6225    3.4500 C   0  0  0  0  0  0  0  0  0  0  0  0
    0.3735   -0.3795    4.5801 C   0  0  1  0  0  0  0  0  0  0  0  0
   -1.0329   -0.5431    4.6089 O   0  0  0  0  0  0  0  0  0  0  0  0
    1.0209   -1.7645    4.3820 C   0  0  2  0  0  0  0  0  0  0  0  0
    0.8930   -2.7324    5.5618 C   0  0  1  0  0  0  0  0  0  0  0  0
   -0.4099   -3.2621    5.6855 O   0  0  0  0  0  0  0  0  0  0  0  0
    2.0175   -3.8014    5.4029 C   0  0  1  0  0  0  0  0  0  0  0  0
    2.5790   -4.1133    6.8170 C   0  0  0  0  0  0  0  0  0  0  0  0
    1.5596   -5.1030    4.6459 C   0  0  2  0  0  0  0  0  0  0  0  0
    1.0785   -6.2540    5.5685 C   0  0  0  0  0  0  0  0  0  0  0  0
    0.3051   -7.3637    4.8492 C   0  0  0  0  0  0  0  0  0  0  0  0
    1.1568   -8.4181    4.1256 C   0  0  2  0  0  0  0  0  0  0  0  0
    1.5393   -9.7487    4.8126 C   0  0  1  0  0  0  0  0  0  0  0  0
    0.6021  -10.4724    5.5903 O   0  0  0  0  0  0  0  0  0  0  0  0
    1.7360  -10.0864    3.3246 C   0  0  2  0  0  0  0  0  0  0  0  0
    2.7565   -9.1865    2.8578 O   0  0  0  0  0  0  0  0  0  0  0  0
    2.5007   -7.9591    3.5566 C   0  0  1  0  0  0  0  0  0  0  0  0
    2.6327   -6.6470    2.7212 C   0  0  0  0  0  0  0  0  0  0  0  0
    3.9674   -6.7604    1.9532 C   0  0  0  0  0  0  0  0  0  0  0  0
    1.5124   -6.4923    1.6679 C   0  0  0  0  0  0  0  0  0  0  0  0
    2.7474   -5.4396    3.7306 C   0  0  1  0  0  0  0  0  0  0  0  0
    3.1492   -4.0491    3.1964 C   0  0  1  0  0  0  0  0  0  0  0  0
    2.2407   -3.6687    2.1731 O   0  0  0  0  0  0  0  0  0  0  0  0
    3.0000   -3.0392    1.0919 O   0  0  0  0  0  0  0  0  0  0  0  0
    3.0752   -3.1217    4.4536 C   0  0  2  0  0  0  0  0  0  0  0  0
    4.5174   -3.0198    5.0222 C   0  0  0  0  0  0  0  0  0  0  0  0
    2.5329   -1.6756    4.2554 C   0  0  1  0  0  0  0  0  0  0  0  0
    2.8506   -1.0671    3.0249 O   0  0  0  0  0  0  0  0  0  0  0  0
    3.2738    0.2571    3.0115 C   0  0  1  0  0  0  0  0  0  0  0  0
    3.7755    0.5402    1.7205 O   0  0  0  0  0  0  0  0  0  0  0  0
    0.4668   -9.2867    3.0612 C   0  0  1  0  0  0  0  0  0  0  0  0
   -0.8153   -9.8382    3.2762 O   0  0  0  0  0  0  0  0  0  0  0  0
    1.3566    3.2303    2.8201 H   0  0  0  0  0  0  0  0  0  0  0  0
    1.7904    2.1922    1.4843 H   0  0  0  0  0  0  0  0  0  0  0  0
    3.0386    3.0124    2.4367 H   0  0  0  0  0  0  0  0  0  0  0  0
    2.6407    1.0964    5.6104 H   0  0  0  0  0  0  0  0  0  0  0  0
    1.7529    2.5563    5.1923 H   0  0  0  0  0  0  0  0  0  0  0  0
    3.4488    2.4104    4.7826 H   0  0  0  0  0  0  0  0  0  0  0  0
    0.0186    1.4498    3.5575 H   0  0  0  0  0  0  0  0  0  0  0  0
    0.5049    0.1944    2.4718 H   0  0  0  0  0  0  0  0  0  0  0  0
    0.6570    0.0392    5.5436 H   0  0  0  0  0  0  0  0  0  0  0  0
   -1.4342    0.3062    4.4847 H   0  0  0  0  0  0  0  0  0  0  0  0
    0.6256   -2.2247    3.4753 H   0  0  0  0  0  0  0  0  0  0  0  0
    1.0712   -2.1533    6.4716 H   0  0  0  0  0  0  0  0  0  0  0  0
   -1.0020   -2.5287    5.5969 H   0  0  0  0  0  0  0  0  0  0  0  0
    3.3724   -4.8564    6.7892 H   0  0  0  0  0  0  0  0  0  0  0  0
    1.8005   -4.4835    7.4853 H   0  0  0  0  0  0  0  0  0  0  0  0
    2.9771   -3.2169    7.2977 H   0  0  0  0  0  0  0  0  0  0  0  0
    0.7269   -4.8362    3.9923 H   0  0  0  0  0  0  0  0  0  0  0  0
    1.8930   -6.6848    6.1514 H   0  0  0  0  0  0  0  0  0  0  0  0
    0.3851   -5.8313    6.2935 H   0  0  0  0  0  0  0  0  0  0  0  0
   -0.3038   -7.8803    5.5959 H   0  0  0  0  0  0  0  0  0  0  0  0
   -0.4242   -6.9229    4.1715 H   0  0  0  0  0  0  0  0  0  0  0  0
    2.4839   -9.7026    5.3577 H   0  0  0  0  0  0  0  0  0  0  0  0
    1.0681  -11.0878    6.1494 H   0  0  0  0  0  0  0  0  0  0  0  0
    1.7434  -11.1336    3.0125 H   0  0  0  0  0  0  0  0  0  0  0  0
    3.2410   -7.9058    4.3597 H   0  0  0  0  0  0  0  0  0  0  0  0
    4.1576   -5.8909    1.3237 H   0  0  0  0  0  0  0  0  0  0  0  0
    3.9755   -7.6283    1.2927 H   0  0  0  0  0  0  0  0  0  0  0  0
    4.8130   -6.8706    2.6353 H   0  0  0  0  0  0  0  0  0  0  0  0
    1.6903   -5.6531    0.9996 H   0  0  0  0  0  0  0  0  0  0  0  0
    0.5292   -6.3734    2.1129 H   0  0  0  0  0  0  0  0  0  0  0  0
    1.4894   -7.3599    1.0128 H   0  0  0  0  0  0  0  0  0  0  0  0
    3.5585   -5.7206    4.4031 H   0  0  0  0  0  0  0  0  0  0  0  0
    4.1689   -4.0956    2.8062 H   0  0  0  0  0  0  0  0  0  0  0  0
    3.1876   -3.7813    0.5364 H   0  0  0  0  0  0  0  0  0  0  0  0
    5.1768   -2.5410    4.2956 H   0  0  0  0  0  0  0  0  0  0  0  0
    4.9432   -3.9980    5.2408 H   0  0  0  0  0  0  0  0  0  0  0  0
    4.5717   -2.4218    5.9299 H   0  0  0  0  0  0  0  0  0  0  0  0
    2.9036   -1.0725    5.0887 H   0  0  0  0  0  0  0  0  0  0  0  0
    4.1418    0.3286    3.6757 H   0  0  0  0  0  0  0  0  0  0  0  0
    4.1125    1.4308    1.7314 H   0  0  0  0  0  0  0  0  0  0  0  0
    0.4742   -8.8669    2.0601 H   0  0  0  0  0  0  0  0  0  0  0  0
   -0.8435  -10.2357    4.1525 H   0  0  0  0  0  0  0  0  0  0  0  0
  1  2  1  0
  1 36  1  0
  1 37  1  0
  1 38  1  0
  2 32  1  0
  2  3  1  0
  2  4  1  0
  3 39  1  0
  3 40  1  0
  3 41  1  0
  4  5  1  0
  4 42  1  0
  4 43  1  0
  5  6  1  0
  5  7  1  0
  5 44  1  1
  6 45  1  0
  7 30  1  0
  7  8  1  0
  7 46  1  6
  8  9  1  0
  8 10  1  0
  8 47  1  1
  9 48  1  0
 10 28  1  0
 10 11  1  1
 10 12  1  0
 11 49  1  0
 11 50  1  0
 11 51  1  0
 12 24  1  0
 12 13  1  0
 12 52  1  6
 13 14  1  0
 13 53  1  0
 13 54  1  0
 15 14  1  1
 14 55  1  0
 14 56  1  0
 15 20  1  0
 15 34  1  0
 15 16  1  0
 16 17  1  0
 16 18  1  0
 16 57  1  1
 17 58  1  0
 18 19  1  0
 18 34  1  0
 18 59  1  1
 19 20  1  0
 20 21  1  0
 20 60  1  1
 21 22  1  0
 21 23  1  0
 21 24  1  0
 22 61  1  0
 22 62  1  0
 22 63  1  0
 23 64  1  0
 23 65  1  0
 23 66  1  0
 24 25  1  0
 24 67  1  1
 25 26  1  0
 25 28  1  0
 25 68  1  6
 26 27  1  0
 27 69  1  0
 28 29  1  1
 28 30  1  0
 29 70  1  0
 29 71  1  0
 29 72  1  0
 30 31  1  0
 30 73  1  1
 31 32  1  0
 32 33  1  0
 32 74  1  1
 33 75  1  0
 34 35  1  0
 34 76  1  6
 35 77  1  0
M  END
>  <i_m_ct_stereo_status>  (28) 
1

>  <s_m_source_file>  (28) 
/var/tmp/pbs.5076255.sched01/tmp3_il56_a/09f63jmog.sdf

>  <i_m_source_file_index>  (28) 
10

>  <i_lp_mmshare_version>  (28) 
48012

>  <i_f3d_flags>  (28) 
0

>  <s_epik_input>  (28) 
TzFbQ0BASF0oW09IXSlDKFtDSDNdKShbQ0gzXSlbQ0gyXVtDQEBIXShbT0hdKVtDQEhdKFtDQEhdMltPSF0pW0NASF0xW0NAXShbQ0gzXSkoW0NAQEhdM09bT0hdKVtDQF0yKFtDSDNdKVtDQEhdKFtDSDJdW0NIMl00KVtDQEhdM0MoW0NIM10pKFtDSDNdKVtDQEBIXShbQ0BdNDU2KU9bQ0BASF0oW0NAQEhdNVtPSF0pW0NASF02W09IXQ==

>  <s_epik_cmdline>  (28) 
J2VwaWtfcHl0aG9uJywgJy1waHQnLCAnMi4wJywgJy1waCcsICc3LjAnLCAnLXRuJywgJzgnLCAnLW1hJywgJzIwMCcsICctaW1hZScsICc8aW5maWxlLm1hZT4nLCAnLW9tYWUnLCAnPG91dGZpbGUubWFlPic=

>  <r_lp_tautomer_probability>  (28) 
1

>  <r_epik_Ionization_Penalty>  (28) 
5.39731e-06

>  <r_epik_Ionization_Penalty_Charging>  (28) 
0

>  <r_epik_Ionization_Penalty_Neutral>  (28) 
5.39731e-06

>  <r_epik_State_Penalty>  (28) 
-0

>  <r_epik_Charging_Adjusted_Penalty>  (28) 
0

>  <i_epik_Tot_Q>  (28) 
0

>  <i_epik_Tot_abs_Q>  (28) 
0

>  <s_epik_Chemistry_Notes>  (28) 
This compound contains an acetal/aminal-like group ( X-CH(R)-Y where X, Y are N, S, or O) that may be acid/base labile, releasing an aldehyde.

>  <s_lp_Force_Field>  (28) 
OPLS3e

>  <r_lp_Energy>  (28) 
90.2533

>  <b_lp_Chiralities_Consistent>  (28) 
1

>  <s_lp_Variant>  (28) 
6:0-1

>  <s_i_glide_gridfile>  (28) 
pfpi4k_grid

>  <i_i_glide_lignum>  (28) 
10

>  <i_i_glide_rotatable_bonds>  (28) 
7

>  <r_i_docking_score>  (28) 
-3.13226

>  <r_i_glide_ligand_efficiency>  (28) 
-0.0894931

>  <r_i_glide_ligand_efficiency_sa>  (28) 
-0.292738

>  <r_i_glide_ligand_efficiency_ln>  (28) 
-0.6876

>  <r_i_glide_gscore>  (28) 
-3.13226

>  <r_i_glide_lipo>  (28) 
-0.0960606

>  <r_i_glide_hbond>  (28) 
0

>  <r_i_glide_metal>  (28) 
-0

>  <r_i_glide_rewards>  (28) 
-1.02561

>  <r_i_glide_evdw>  (28) 
-27.1381

>  <r_i_glide_ecoul>  (28) 
-4.90509

>  <r_i_glide_erotb>  (28) 
0.0820856

>  <r_i_glide_esite>  (28) 
0

>  <r_i_glide_emodel>  (28) 
-47.3231

>  <r_i_glide_energy>  (28) 
-32.0432

>  <r_i_glide_einternal>  (28) 
4.35775

>  <r_i_glide_intrahb_reward>  (28) 
-1

>  <i_i_glide_confnum>  (28) 
3

>  <i_i_glide_posenum>  (28) 
33

>  <r_i_glide_eff_state_penalty>  (28) 
0

>  <ligand_id>  (28) 
6

>  <original_smiles>  (28) 
CC1(C)CC(O)C2C(O)C3(C)C4CCC56C(O)C(OC5C(C)(C)C4C(OO)C3(C)C2OC1O)C6O

>  <smiles>  (28) 
[H]OOC1([H])C2([H])C([H])(C([H])([H])C([H])([H])C34C([H])(O[H])C([H])(OC3([H])C2(C([H])([H])[H])C([H])([H])[H])C4([H])O[H])C2(C([H])([H])[H])C([H])(O[H])C3([H])C([H])(O[H])C([H])([H])C(C([H])([H])[H])(C([H])([H])[H])C([H])(O[H])OC3([H])C12C([H])([H])[H]

$$$$
6:0:1
     RDKit          3D

 77 82  0  0  1  0  0  0  0  0999 V2000
    2.1394    2.4753    2.5170 C   0  0  0  0  0  0  0  0  0  0  0  0
    2.2303    1.2174    3.4357 C   0  0  0  0  0  0  0  0  0  0  0  0
    2.6657    1.7541    4.8234 C   0  0  0  0  0  0  0  0  0  0  0  0
    0.7951    0.5961    3.4785 C   0  0  0  0  0  0  0  0  0  0  0  0
    0.4973   -0.4476    4.5737 C   0  0  1  0  0  0  0  0  0  0  0  0
   -0.9076   -0.6060    4.6588 O   0  0  0  0  0  0  0  0  0  0  0  0
    1.1060   -1.8306    4.3016 C   0  0  2  0  0  0  0  0  0  0  0  0
    1.0107   -2.8341    5.4521 C   0  0  1  0  0  0  0  0  0  0  0  0
   -0.2936   -3.3421    5.6311 O   0  0  0  0  0  0  0  0  0  0  0  0
    2.1110   -3.9109    5.2124 C   0  0  1  0  0  0  0  0  0  0  0  0
    2.7282   -4.2770    6.5921 C   0  0  0  0  0  0  0  0  0  0  0  0
    1.6066   -5.1814    4.4268 C   0  0  2  0  0  0  0  0  0  0  0  0
    1.1483   -6.3547    5.3367 C   0  0  0  0  0  0  0  0  0  0  0  0
    0.3238   -7.4363    4.6278 C   0  0  0  0  0  0  0  0  0  0  0  0
    1.1272   -8.4736    3.8253 C   0  0  2  0  0  0  0  0  0  0  0  0
    1.5290   -9.8237    4.4387 C   0  0  1  0  0  0  0  0  0  0  0  0
    0.6128  -10.5763    5.2194 O   0  0  0  0  0  0  0  0  0  0  0  0
    1.6457  -10.1199    2.9508 C   0  0  2  0  0  0  0  0  0  0  0  0
    2.6701   -9.2148    2.4670 O   0  0  0  0  0  0  0  0  0  0  0  0
    2.4614   -8.0084    3.2224 C   0  0  1  0  0  0  0  0  0  0  0  0
    2.5670   -6.6853    2.4063 C   0  0  0  0  0  0  0  0  0  0  0  0
    3.8722   -6.8030    1.5904 C   0  0  0  0  0  0  0  0  0  0  0  0
    1.3714   -6.5240    1.4225 C   0  0  0  0  0  0  0  0  0  0  0  0
    2.7372   -5.4952    3.4349 C   0  0  1  0  0  0  0  0  0  0  0  0
    3.1537   -4.0864    2.9426 C   0  0  1  0  0  0  0  0  0  0  0  0
    2.2175   -3.5789    1.9869 O   0  0  0  0  0  0  0  0  0  0  0  0
    2.8041   -3.7353    0.6348 O   0  0  0  0  0  0  0  0  0  0  0  0
    3.1427   -3.2195    4.2328 C   0  0  2  0  0  0  0  0  0  0  0  0
    4.6019   -3.1501    4.7496 C   0  0  0  0  0  0  0  0  0  0  0  0
    2.6092   -1.7591    4.0959 C   0  0  1  0  0  0  0  0  0  0  0  0
    2.8896   -1.1134    2.8640 O   0  0  0  0  0  0  0  0  0  0  0  0
    3.3274    0.2114    2.8903 C   0  0  1  0  0  0  0  0  0  0  0  0
    3.8036    0.5723    1.6253 O   0  0  0  0  0  0  0  0  0  0  0  0
    0.3764   -9.2977    2.7677 C   0  0  1  0  0  0  0  0  0  0  0  0
   -0.8974   -9.8591    3.0264 O   0  0  0  0  0  0  0  0  0  0  0  0
    1.4376    3.2094    2.8997 H   0  0  0  0  0  0  0  0  0  0  0  0
    1.8044    2.2169    1.5145 H   0  0  0  0  0  0  0  0  0  0  0  0
    3.0990    2.9903    2.4421 H   0  0  0  0  0  0  0  0  0  0  0  0
    2.8148    0.9661    5.5606 H   0  0  0  0  0  0  0  0  0  0  0  0
    1.9289    2.4520    5.2296 H   0  0  0  0  0  0  0  0  0  0  0  0
    3.6047    2.2989    4.7414 H   0  0  0  0  0  0  0  0  0  0  0  0
    0.1097    1.4154    3.6461 H   0  0  0  0  0  0  0  0  0  0  0  0
    0.5265    0.2007    2.4885 H   0  0  0  0  0  0  0  0  0  0  0  0
    0.8219   -0.0687    5.5510 H   0  0  0  0  0  0  0  0  0  0  0  0
   -1.0772   -1.3317    5.2538 H   0  0  0  0  0  0  0  0  0  0  0  0
    0.6607   -2.2487    3.3974 H   0  0  0  0  0  0  0  0  0  0  0  0
    1.2457   -2.2897    6.3756 H   0  0  0  0  0  0  0  0  0  0  0  0
   -0.4922   -3.8838    4.8733 H   0  0  0  0  0  0  0  0  0  0  0  0
    3.5131   -5.0319    6.5071 H   0  0  0  0  0  0  0  0  0  0  0  0
    1.9772   -4.6622    7.2822 H   0  0  0  0  0  0  0  0  0  0  0  0
    3.1591   -3.4075    7.0825 H   0  0  0  0  0  0  0  0  0  0  0  0
    0.7539   -4.8857    3.8158 H   0  0  0  0  0  0  0  0  0  0  0  0
    1.9812   -6.8191    5.8716 H   0  0  0  0  0  0  0  0  0  0  0  0
    0.4957   -5.9528    6.1088 H   0  0  0  0  0  0  0  0  0  0  0  0
   -0.2560   -7.9631    5.3739 H   0  0  0  0  0  0  0  0  0  0  0  0
   -0.4266   -6.9600    3.9897 H   0  0  0  0  0  0  0  0  0  0  0  0
    2.4804   -9.8174    4.9539 H   0  0  0  0  0  0  0  0  0  0  0  0
    1.1062  -11.1482    5.8118 H   0  0  0  0  0  0  0  0  0  0  0  0
    1.6325  -11.1556    2.6008 H   0  0  0  0  0  0  0  0  0  0  0  0
    3.2347   -7.9970    3.9915 H   0  0  0  0  0  0  0  0  0  0  0  0
    4.0794   -5.9288    0.9801 H   0  0  0  0  0  0  0  0  0  0  0  0
    3.8451   -7.6522    0.9053 H   0  0  0  0  0  0  0  0  0  0  0  0
    4.7397   -6.9498    2.2396 H   0  0  0  0  0  0  0  0  0  0  0  0
    1.4816   -5.6815    0.7294 H   0  0  0  0  0  0  0  0  0  0  0  0
    0.4150   -6.4364    1.9458 H   0  0  0  0  0  0  0  0  0  0  0  0
    1.3095   -7.4140    0.7952 H   0  0  0  0  0  0  0  0  0  0  0  0
    3.5739   -5.8164    4.0694 H   0  0  0  0  0  0  0  0  0  0  0  0
    4.1635   -4.1025    2.5263 H   0  0  0  0  0  0  0  0  0  0  0  0
    3.1806   -2.8756    0.5128 H   0  0  0  0  0  0  0  0  0  0  0  0
    5.2393   -2.6548    4.0210 H   0  0  0  0  0  0  0  0  0  0  0  0
    5.0296   -4.1429    4.9241 H   0  0  0  0  0  0  0  0  0  0  0  0
    4.7031   -2.5825    5.6820 H   0  0  0  0  0  0  0  0  0  0  0  0
    3.0295   -1.1877    4.9296 H   0  0  0  0  0  0  0  0  0  0  0  0
    4.2157    0.2389    3.5345 H   0  0  0  0  0  0  0  0  0  0  0  0
    4.1096    1.4527    1.6569 H   0  0  0  0  0  0  0  0  0  0  0  0
    0.3318   -8.8615    1.7876 H   0  0  0  0  0  0  0  0  0  0  0  0
   -0.8787  -10.2534    3.9024 H   0  0  0  0  0  0  0  0  0  0  0  0
  1  2  1  0
  1 36  1  0
  1 37  1  0
  1 38  1  0
  2 32  1  0
  2  3  1  0
  2  4  1  0
  3 39  1  0
  3 40  1  0
  3 41  1  0
  4  5  1  0
  4 42  1  0
  4 43  1  0
  5  6  1  0
  5  7  1  0
  5 44  1  1
  6 45  1  0
  7 30  1  0
  7  8  1  0
  7 46  1  6
  8  9  1  0
  8 10  1  0
  8 47  1  1
  9 48  1  0
 10 28  1  0
 10 11  1  1
 10 12  1  0
 11 49  1  0
 11 50  1  0
 11 51  1  0
 12 24  1  0
 12 13  1  0
 12 52  1  6
 13 14  1  0
 13 53  1  0
 13 54  1  0
 15 14  1  1
 14 55  1  0
 14 56  1  0
 15 20  1  0
 15 34  1  0
 15 16  1  0
 16 17  1  0
 16 18  1  0
 16 57  1  1
 17 58  1  0
 18 19  1  0
 18 34  1  0
 18 59  1  1
 19 20  1  0
 20 21  1  0
 20 60  1  1
 21 22  1  0
 21 23  1  0
 21 24  1  0
 22 61  1  0
 22 62  1  0
 22 63  1  0
 23 64  1  0
 23 65  1  0
 23 66  1  0
 24 25  1  0
 24 67  1  1
 25 26  1  0
 25 28  1  0
 25 68  1  6
 26 27  1  0
 27 69  1  0
 28 29  1  1
 28 30  1  0
 29 70  1  0
 29 71  1  0
 29 72  1  0
 30 31  1  0
 30 73  1  1
 31 32  1  0
 32 33  1  0
 32 74  1  1
 33 75  1  0
 34 35  1  0
 34 76  1  6
 35 77  1  0
M  END
>  <i_m_ct_stereo_status>  (29) 
1

>  <s_m_source_file>  (29) 
/var/tmp/pbs.5076255.sched01/tmp3_il56_a/09f63jmog.sdf

>  <i_m_source_file_index>  (29) 
10

>  <i_lp_mmshare_version>  (29) 
48012

>  <i_f3d_flags>  (29) 
0

>  <s_epik_input>  (29) 
TzFbQ0BASF0oW09IXSlDKFtDSDNdKShbQ0gzXSlbQ0gyXVtDQEBIXShbT0hdKVtDQEhdKFtDQEhdMltPSF0pW0NASF0xW0NAXShbQ0gzXSkoW0NAQEhdM09bT0hdKVtDQF0yKFtDSDNdKVtDQEhdKFtDSDJdW0NIMl00KVtDQEhdM0MoW0NIM10pKFtDSDNdKVtDQEBIXShbQ0BdNDU2KU9bQ0BASF0oW0NAQEhdNVtPSF0pW0NASF02W09IXQ==

>  <s_epik_cmdline>  (29) 
J2VwaWtfcHl0aG9uJywgJy1waHQnLCAnMi4wJywgJy1waCcsICc3LjAnLCAnLXRuJywgJzgnLCAnLW1hJywgJzIwMCcsICctaW1hZScsICc8aW5maWxlLm1hZT4nLCAnLW9tYWUnLCAnPG91dGZpbGUubWFlPic=

>  <r_lp_tautomer_probability>  (29) 
1

>  <r_epik_Ionization_Penalty>  (29) 
5.39731e-06

>  <r_epik_Ionization_Penalty_Charging>  (29) 
0

>  <r_epik_Ionization_Penalty_Neutral>  (29) 
5.39731e-06

>  <r_epik_State_Penalty>  (29) 
-0

>  <r_epik_Charging_Adjusted_Penalty>  (29) 
0

>  <i_epik_Tot_Q>  (29) 
0

>  <i_epik_Tot_abs_Q>  (29) 
0

>  <s_epik_Chemistry_Notes>  (29) 
This compound contains an acetal/aminal-like group ( X-CH(R)-Y where X, Y are N, S, or O) that may be acid/base labile, releasing an aldehyde.

>  <s_lp_Force_Field>  (29) 
OPLS3e

>  <r_lp_Energy>  (29) 
90.2533

>  <b_lp_Chiralities_Consistent>  (29) 
1

>  <s_lp_Variant>  (29) 
6:0-1

>  <s_i_glide_gridfile>  (29) 
pfpi4k_grid

>  <i_i_glide_lignum>  (29) 
10

>  <i_i_glide_rotatable_bonds>  (29) 
7

>  <r_i_docking_score>  (29) 
-2.76287

>  <r_i_glide_ligand_efficiency>  (29) 
-0.0789392

>  <r_i_glide_ligand_efficiency_sa>  (29) 
-0.258215

>  <r_i_glide_ligand_efficiency_ln>  (29) 
-0.606511

>  <r_i_glide_gscore>  (29) 
-2.76287

>  <r_i_glide_lipo>  (29) 
-0.16269

>  <r_i_glide_hbond>  (29) 
0

>  <r_i_glide_metal>  (29) 
-0

>  <r_i_glide_rewards>  (29) 
-0.529826

>  <r_i_glide_evdw>  (29) 
-28.5259

>  <r_i_glide_ecoul>  (29) 
-4.84099

>  <r_i_glide_erotb>  (29) 
0.0820856

>  <r_i_glide_esite>  (29) 
0

>  <r_i_glide_emodel>  (29) 
-42.5037

>  <r_i_glide_energy>  (29) 
-33.3668

>  <r_i_glide_einternal>  (29) 
3.70988

>  <r_i_glide_intrahb_reward>  (29) 
-0.5

>  <i_i_glide_confnum>  (29) 
3

>  <i_i_glide_posenum>  (29) 
34

>  <r_i_glide_eff_state_penalty>  (29) 
0

>  <ligand_id>  (29) 
6

>  <original_smiles>  (29) 
CC1(C)CC(O)C2C(O)C3(C)C4CCC56C(O)C(OC5C(C)(C)C4C(OO)C3(C)C2OC1O)C6O

>  <smiles>  (29) 
[H]OOC1([H])C2([H])C([H])(C([H])([H])C([H])([H])C34C([H])(O[H])C([H])(OC3([H])C2(C([H])([H])[H])C([H])([H])[H])C4([H])O[H])C2(C([H])([H])[H])C([H])(O[H])C3([H])C([H])(O[H])C([H])([H])C(C([H])([H])[H])(C([H])([H])[H])C([H])(O[H])OC3([H])C12C([H])([H])[H]

$$$$
6:0:2
     RDKit          3D

 77 82  0  0  1  0  0  0  0  0999 V2000
    1.3684    1.3325    2.0739 C   0  0  0  0  0  0  0  0  0  0  0  0
    1.9612    0.1979    2.9525 C   0  0  0  0  0  0  0  0  0  0  0  0
    2.7285    0.9130    4.0923 C   0  0  0  0  0  0  0  0  0  0  0  0
    0.7546   -0.6128    3.5102 C   0  0  0  0  0  0  0  0  0  0  0  0
    0.9993   -1.5882    4.6882 C   0  0  1  0  0  0  0  0  0  0  0  0
   -0.2556   -1.9261    5.2502 O   0  0  0  0  0  0  0  0  0  0  0  0
    1.6975   -2.8943    4.2702 C   0  0  2  0  0  0  0  0  0  0  0  0
    2.1486   -3.7971    5.4180 C   0  0  1  0  0  0  0  0  0  0  0  0
    1.0681   -4.4804    6.0293 O   0  0  0  0  0  0  0  0  0  0  0  0
    3.2816   -4.7151    4.8527 C   0  0  1  0  0  0  0  0  0  0  0  0
    4.3710   -4.8622    5.9561 C   0  0  0  0  0  0  0  0  0  0  0  0
    2.7670   -6.1108    4.3402 C   0  0  2  0  0  0  0  0  0  0  0  0
    2.8371   -7.2518    5.3939 C   0  0  0  0  0  0  0  0  0  0  0  0
    2.0100   -8.4908    5.0472 C   0  0  0  0  0  0  0  0  0  0  0  0
    2.6504   -9.4669    4.0597 C   0  0  2  0  0  0  0  0  0  0  0  0
    3.4580  -10.6758    4.5612 C   0  0  1  0  0  0  0  0  0  0  0  0
    3.0206  -11.4566    5.6550 O   0  0  0  0  0  0  0  0  0  0  0  0
    3.1166  -11.0942    3.1262 C   0  0  2  0  0  0  0  0  0  0  0  0
    3.7584  -10.1085    2.3029 O   0  0  0  0  0  0  0  0  0  0  0  0
    3.6252   -8.8826    3.0311 C   0  0  1  0  0  0  0  0  0  0  0  0
    3.2452   -7.6312    2.1743 C   0  0  0  0  0  0  0  0  0  0  0  0
    4.2150   -7.6410    0.9646 C   0  0  0  0  0  0  0  0  0  0  0  0
    1.7821   -7.7285    1.6536 C   0  0  0  0  0  0  0  0  0  0  0  0
    3.5419   -6.3432    3.0328 C   0  0  1  0  0  0  0  0  0  0  0  0
    3.5196   -4.9393    2.3738 C   0  0  1  0  0  0  0  0  0  0  0  0
    2.2525   -4.6479    1.7724 O   0  0  0  0  0  0  0  0  0  0  0  0
    2.3479   -4.9227    0.3294 O   0  0  0  0  0  0  0  0  0  0  0  0
    3.7978   -3.9723    3.5624 C   0  0  2  0  0  0  0  0  0  0  0  0
    5.3099   -3.6555    3.5456 C   0  0  0  0  0  0  0  0  0  0  0  0
    3.0169   -2.6267    3.5614 C   0  0  1  0  0  0  0  0  0  0  0  0
    2.7639   -2.0552    2.2840 O   0  0  0  0  0  0  0  0  0  0  0  0
    2.9686   -0.6922    2.1264 C   0  0  1  0  0  0  0  0  0  0  0  0
    2.9715   -0.3920    0.7657 O   0  0  0  0  0  0  0  0  0  0  0  0
    1.7354  -10.5052    3.3723 C   0  0  1  0  0  0  0  0  0  0  0  0
    0.7900  -11.2382    4.1279 O   0  0  0  0  0  0  0  0  0  0  0  0
    0.7236    2.0054    2.6480 H   0  0  0  0  0  0  0  0  0  0  0  0
    0.7613    0.9375    1.2592 H   0  0  0  0  0  0  0  0  0  0  0  0
    2.1548    1.9513    1.6437 H   0  0  0  0  0  0  0  0  0  0  0  0
    3.2450    0.2247    4.7669 H   0  0  0  0  0  0  0  0  0  0  0  0
    2.0647    1.5352    4.7064 H   0  0  0  0  0  0  0  0  0  0  0  0
    3.4909    1.5809    3.6803 H   0  0  0  0  0  0  0  0  0  0  0  0
    0.0171    0.1105    3.8740 H   0  0  0  0  0  0  0  0  0  0  0  0
    0.2649   -1.1390    2.6924 H   0  0  0  0  0  0  0  0  0  0  0  0
    1.5598   -1.0856    5.4767 H   0  0  0  0  0  0  0  0  0  0  0  0
   -0.1016   -2.5754    5.9258 H   0  0  0  0  0  0  0  0  0  0  0  0
    1.0533   -3.4474    3.5916 H   0  0  0  0  0  0  0  0  0  0  0  0
    2.5771   -3.1490    6.1853 H   0  0  0  0  0  0  0  0  0  0  0  0
    0.8010   -5.1803    5.4509 H   0  0  0  0  0  0  0  0  0  0  0  0
    5.1973   -5.5005    5.6417 H   0  0  0  0  0  0  0  0  0  0  0  0
    3.9649   -5.2840    6.8774 H   0  0  0  0  0  0  0  0  0  0  0  0
    4.7887   -3.8960    6.2391 H   0  0  0  0  0  0  0  0  0  0  0  0
    1.7225   -6.0035    4.0443 H   0  0  0  0  0  0  0  0  0  0  0  0
    3.8639   -7.5397    5.6268 H   0  0  0  0  0  0  0  0  0  0  0  0
    2.4217   -6.8763    6.3272 H   0  0  0  0  0  0  0  0  0  0  0  0
    1.8106   -9.0312    5.9696 H   0  0  0  0  0  0  0  0  0  0  0  0
    1.0266   -8.1868    4.6926 H   0  0  0  0  0  0  0  0  0  0  0  0
    4.5252  -10.4939    4.6823 H   0  0  0  0  0  0  0  0  0  0  0  0
    2.1069  -11.6794    5.5113 H   0  0  0  0  0  0  0  0  0  0  0  0
    3.1732  -12.1439    2.8385 H   0  0  0  0  0  0  0  0  0  0  0  0
    4.5983   -8.6801    3.4901 H   0  0  0  0  0  0  0  0  0  0  0  0
    4.0486   -6.8048    0.2879 H   0  0  0  0  0  0  0  0  0  0  0  0
    4.1092   -8.5517    0.3739 H   0  0  0  0  0  0  0  0  0  0  0  0
    5.2514   -7.6023    1.2910 H   0  0  0  0  0  0  0  0  0  0  0  0
    1.5227   -6.9343    0.9422 H   0  0  0  0  0  0  0  0  0  0  0  0
    1.0455   -7.7572    2.4711 H   0  0  0  0  0  0  0  0  0  0  0  0
    1.6689   -8.6907    1.1333 H   0  0  0  0  0  0  0  0  0  0  0  0
    4.5703   -6.4805    3.3519 H   0  0  0  0  0  0  0  0  0  0  0  0
    4.3220   -4.8555    1.6306 H   0  0  0  0  0  0  0  0  0  0  0  0
    2.7759   -4.1453    0.0491 H   0  0  0  0  0  0  0  0  0  0  0  0
    5.5799   -3.1387    2.6247 H   0  0  0  0  0  0  0  0  0  0  0  0
    5.9209   -4.5563    3.6002 H   0  0  0  0  0  0  0  0  0  0  0  0
    5.6103   -3.0010    4.3636 H   0  0  0  0  0  0  0  0  0  0  0  0
    3.5883   -1.9283    4.1768 H   0  0  0  0  0  0  0  0  0  0  0  0
    3.9873   -0.4888    2.4386 H   0  0  0  0  0  0  0  0  0  0  0  0
    2.1199   -0.6300    0.3933 H   0  0  0  0  0  0  0  0  0  0  0  0
    1.2501  -10.2081    2.4536 H   0  0  0  0  0  0  0  0  0  0  0  0
    0.0273  -10.6918    4.2726 H   0  0  0  0  0  0  0  0  0  0  0  0
  1  2  1  0
  1 36  1  0
  1 37  1  0
  1 38  1  0
  2 32  1  0
  2  3  1  0
  2  4  1  0
  3 39  1  0
  3 40  1  0
  3 41  1  0
  4  5  1  0
  4 42  1  0
  4 43  1  0
  5  6  1  0
  5  7  1  0
  5 44  1  1
  6 45  1  0
  7 30  1  0
  7  8  1  0
  7 46  1  6
  8  9  1  0
  8 10  1  0
  8 47  1  1
  9 48  1  0
 10 28  1  0
 10 11  1  1
 10 12  1  0
 11 49  1  0
 11 50  1  0
 11 51  1  0
 12 24  1  0
 12 13  1  0
 12 52  1  6
 13 14  1  0
 13 53  1  0
 13 54  1  0
 15 14  1  1
 14 55  1  0
 14 56  1  0
 15 20  1  0
 15 34  1  0
 15 16  1  0
 16 17  1  0
 16 18  1  0
 16 57  1  6
 17 58  1  0
 18 19  1  0
 18 34  1  0
 18 59  1  6
 19 20  1  0
 20 21  1  0
 20 60  1  1
 21 22  1  0
 21 23  1  0
 21 24  1  0
 22 61  1  0
 22 62  1  0
 22 63  1  0
 23 64  1  0
 23 65  1  0
 23 66  1  0
 24 25  1  0
 24 67  1  1
 25 26  1  0
 25 28  1  0
 25 68  1  6
 26 27  1  0
 27 69  1  0
 28 29  1  1
 28 30  1  0
 29 70  1  0
 29 71  1  0
 29 72  1  0
 30 31  1  0
 30 73  1  1
 31 32  1  0
 32 33  1  0
 32 74  1  1
 33 75  1  0
 34 35  1  0
 34 76  1  6
 35 77  1  0
M  END
>  <i_m_ct_stereo_status>  (30) 
1

>  <s_m_source_file>  (30) 
/var/tmp/pbs.5076255.sched01/tmp3_il56_a/09f63jmog.sdf

>  <i_m_source_file_index>  (30) 
10

>  <i_lp_mmshare_version>  (30) 
48012

>  <i_f3d_flags>  (30) 
0

>  <s_epik_input>  (30) 
TzFbQ0BASF0oW09IXSlDKFtDSDNdKShbQ0gzXSlbQ0gyXVtDQEBIXShbT0hdKVtDQEhdKFtDQEhdMltPSF0pW0NASF0xW0NAXShbQ0gzXSkoW0NAQEhdM09bT0hdKVtDQF0yKFtDSDNdKVtDQEhdKFtDSDJdW0NIMl00KVtDQEhdM0MoW0NIM10pKFtDSDNdKVtDQEBIXShbQ0BdNDU2KU9bQ0BASF0oW0NAQEhdNVtPSF0pW0NASF02W09IXQ==

>  <s_epik_cmdline>  (30) 
J2VwaWtfcHl0aG9uJywgJy1waHQnLCAnMi4wJywgJy1waCcsICc3LjAnLCAnLXRuJywgJzgnLCAnLW1hJywgJzIwMCcsICctaW1hZScsICc8aW5maWxlLm1hZT4nLCAnLW9tYWUnLCAnPG91dGZpbGUubWFlPic=

>  <r_lp_tautomer_probability>  (30) 
1

>  <r_epik_Ionization_Penalty>  (30) 
5.39731e-06

>  <r_epik_Ionization_Penalty_Charging>  (30) 
0

>  <r_epik_Ionization_Penalty_Neutral>  (30) 
5.39731e-06

>  <r_epik_State_Penalty>  (30) 
-0

>  <r_epik_Charging_Adjusted_Penalty>  (30) 
0

>  <i_epik_Tot_Q>  (30) 
0

>  <i_epik_Tot_abs_Q>  (30) 
0

>  <s_epik_Chemistry_Notes>  (30) 
This compound contains an acetal/aminal-like group ( X-CH(R)-Y where X, Y are N, S, or O) that may be acid/base labile, releasing an aldehyde.

>  <s_lp_Force_Field>  (30) 
OPLS3e

>  <r_lp_Energy>  (30) 
90.2533

>  <b_lp_Chiralities_Consistent>  (30) 
1

>  <s_lp_Variant>  (30) 
6:0-1

>  <s_i_glide_gridfile>  (30) 
pfpi4k_grid

>  <i_i_glide_lignum>  (30) 
10

>  <i_i_glide_rotatable_bonds>  (30) 
7

>  <r_i_docking_score>  (30) 
-2.7056

>  <r_i_glide_ligand_efficiency>  (30) 
-0.0773028

>  <r_i_glide_ligand_efficiency_sa>  (30) 
-0.252863

>  <r_i_glide_ligand_efficiency_ln>  (30) 
-0.593939

>  <r_i_glide_gscore>  (30) 
-2.7056

>  <r_i_glide_lipo>  (30) 
-0.210502

>  <r_i_glide_hbond>  (30) 
0

>  <r_i_glide_metal>  (30) 
-0

>  <r_i_glide_rewards>  (30) 
-0.509503

>  <r_i_glide_evdw>  (30) 
-28.099

>  <r_i_glide_ecoul>  (30) 
-4.29701

>  <r_i_glide_erotb>  (30) 
0.0820856

>  <r_i_glide_esite>  (30) 
-0.0181742

>  <r_i_glide_emodel>  (30) 
-42.244

>  <r_i_glide_energy>  (30) 
-32.396

>  <r_i_glide_einternal>  (30) 
1.42191

>  <r_i_glide_intrahb_reward>  (30) 
-0.5

>  <i_i_glide_confnum>  (30) 
1

>  <i_i_glide_posenum>  (30) 
31

>  <r_i_glide_eff_state_penalty>  (30) 
0

>  <ligand_id>  (30) 
6

>  <original_smiles>  (30) 
CC1(C)CC(O)C2C(O)C3(C)C4CCC56C(O)C(OC5C(C)(C)C4C(OO)C3(C)C2OC1O)C6O

>  <smiles>  (30) 
[H]OOC1([H])C2([H])C([H])(C([H])([H])C([H])([H])C34C([H])(O[H])C([H])(OC3([H])C2(C([H])([H])[H])C([H])([H])[H])C4([H])O[H])C2(C([H])([H])[H])C([H])(O[H])C3([H])C([H])(O[H])C([H])([H])C(C([H])([H])[H])(C([H])([H])[H])C([H])(O[H])OC3([H])C12C([H])([H])[H]

$$$$
7:0:0
     RDKit          3D

 86 92  0  0  1  0  0  0  0  0999 V2000
    2.9187   -3.9011   -0.1571 C   0  0  0  0  0  0  0  0  0  0  0  0
    3.0781   -4.2170    1.2217 O   0  0  0  0  0  0  0  0  0  0  0  0
    4.2665   -3.7769    1.8761 C   0  0  2  0  0  0  0  0  0  0  0  0
    5.4886   -4.6345    1.3979 C   0  0  0  0  0  0  0  0  0  0  0  0
    5.8268   -5.9232    2.2158 C   0  0  1  0  0  0  0  0  0  0  0  0
    7.1978   -5.8826    2.9114 C   0  0  0  0  0  0  0  0  0  0  0  0
    8.1453   -5.4536    2.2280 O   0  0  0  0  0  0  0  0  0  0  0  0
    7.2924   -6.2870    4.0961 O   0  0  0  0  0  0  0  0  0  0  0  0
    4.6642   -6.4215    3.1309 C   0  0  2  0  0  0  0  0  0  0  0  0
    3.6807   -7.2714    2.1809 C   0  0  0  0  0  0  0  0  0  0  0  0
    3.4418   -6.8406    1.0557 O   0  0  0  0  0  0  0  0  0  0  0  0
    3.1928   -8.7871    2.4034 C   0  0  1  0  0  0  0  0  0  0  0  0
    4.2346   -9.7776    2.4718 O   0  0  0  0  0  0  0  0  0  0  0  0
    5.3513   -9.8106    1.7171 C   0  0  0  0  0  0  0  0  0  0  0  0
    6.2680  -10.9668    2.0428 C   0  0  0  0  0  0  0  0  0  0  0  0
    5.6640   -9.0264    0.8273 O   0  0  0  0  0  0  0  0  0  0  0  0
    1.8628   -9.1915    3.2335 C   0  0  2  0  0  0  0  0  0  0  0  0
    0.8770   -8.3798    2.5798 O   0  0  0  0  0  0  0  0  0  0  0  0
   -0.4379   -8.2207    3.0269 C   0  0  0  0  0  0  0  0  0  0  0  0
   -1.1531   -7.5023    1.9018 C   0  0  0  0  0  0  0  0  0  0  0  0
   -1.1748   -9.5707    3.1563 C   0  0  0  0  0  0  0  0  0  0  0  0
   -0.6007   -7.3671    4.1749 O   0  0  0  0  0  0  0  0  0  0  0  0
    0.4559   -7.2322    5.1339 C   0  0  1  0  0  0  0  0  0  0  0  0
    0.5946   -8.6707    5.6050 C   0  0  0  0  0  0  0  0  0  0  0  0
    1.8022   -9.3117    4.8532 C   0  0  2  0  0  0  0  0  0  0  0  0
    3.0099   -8.6448    5.4873 C   0  0  0  0  0  0  0  0  0  0  0  0
    3.0618   -8.5426    7.0514 C   0  0  0  0  0  0  0  0  0  0  0  0
    4.3159   -9.4528    5.2291 C   0  0  0  0  0  0  0  0  0  0  0  0
    2.9227   -7.3868    4.7539 O   0  0  0  0  0  0  0  0  0  0  0  0
    1.6956   -6.6007    4.5076 C   0  0  1  0  0  0  0  0  0  0  0  0
    1.3488   -5.6111    3.2866 C   0  0  0  0  0  0  0  0  0  0  0  0
    1.4769   -4.0831    3.4935 C   0  0  0  0  0  0  0  0  0  0  0  0
    2.7527   -3.6363    4.1863 C   0  0  2  0  0  0  0  0  0  0  0  0
    2.4310   -2.2180    4.6921 C   0  0  0  0  0  0  0  0  0  0  0  0
    4.1364   -3.7753    3.4296 C   0  0  2  0  0  0  0  0  0  0  0  0
    5.2219   -2.7360    3.7954 C   0  0  0  0  0  0  0  0  0  0  0  0
    4.2687   -5.1444    4.0945 C   0  0  1  0  0  0  0  0  0  0  0  0
    3.1489   -4.7231    5.2295 C   0  0  1  0  0  0  0  0  0  0  0  0
    3.7362   -4.1615    6.5478 C   0  0  0  0  0  0  0  0  0  0  0  0
    2.0439   -5.7794    5.6763 C   0  0  1  0  0  0  0  0  0  0  0  0
    0.4993   -5.9039    5.9873 C   0  0  0  0  0  0  0  0  0  0  0  0
    1.9323   -4.2333   -0.4796 H   0  0  0  0  0  0  0  0  0  0  0  0
    3.6367   -4.4194   -0.7875 H   0  0  0  0  0  0  0  0  0  0  0  0
    2.9820   -2.8301   -0.3431 H   0  0  0  0  0  0  0  0  0  0  0  0
    4.4181   -2.7615    1.4995 H   0  0  0  0  0  0  0  0  0  0  0  0
    5.3706   -4.9245    0.3565 H   0  0  0  0  0  0  0  0  0  0  0  0
    6.3673   -3.9902    1.3770 H   0  0  0  0  0  0  0  0  0  0  0  0
    6.0188   -6.6656    1.4565 H   0  0  0  0  0  0  0  0  0  0  0  0
    5.0868   -7.1650    3.7900 H   0  0  0  0  0  0  0  0  0  0  0  0
    2.8349   -8.9871    1.3907 H   0  0  0  0  0  0  0  0  0  0  0  0
    6.4357  -11.0310    3.1154 H   0  0  0  0  0  0  0  0  0  0  0  0
    7.2221  -10.8243    1.5398 H   0  0  0  0  0  0  0  0  0  0  0  0
    5.8307  -11.8973    1.6868 H   0  0  0  0  0  0  0  0  0  0  0  0
    1.6179  -10.1980    2.8956 H   0  0  0  0  0  0  0  0  0  0  0  0
   -0.6197   -6.6162    1.5590 H   0  0  0  0  0  0  0  0  0  0  0  0
   -2.1408   -7.2443    2.2890 H   0  0  0  0  0  0  0  0  0  0  0  0
   -1.2280   -8.1636    1.0321 H   0  0  0  0  0  0  0  0  0  0  0  0
   -0.5841  -10.3100    3.6857 H   0  0  0  0  0  0  0  0  0  0  0  0
   -1.3944  -10.0035    2.1767 H   0  0  0  0  0  0  0  0  0  0  0  0
   -2.1304   -9.4100    3.6584 H   0  0  0  0  0  0  0  0  0  0  0  0
    0.6351   -8.7455    6.6793 H   0  0  0  0  0  0  0  0  0  0  0  0
   -0.3204   -9.2355    5.4642 H   0  0  0  0  0  0  0  0  0  0  0  0
    1.8154  -10.3695    5.1228 H   0  0  0  0  0  0  0  0  0  0  0  0
    3.0461   -9.5379    7.5020 H   0  0  0  0  0  0  0  0  0  0  0  0
    2.2732   -7.9909    7.5534 H   0  0  0  0  0  0  0  0  0  0  0  0
    3.9864   -8.0566    7.3707 H   0  0  0  0  0  0  0  0  0  0  0  0
    4.1014  -10.4340    4.8023 H   0  0  0  0  0  0  0  0  0  0  0  0
    4.8864   -9.6785    6.1311 H   0  0  0  0  0  0  0  0  0  0  0  0
    5.0320   -8.9452    4.5960 H   0  0  0  0  0  0  0  0  0  0  0  0
    1.6515   -5.9223    2.3073 H   0  0  0  0  0  0  0  0  0  0  0  0
    0.2811   -5.6084    3.1456 H   0  0  0  0  0  0  0  0  0  0  0  0
    1.3254   -3.5498    2.5576 H   0  0  0  0  0  0  0  0  0  0  0  0
    0.6229   -3.7580    4.0861 H   0  0  0  0  0  0  0  0  0  0  0  0
    3.2638   -1.7675    5.2351 H   0  0  0  0  0  0  0  0  0  0  0  0
    1.5875   -2.2028    5.3840 H   0  0  0  0  0  0  0  0  0  0  0  0
    2.2061   -1.5374    3.8714 H   0  0  0  0  0  0  0  0  0  0  0  0
    5.4451   -2.6727    4.8486 H   0  0  0  0  0  0  0  0  0  0  0  0
    4.9535   -1.7321    3.4672 H   0  0  0  0  0  0  0  0  0  0  0  0
    6.1690   -2.9589    3.3173 H   0  0  0  0  0  0  0  0  0  0  0  0
    5.1439   -5.0418    4.7244 H   0  0  0  0  0  0  0  0  0  0  0  0
    4.3301   -4.9116    7.0672 H   0  0  0  0  0  0  0  0  0  0  0  0
    2.9370   -3.8603    7.2239 H   0  0  0  0  0  0  0  0  0  0  0  0
    4.3651   -3.2927    6.4407 H   0  0  0  0  0  0  0  0  0  0  0  0
    2.4717   -6.2644    6.5378 H   0  0  0  0  0  0  0  0  0  0  0  0
   -0.1200   -5.1069    5.5759 H   0  0  0  0  0  0  0  0  0  0  0  0
    0.2694   -6.0633    7.0335 H   0  0  0  0  0  0  0  0  0  0  0  0
  1  2  1  0
  1 42  1  0
  1 43  1  0
  1 44  1  0
  2  3  1  0
  3 35  1  0
  3  4  1  0
  3 45  1  6
  4  5  1  0
  4 46  1  0
  4 47  1  0
  5  6  1  0
  5  9  1  0
  5 48  1  6
  6  7  2  0
  6  8  1  0
  9 37  1  0
  9 10  1  0
  9 49  1  1
 10 11  2  0
 10 12  1  0
 12 13  1  0
 12 17  1  0
 12 50  1  6
 13 14  1  0
 14 15  1  0
 14 16  2  0
 15 51  1  0
 15 52  1  0
 15 53  1  0
 17 25  1  0
 17 18  1  0
 17 54  1  6
 18 19  1  0
 19 20  1  0
 19 21  1  0
 19 22  1  0
 20 55  1  0
 20 56  1  0
 20 57  1  0
 21 58  1  0
 21 59  1  0
 21 60  1  0
 23 22  1  6
 23 30  1  0
 23 41  1  0
 23 24  1  0
 24 25  1  0
 24 61  1  0
 24 62  1  0
 25 26  1  0
 25 63  1  6
 26 27  1  0
 26 28  1  0
 26 29  1  0
 27 64  1  0
 27 65  1  0
 27 66  1  0
 28 67  1  0
 28 68  1  0
 28 69  1  0
 29 30  1  0
 30 40  1  0
 30 31  1  6
 31 32  1  0
 31 70  1  0
 31 71  1  0
 32 33  1  0
 32 72  1  0
 32 73  1  0
 33 38  1  0
 33 34  1  1
 33 35  1  0
 34 74  1  0
 34 75  1  0
 34 76  1  0
 35 36  1  1
 35 37  1  0
 36 77  1  0
 36 78  1  0
 36 79  1  0
 37 38  1  0
 37 80  1  1
 38 39  1  1
 38 40  1  0
 39 81  1  0
 39 82  1  0
 39 83  1  0
 40 41  1  0
 40 84  1  1
 41 85  1  0
 41 86  1  0
M  CHG  1   8  -1
M  END
>  <i_m_ct_stereo_status>  (31) 
1

>  <s_m_source_file>  (31) 
/var/tmp/pbs.5076255.sched01/tmp3_il56_a/09f63jmog.sdf

>  <i_m_source_file_index>  (31) 
11

>  <i_lp_mmshare_version>  (31) 
48012

>  <i_f3d_flags>  (31) 
0

>  <s_epik_input>  (31) 
W0NIM11DKE8xKShbQ0gzXSlPW0NASF0oW0NASF0oW0NIMl0yKUMoTzMpKFtDSDNdKVtDSDNdKVtDQEhdKE9DKD1PKVtDSDNdKUMoPU8pW0NAQEhdKFtDQEhdKEMoPU8pW09IXSlbQ0gyXVtDQEhdNE9bQ0gzXSlbQ0BIXTVbQ0BdNChbQ0gzXSlbQ0BAXShbQ0gzXSkoW0NIMl1bQ0gyXTYpW0NAQF01KFtDSDNdKVtDQEhdKFtDQF0zNltDQEBdMTI3KVtDSDJdNw==

>  <s_epik_cmdline>  (31) 
J2VwaWtfcHl0aG9uJywgJy1waHQnLCAnMi4wJywgJy1waCcsICc3LjAnLCAnLXRuJywgJzgnLCAnLW1hJywgJzIwMCcsICctaW1hZScsICc8aW5maWxlLm1hZT4nLCAnLW9tYWUnLCAnPG91dGZpbGUubWFlPic=

>  <r_lp_tautomer_probability>  (31) 
1

>  <r_epik_Ionization_Penalty>  (31) 
0.00160973

>  <r_epik_Ionization_Penalty_Charging>  (31) 
0.00160973

>  <r_epik_Ionization_Penalty_Neutral>  (31) 
6.55956e-11

>  <r_epik_State_Penalty>  (31) 
0.00108358

>  <r_epik_Charging_Adjusted_Penalty>  (31) 
0.00269331

>  <i_epik_Tot_Q>  (31) 
-1

>  <i_epik_Tot_abs_Q>  (31) 
1

>  <s_epik_Chemistry_Notes>  (31) 
This compound has an ester and may undergo hydrolysis at high or low pH.

>  <s_lp_Force_Field>  (31) 
OPLS3e

>  <r_lp_Energy>  (31) 
265.72

>  <b_lp_Chiralities_Consistent>  (31) 
1

>  <s_lp_Variant>  (31) 
7:0-1

>  <s_i_glide_gridfile>  (31) 
pfpi4k_grid

>  <i_i_glide_lignum>  (31) 
11

>  <i_i_glide_rotatable_bonds>  (31) 
4

>  <r_i_docking_score>  (31) 
-1.51532

>  <r_i_glide_ligand_efficiency>  (31) 
-0.0369591

>  <r_i_glide_ligand_efficiency_sa>  (31) 
-0.127443

>  <r_i_glide_ligand_efficiency_ln>  (31) 
-0.321481

>  <r_i_glide_gscore>  (31) 
-1.51532

>  <r_i_glide_lipo>  (31) 
-0.139647

>  <r_i_glide_hbond>  (31) 
0

>  <r_i_glide_metal>  (31) 
-0

>  <r_i_glide_rewards>  (31) 
-0.0381183

>  <r_i_glide_evdw>  (31) 
-23.6141

>  <r_i_glide_ecoul>  (31) 
-0.697587

>  <r_i_glide_erotb>  (31) 
0.0633903

>  <r_i_glide_esite>  (31) 
-0.115605

>  <r_i_glide_emodel>  (31) 
-25.7221

>  <r_i_glide_energy>  (31) 
-24.3116

>  <r_i_glide_einternal>  (31) 
1.69781

>  <r_i_glide_intrahb_reward>  (31) 
-0

>  <i_i_glide_confnum>  (31) 
1

>  <i_i_glide_posenum>  (31) 
3

>  <r_i_glide_eff_state_penalty>  (31) 
0

>  <ligand_id>  (31) 
7

>  <original_smiles>  (31) 
COC1CC(C(=O)O)C2C(=O)C(OC(C)=O)C3OC(C)(C)OC45CC3C(C)(C)OC43CCC4(C)C1(C)C2C4(C)C3C5

>  <smiles>  (31) 
[H]C([H])([H])OC1([H])C([H])([H])C([H])(C(=O)[O-])C2([H])C(=O)C([H])(OC(=O)C([H])([H])[H])C3([H])OC(C([H])([H])[H])(C([H])([H])[H])OC45C([H])([H])C3([H])C(C([H])([H])[H])(C([H])([H])[H])OC43C([H])([H])C([H])([H])C4(C([H])([H])[H])C1(C([H])([H])[H])C2([H])C4(C([H])([H])[H])C3([H])C5([H])[H]

$$$$
7:0:1
     RDKit          3D

 86 92  0  0  1  0  0  0  0  0999 V2000
   -0.6188   -7.6182    2.4562 C   0  0  0  0  0  0  0  0  0  0  0  0
    0.1299   -6.9573    3.4515 O   0  0  0  0  0  0  0  0  0  0  0  0
   -0.0857   -7.3494    4.7874 C   0  0  2  0  0  0  0  0  0  0  0  0
   -0.1747   -6.0670    5.6720 C   0  0  0  0  0  0  0  0  0  0  0  0
    1.1183   -5.5775    6.4183 C   0  0  1  0  0  0  0  0  0  0  0  0
    1.0680   -5.7610    7.9674 C   0  0  0  0  0  0  0  0  0  0  0  0
    2.0738   -5.3084    8.5754 O   0  0  0  0  0  0  0  0  0  0  0  0
    0.0640   -6.2379    8.5396 O   0  0  0  0  0  0  0  0  0  0  0  0
    2.4461   -6.1480    5.8102 C   0  0  2  0  0  0  0  0  0  0  0  0
    2.7654   -5.1999    4.5360 C   0  0  0  0  0  0  0  0  0  0  0  0
    1.8419   -4.8797    3.7909 O   0  0  0  0  0  0  0  0  0  0  0  0
    4.1425   -4.4497    4.2126 C   0  0  1  0  0  0  0  0  0  0  0  0
    4.5314   -3.4668    5.1763 O   0  0  0  0  0  0  0  0  0  0  0  0
    3.7348   -2.4492    5.5905 C   0  0  0  0  0  0  0  0  0  0  0  0
    4.4445   -1.5270    6.5712 C   0  0  0  0  0  0  0  0  0  0  0  0
    2.5759   -2.2333    5.2379 O   0  0  0  0  0  0  0  0  0  0  0  0
    5.3908   -5.0881    3.4051 C   0  0  2  0  0  0  0  0  0  0  0  0
    4.7581   -5.5318    2.1958 O   0  0  0  0  0  0  0  0  0  0  0  0
    5.3501   -6.3290    1.2058 C   0  0  0  0  0  0  0  0  0  0  0  0
    4.3411   -6.2941    0.0345 C   0  0  0  0  0  0  0  0  0  0  0  0
    6.6596   -5.6776    0.6699 C   0  0  0  0  0  0  0  0  0  0  0  0
    5.5339   -7.7039    1.5721 O   0  0  0  0  0  0  0  0  0  0  0  0
    5.6666   -8.0986    2.9435 C   0  0  1  0  0  0  0  0  0  0  0  0
    6.9426   -7.3444    3.3273 C   0  0  0  0  0  0  0  0  0  0  0  0
    6.5204   -6.0492    4.0894 C   0  0  2  0  0  0  0  0  0  0  0  0
    6.0323   -6.5636    5.4470 C   0  0  0  0  0  0  0  0  0  0  0  0
    6.9259   -7.6275    6.1750 C   0  0  0  0  0  0  0  0  0  0  0  0
    6.0001   -5.4344    6.5028 C   0  0  0  0  0  0  0  0  0  0  0  0
    4.7203   -7.0065    5.0069 O   0  0  0  0  0  0  0  0  0  0  0  0
    4.4505   -7.7863    3.7768 C   0  0  1  0  0  0  0  0  0  0  0  0
    3.1219   -7.8132    2.9045 C   0  0  0  0  0  0  0  0  0  0  0  0
    2.1538   -9.0285    3.0168 C   0  0  0  0  0  0  0  0  0  0  0  0
    1.8057   -9.3753    4.4769 C   0  0  2  0  0  0  0  0  0  0  0  0
    1.2066  -10.7995    4.3974 C   0  0  0  0  0  0  0  0  0  0  0  0
    0.9491   -8.3731    5.3722 C   0  0  2  0  0  0  0  0  0  0  0  0
    0.0955   -9.0323    6.5101 C   0  0  0  0  0  0  0  0  0  0  0  0
    2.2825   -7.7905    5.8531 C   0  0  1  0  0  0  0  0  0  0  0  0
    3.0656   -9.1352    5.3370 C   0  0  1  0  0  0  0  0  0  0  0  0
    3.3030  -10.2046    6.4401 C   0  0  0  0  0  0  0  0  0  0  0  0
    4.4735   -8.9913    4.5902 C   0  0  1  0  0  0  0  0  0  0  0  0
    5.2544   -9.5832    3.3458 C   0  0  0  0  0  0  0  0  0  0  0  0
   -0.2035   -7.3689    1.4740 H   0  0  0  0  0  0  0  0  0  0  0  0
   -1.6984   -7.3111    2.4521 H   0  0  0  0  0  0  0  0  0  0  0  0
   -0.4981   -8.6839    2.5588 H   0  0  0  0  0  0  0  0  0  0  0  0
   -1.0913   -7.7708    4.8050 H   0  0  0  0  0  0  0  0  0  0  0  0
   -0.5545   -5.2397    5.0560 H   0  0  0  0  0  0  0  0  0  0  0  0
   -0.9745   -6.2214    6.3717 H   0  0  0  0  0  0  0  0  0  0  0  0
    1.1366   -4.4981    6.3231 H   0  0  0  0  0  0  0  0  0  0  0  0
    3.2180   -5.9064    6.5189 H   0  0  0  0  0  0  0  0  0  0  0  0
    3.7740   -3.7840    3.4277 H   0  0  0  0  0  0  0  0  0  0  0  0
    4.8791   -2.1028    7.3921 H   0  0  0  0  0  0  0  0  0  0  0  0
    3.7642   -0.7968    6.9881 H   0  0  0  0  0  0  0  0  0  0  0  0
    5.2559   -0.9915    6.0677 H   0  0  0  0  0  0  0  0  0  0  0  0
    5.9739   -4.2335    3.0712 H   0  0  0  0  0  0  0  0  0  0  0  0
    3.3401   -6.5654    0.3492 H   0  0  0  0  0  0  0  0  0  0  0  0
    4.6607   -6.9659   -0.7598 H   0  0  0  0  0  0  0  0  0  0  0  0
    4.2525   -5.2930   -0.3897 H   0  0  0  0  0  0  0  0  0  0  0  0
    7.3029   -5.3144    1.4669 H   0  0  0  0  0  0  0  0  0  0  0  0
    6.4353   -4.8187    0.0327 H   0  0  0  0  0  0  0  0  0  0  0  0
    7.2277   -6.3932    0.0811 H   0  0  0  0  0  0  0  0  0  0  0  0
    7.6375   -7.9794    3.8470 H   0  0  0  0  0  0  0  0  0  0  0  0
    7.5559   -7.1332    2.4585 H   0  0  0  0  0  0  0  0  0  0  0  0
    7.4141   -5.4764    4.2482 H   0  0  0  0  0  0  0  0  0  0  0  0
    7.9149   -7.2274    6.3943 H   0  0  0  0  0  0  0  0  0  0  0  0
    7.1084   -8.5673    5.6816 H   0  0  0  0  0  0  0  0  0  0  0  0
    6.4761   -7.9056    7.1316 H   0  0  0  0  0  0  0  0  0  0  0  0
    6.4956   -4.5287    6.1535 H   0  0  0  0  0  0  0  0  0  0  0  0
    6.5354   -5.6811    7.4274 H   0  0  0  0  0  0  0  0  0  0  0  0
    5.0141   -5.1708    6.8416 H   0  0  0  0  0  0  0  0  0  0  0  0
    2.5863   -6.8816    2.7603 H   0  0  0  0  0  0  0  0  0  0  0  0
    3.3700   -8.0234    1.8723 H   0  0  0  0  0  0  0  0  0  0  0  0
    1.2836   -8.9144    2.3437 H   0  0  0  0  0  0  0  0  0  0  0  0
    2.6602   -9.9202    2.6017 H   0  0  0  0  0  0  0  0  0  0  0  0
    0.9433  -11.2158    5.3555 H   0  0  0  0  0  0  0  0  0  0  0  0
    1.8888  -11.5161    3.9501 H   0  0  0  0  0  0  0  0  0  0  0  0
    0.2811  -10.8238    3.8139 H   0  0  0  0  0  0  0  0  0  0  0  0
    0.6263   -9.7065    7.1593 H   0  0  0  0  0  0  0  0  0  0  0  0
   -0.7392   -9.5921    6.0986 H   0  0  0  0  0  0  0  0  0  0  0  0
   -0.3378   -8.3065    7.1878 H   0  0  0  0  0  0  0  0  0  0  0  0
    2.3025   -7.9897    6.9089 H   0  0  0  0  0  0  0  0  0  0  0  0
    3.9610   -9.8433    7.2307 H   0  0  0  0  0  0  0  0  0  0  0  0
    3.7647  -11.1022    6.0134 H   0  0  0  0  0  0  0  0  0  0  0  0
    2.4104  -10.5699    6.9281 H   0  0  0  0  0  0  0  0  0  0  0  0
    5.2068   -9.0969    5.3620 H   0  0  0  0  0  0  0  0  0  0  0  0
    4.6700  -10.0680    2.5822 H   0  0  0  0  0  0  0  0  0  0  0  0
    6.1131  -10.2095    3.5943 H   0  0  0  0  0  0  0  0  0  0  0  0
  1  2  1  0
  1 42  1  0
  1 43  1  0
  1 44  1  0
  2  3  1  0
  3 35  1  0
  3  4  1  0
  3 45  1  6
  4  5  1  0
  4 46  1  0
  4 47  1  0
  5  6  1  0
  5  9  1  0
  5 48  1  1
  6  7  2  0
  6  8  1  0
  9 37  1  0
  9 10  1  0
  9 49  1  1
 10 11  2  0
 10 12  1  0
 12 13  1  0
 12 17  1  0
 12 50  1  6
 13 14  1  0
 14 15  1  0
 14 16  2  0
 15 51  1  0
 15 52  1  0
 15 53  1  0
 17 25  1  0
 17 18  1  0
 17 54  1  6
 18 19  1  0
 19 20  1  0
 19 21  1  0
 19 22  1  0
 20 55  1  0
 20 56  1  0
 20 57  1  0
 21 58  1  0
 21 59  1  0
 21 60  1  0
 23 22  1  6
 23 30  1  0
 23 41  1  0
 23 24  1  0
 24 25  1  0
 24 61  1  0
 24 62  1  0
 25 26  1  0
 25 63  1  1
 26 27  1  0
 26 28  1  0
 26 29  1  0
 27 64  1  0
 27 65  1  0
 27 66  1  0
 28 67  1  0
 28 68  1  0
 28 69  1  0
 29 30  1  0
 30 40  1  0
 30 31  1  6
 31 32  1  0
 31 70  1  0
 31 71  1  0
 32 33  1  0
 32 72  1  0
 32 73  1  0
 33 38  1  0
 33 34  1  6
 33 35  1  0
 34 74  1  0
 34 75  1  0
 34 76  1  0
 35 36  1  1
 35 37  1  0
 36 77  1  0
 36 78  1  0
 36 79  1  0
 37 38  1  0
 37 80  1  1
 38 39  1  1
 38 40  1  0
 39 81  1  0
 39 82  1  0
 39 83  1  0
 40 41  1  0
 40 84  1  1
 41 85  1  0
 41 86  1  0
M  CHG  1   8  -1
M  END
>  <i_m_ct_stereo_status>  (32) 
1

>  <s_m_source_file>  (32) 
/var/tmp/pbs.5076255.sched01/tmp3_il56_a/09f63jmog.sdf

>  <i_m_source_file_index>  (32) 
11

>  <i_lp_mmshare_version>  (32) 
48012

>  <i_f3d_flags>  (32) 
0

>  <s_epik_input>  (32) 
W0NIM11DKE8xKShbQ0gzXSlPW0NASF0oW0NASF0oW0NIMl0yKUMoTzMpKFtDSDNdKVtDSDNdKVtDQEhdKE9DKD1PKVtDSDNdKUMoPU8pW0NAQEhdKFtDQEhdKEMoPU8pW09IXSlbQ0gyXVtDQEhdNE9bQ0gzXSlbQ0BIXTVbQ0BdNChbQ0gzXSlbQ0BAXShbQ0gzXSkoW0NIMl1bQ0gyXTYpW0NAQF01KFtDSDNdKVtDQEhdKFtDQF0zNltDQEBdMTI3KVtDSDJdNw==

>  <s_epik_cmdline>  (32) 
J2VwaWtfcHl0aG9uJywgJy1waHQnLCAnMi4wJywgJy1waCcsICc3LjAnLCAnLXRuJywgJzgnLCAnLW1hJywgJzIwMCcsICctaW1hZScsICc8aW5maWxlLm1hZT4nLCAnLW9tYWUnLCAnPG91dGZpbGUubWFlPic=

>  <r_lp_tautomer_probability>  (32) 
1

>  <r_epik_Ionization_Penalty>  (32) 
0.00160973

>  <r_epik_Ionization_Penalty_Charging>  (32) 
0.00160973

>  <r_epik_Ionization_Penalty_Neutral>  (32) 
6.55956e-11

>  <r_epik_State_Penalty>  (32) 
0.00108358

>  <r_epik_Charging_Adjusted_Penalty>  (32) 
0.00269331

>  <i_epik_Tot_Q>  (32) 
-1

>  <i_epik_Tot_abs_Q>  (32) 
1

>  <s_epik_Chemistry_Notes>  (32) 
This compound has an ester and may undergo hydrolysis at high or low pH.

>  <s_lp_Force_Field>  (32) 
OPLS3e

>  <r_lp_Energy>  (32) 
265.72

>  <b_lp_Chiralities_Consistent>  (32) 
1

>  <s_lp_Variant>  (32) 
7:0-1

>  <s_i_glide_gridfile>  (32) 
pfpi4k_grid

>  <i_i_glide_lignum>  (32) 
11

>  <i_i_glide_rotatable_bonds>  (32) 
4

>  <r_i_docking_score>  (32) 
-1.51282

>  <r_i_glide_ligand_efficiency>  (32) 
-0.036898

>  <r_i_glide_ligand_efficiency_sa>  (32) 
-0.127232

>  <r_i_glide_ligand_efficiency_ln>  (32) 
-0.320949

>  <r_i_glide_gscore>  (32) 
-1.51282

>  <r_i_glide_lipo>  (32) 
-0.145131

>  <r_i_glide_hbond>  (32) 
-0.0107618

>  <r_i_glide_metal>  (32) 
-0

>  <r_i_glide_rewards>  (32) 
-0.126341

>  <r_i_glide_evdw>  (32) 
-21.0527

>  <r_i_glide_ecoul>  (32) 
-1.60675

>  <r_i_glide_erotb>  (32) 
0.0633903

>  <r_i_glide_esite>  (32) 
-0.000329343

>  <r_i_glide_emodel>  (32) 
-22.3998

>  <r_i_glide_energy>  (32) 
-22.6594

>  <r_i_glide_einternal>  (32) 
2.89775

>  <r_i_glide_intrahb_reward>  (32) 
-0

>  <i_i_glide_confnum>  (32) 
3

>  <i_i_glide_posenum>  (32) 
13

>  <r_i_glide_eff_state_penalty>  (32) 
0

>  <ligand_id>  (32) 
7

>  <original_smiles>  (32) 
COC1CC(C(=O)O)C2C(=O)C(OC(C)=O)C3OC(C)(C)OC45CC3C(C)(C)OC43CCC4(C)C1(C)C2C4(C)C3C5

>  <smiles>  (32) 
[H]C([H])([H])OC1([H])C([H])([H])C([H])(C(=O)[O-])C2([H])C(=O)C([H])(OC(=O)C([H])([H])[H])C3([H])OC(C([H])([H])[H])(C([H])([H])[H])OC45C([H])([H])C3([H])C(C([H])([H])[H])(C([H])([H])[H])OC43C([H])([H])C([H])([H])C4(C([H])([H])[H])C1(C([H])([H])[H])C2([H])C4(C([H])([H])[H])C3([H])C5([H])[H]

$$$$
7:0:2
     RDKit          3D

 86 92  0  0  1  0  0  0  0  0999 V2000
   -1.1071   -8.3363    2.3110 C   0  0  0  0  0  0  0  0  0  0  0  0
    0.0793   -8.1808    3.0709 O   0  0  0  0  0  0  0  0  0  0  0  0
    0.1934   -8.9620    4.2643 C   0  0  2  0  0  0  0  0  0  0  0  0
   -0.4974   -8.1582    5.4150 C   0  0  0  0  0  0  0  0  0  0  0  0
    0.4157   -7.2241    6.3055 C   0  0  1  0  0  0  0  0  0  0  0  0
    0.6728   -7.7300    7.7452 C   0  0  0  0  0  0  0  0  0  0  0  0
    1.6267   -7.2192    8.3689 O   0  0  0  0  0  0  0  0  0  0  0  0
   -0.1839   -8.4651    8.2826 O   0  0  0  0  0  0  0  0  0  0  0  0
    1.7391   -6.8144    5.5894 C   0  0  2  0  0  0  0  0  0  0  0  0
    1.3808   -5.6035    4.5875 C   0  0  0  0  0  0  0  0  0  0  0  0
    0.3283   -5.6759    3.9485 O   0  0  0  0  0  0  0  0  0  0  0  0
    2.0862   -4.1645    4.4908 C   0  0  1  0  0  0  0  0  0  0  0  0
    1.9887   -3.3919    5.6908 O   0  0  0  0  0  0  0  0  0  0  0  0
    0.8290   -2.9524    6.2089 C   0  0  0  0  0  0  0  0  0  0  0  0
    1.0447   -2.1040    7.4592 C   0  0  0  0  0  0  0  0  0  0  0  0
   -0.3035   -3.1629    5.7717 O   0  0  0  0  0  0  0  0  0  0  0  0
    3.3931   -3.8291    3.5952 C   0  0  2  0  0  0  0  0  0  0  0  0
    2.9526   -4.2736    2.2998 O   0  0  0  0  0  0  0  0  0  0  0  0
    3.7702   -4.3747    1.1670 C   0  0  0  0  0  0  0  0  0  0  0  0
    2.7806   -4.6374    0.0095 C   0  0  0  0  0  0  0  0  0  0  0  0
    4.4627   -3.0240    0.8266 C   0  0  0  0  0  0  0  0  0  0  0  0
    4.6861   -5.4845    1.1802 O   0  0  0  0  0  0  0  0  0  0  0  0
    5.1902   -6.0216    2.4344 C   0  0  1  0  0  0  0  0  0  0  0  0
    5.8691   -4.8067    3.0025 C   0  0  0  0  0  0  0  0  0  0  0  0
    4.9173   -4.1482    4.0478 C   0  0  2  0  0  0  0  0  0  0  0  0
    4.9430   -5.1123    5.2144 C   0  0  0  0  0  0  0  0  0  0  0  0
    6.3400   -5.6387    5.7081 C   0  0  0  0  0  0  0  0  0  0  0  0
    4.4354   -4.4458    6.5322 C   0  0  0  0  0  0  0  0  0  0  0  0
    4.0320   -6.0938    4.6465 O   0  0  0  0  0  0  0  0  0  0  0  0
    4.0447   -6.6189    3.2580 C   0  0  1  0  0  0  0  0  0  0  0  0
    2.8510   -7.1814    2.3726 C   0  0  0  0  0  0  0  0  0  0  0  0
    2.6751   -8.7209    2.2216 C   0  0  0  0  0  0  0  0  0  0  0  0
    2.7833   -9.4946    3.5223 C   0  0  2  0  0  0  0  0  0  0  0  0
    3.0584  -10.9431    3.0745 C   0  0  0  0  0  0  0  0  0  0  0  0
    1.6556   -9.3492    4.6192 C   0  0  2  0  0  0  0  0  0  0  0  0
    1.3954  -10.5777    5.5153 C   0  0  0  0  0  0  0  0  0  0  0  0
    2.4987   -8.2264    5.2207 C   0  0  1  0  0  0  0  0  0  0  0  0
    3.8368   -8.7994    4.4378 C   0  0  1  0  0  0  0  0  0  0  0  0
    4.7217   -9.7656    5.2430 C   0  0  0  0  0  0  0  0  0  0  0  0
    4.8417   -7.7613    3.7546 C   0  0  1  0  0  0  0  0  0  0  0  0
    5.6686   -7.5174    2.4379 C   0  0  0  0  0  0  0  0  0  0  0  0
   -0.9841   -7.7745    1.3844 H   0  0  0  0  0  0  0  0  0  0  0  0
   -1.9791   -7.9458    2.8344 H   0  0  0  0  0  0  0  0  0  0  0  0
   -1.2884   -9.3748    2.0348 H   0  0  0  0  0  0  0  0  0  0  0  0
   -0.4150   -9.8498    4.0875 H   0  0  0  0  0  0  0  0  0  0  0  0
   -1.3310   -7.5870    5.0123 H   0  0  0  0  0  0  0  0  0  0  0  0
   -0.9755   -8.9161    6.0370 H   0  0  0  0  0  0  0  0  0  0  0  0
   -0.1571   -6.3116    6.4680 H   0  0  0  0  0  0  0  0  0  0  0  0
    2.3704   -6.3412    6.3301 H   0  0  0  0  0  0  0  0  0  0  0  0
    1.3414   -3.6583    3.8767 H   0  0  0  0  0  0  0  0  0  0  0  0
    1.6802   -2.6294    8.1730 H   0  0  0  0  0  0  0  0  0  0  0  0
    0.0991   -1.8727    7.9470 H   0  0  0  0  0  0  0  0  0  0  0  0
    1.5310   -1.1630    7.1975 H   0  0  0  0  0  0  0  0  0  0  0  0
    3.3806   -2.7420    3.4916 H   0  0  0  0  0  0  0  0  0  0  0  0
    2.1400   -5.4978    0.2038 H   0  0  0  0  0  0  0  0  0  0  0  0
    3.3530   -4.7913   -0.8967 H   0  0  0  0  0  0  0  0  0  0  0  0
    2.1299   -3.7779   -0.1462 H   0  0  0  0  0  0  0  0  0  0  0  0
    4.8992   -2.5443    1.7004 H   0  0  0  0  0  0  0  0  0  0  0  0
    3.7409   -2.3178    0.4143 H   0  0  0  0  0  0  0  0  0  0  0  0
    5.2397   -3.1905    0.0799 H   0  0  0  0  0  0  0  0  0  0  0  0
    6.8508   -5.0659    3.3708 H   0  0  0  0  0  0  0  0  0  0  0  0
    6.1827   -4.1065    2.2401 H   0  0  0  0  0  0  0  0  0  0  0  0
    5.3833   -3.2130    4.3692 H   0  0  0  0  0  0  0  0  0  0  0  0
    6.9713   -4.8130    6.0390 H   0  0  0  0  0  0  0  0  0  0  0  0
    6.9534   -6.1971    5.0038 H   0  0  0  0  0  0  0  0  0  0  0  0
    6.2184   -6.3148    6.5555 H   0  0  0  0  0  0  0  0  0  0  0  0
    4.3242   -3.3659    6.4163 H   0  0  0  0  0  0  0  0  0  0  0  0
    5.1151   -4.5557    7.3765 H   0  0  0  0  0  0  0  0  0  0  0  0
    3.4998   -4.8512    6.9012 H   0  0  0  0  0  0  0  0  0  0  0  0
    1.9151   -6.6646    2.4434 H   0  0  0  0  0  0  0  0  0  0  0  0
    3.0755   -7.0020    1.3309 H   0  0  0  0  0  0  0  0  0  0  0  0
    1.7592   -8.9502    1.6777 H   0  0  0  0  0  0  0  0  0  0  0  0
    3.4392   -9.0731    1.5340 H   0  0  0  0  0  0  0  0  0  0  0  0
    3.1891  -11.6325    3.9138 H   0  0  0  0  0  0  0  0  0  0  0  0
    3.9643  -11.0384    2.4764 H   0  0  0  0  0  0  0  0  0  0  0  0
    2.2280  -11.3521    2.5100 H   0  0  0  0  0  0  0  0  0  0  0  0
    2.2802  -10.9658    6.0053 H   0  0  0  0  0  0  0  0  0  0  0  0
    0.9660  -11.4137    4.9638 H   0  0  0  0  0  0  0  0  0  0  0  0
    0.7137  -10.3676    6.3370 H   0  0  0  0  0  0  0  0  0  0  0  0
    2.7586   -8.6174    6.2107 H   0  0  0  0  0  0  0  0  0  0  0  0
    5.1598   -9.2773    6.1128 H   0  0  0  0  0  0  0  0  0  0  0  0
    5.5476  -10.1313    4.6334 H   0  0  0  0  0  0  0  0  0  0  0  0
    4.2289  -10.6535    5.6106 H   0  0  0  0  0  0  0  0  0  0  0  0
    5.5865   -7.5897    4.5167 H   0  0  0  0  0  0  0  0  0  0  0  0
    5.3410   -8.0917    1.5711 H   0  0  0  0  0  0  0  0  0  0  0  0
    6.7446   -7.6217    2.5665 H   0  0  0  0  0  0  0  0  0  0  0  0
  1  2  1  0
  1 42  1  0
  1 43  1  0
  1 44  1  0
  2  3  1  0
  3 35  1  0
  3  4  1  0
  3 45  1  6
  4  5  1  0
  4 46  1  0
  4 47  1  0
  5  6  1  0
  5  9  1  0
  5 48  1  1
  6  7  2  0
  6  8  1  0
  9 37  1  0
  9 10  1  0
  9 49  1  1
 10 11  2  0
 10 12  1  0
 12 13  1  0
 12 17  1  0
 12 50  1  6
 13 14  1  0
 14 15  1  0
 14 16  2  0
 15 51  1  0
 15 52  1  0
 15 53  1  0
 17 25  1  0
 17 18  1  0
 17 54  1  6
 18 19  1  0
 19 20  1  0
 19 21  1  0
 19 22  1  0
 20 55  1  0
 20 56  1  0
 20 57  1  0
 21 58  1  0
 21 59  1  0
 21 60  1  0
 23 22  1  6
 23 30  1  0
 23 41  1  0
 23 24  1  0
 24 25  1  0
 24 61  1  0
 24 62  1  0
 25 26  1  0
 25 63  1  1
 26 27  1  0
 26 28  1  0
 26 29  1  0
 27 64  1  0
 27 65  1  0
 27 66  1  0
 28 67  1  0
 28 68  1  0
 28 69  1  0
 29 30  1  0
 30 40  1  0
 30 31  1  6
 31 32  1  0
 31 70  1  0
 31 71  1  0
 32 33  1  0
 32 72  1  0
 32 73  1  0
 33 38  1  0
 33 34  1  6
 33 35  1  0
 34 74  1  0
 34 75  1  0
 34 76  1  0
 35 36  1  1
 35 37  1  0
 36 77  1  0
 36 78  1  0
 36 79  1  0
 37 38  1  0
 37 80  1  1
 38 39  1  1
 38 40  1  0
 39 81  1  0
 39 82  1  0
 39 83  1  0
 40 41  1  0
 40 84  1  1
 41 85  1  0
 41 86  1  0
M  CHG  1   8  -1
M  END
>  <i_m_ct_stereo_status>  (33) 
1

>  <s_m_source_file>  (33) 
/var/tmp/pbs.5076255.sched01/tmp3_il56_a/09f63jmog.sdf

>  <i_m_source_file_index>  (33) 
11

>  <i_lp_mmshare_version>  (33) 
48012

>  <i_f3d_flags>  (33) 
0

>  <s_epik_input>  (33) 
W0NIM11DKE8xKShbQ0gzXSlPW0NASF0oW0NASF0oW0NIMl0yKUMoTzMpKFtDSDNdKVtDSDNdKVtDQEhdKE9DKD1PKVtDSDNdKUMoPU8pW0NAQEhdKFtDQEhdKEMoPU8pW09IXSlbQ0gyXVtDQEhdNE9bQ0gzXSlbQ0BIXTVbQ0BdNChbQ0gzXSlbQ0BAXShbQ0gzXSkoW0NIMl1bQ0gyXTYpW0NAQF01KFtDSDNdKVtDQEhdKFtDQF0zNltDQEBdMTI3KVtDSDJdNw==

>  <s_epik_cmdline>  (33) 
J2VwaWtfcHl0aG9uJywgJy1waHQnLCAnMi4wJywgJy1waCcsICc3LjAnLCAnLXRuJywgJzgnLCAnLW1hJywgJzIwMCcsICctaW1hZScsICc8aW5maWxlLm1hZT4nLCAnLW9tYWUnLCAnPG91dGZpbGUubWFlPic=

>  <r_lp_tautomer_probability>  (33) 
1

>  <r_epik_Ionization_Penalty>  (33) 
0.00160973

>  <r_epik_Ionization_Penalty_Charging>  (33) 
0.00160973

>  <r_epik_Ionization_Penalty_Neutral>  (33) 
6.55956e-11

>  <r_epik_State_Penalty>  (33) 
0.00108358

>  <r_epik_Charging_Adjusted_Penalty>  (33) 
0.00269331

>  <i_epik_Tot_Q>  (33) 
-1

>  <i_epik_Tot_abs_Q>  (33) 
1

>  <s_epik_Chemistry_Notes>  (33) 
This compound has an ester and may undergo hydrolysis at high or low pH.

>  <s_lp_Force_Field>  (33) 
OPLS3e

>  <r_lp_Energy>  (33) 
265.72

>  <b_lp_Chiralities_Consistent>  (33) 
1

>  <s_lp_Variant>  (33) 
7:0-1

>  <s_i_glide_gridfile>  (33) 
pfpi4k_grid

>  <i_i_glide_lignum>  (33) 
11

>  <i_i_glide_rotatable_bonds>  (33) 
4

>  <r_i_docking_score>  (33) 
-1.41446

>  <r_i_glide_ligand_efficiency>  (33) 
-0.0344991

>  <r_i_glide_ligand_efficiency_sa>  (33) 
-0.11896

>  <r_i_glide_ligand_efficiency_ln>  (33) 
-0.300083

>  <r_i_glide_gscore>  (33) 
-1.41446

>  <r_i_glide_lipo>  (33) 
-0.0552047

>  <r_i_glide_hbond>  (33) 
-0.00479129

>  <r_i_glide_metal>  (33) 
-0

>  <r_i_glide_rewards>  (33) 
-0.013495

>  <r_i_glide_evdw>  (33) 
-22.8859

>  <r_i_glide_ecoul>  (33) 
-1.53517

>  <r_i_glide_erotb>  (33) 
0.0633903

>  <r_i_glide_esite>  (33) 
-0.0297904

>  <r_i_glide_emodel>  (33) 
-26.1174

>  <r_i_glide_energy>  (33) 
-24.4211

>  <r_i_glide_einternal>  (33) 
1.56948

>  <r_i_glide_intrahb_reward>  (33) 
-0

>  <i_i_glide_confnum>  (33) 
1

>  <i_i_glide_posenum>  (33) 
34

>  <r_i_glide_eff_state_penalty>  (33) 
0

>  <ligand_id>  (33) 
7

>  <original_smiles>  (33) 
COC1CC(C(=O)O)C2C(=O)C(OC(C)=O)C3OC(C)(C)OC45CC3C(C)(C)OC43CCC4(C)C1(C)C2C4(C)C3C5

>  <smiles>  (33) 
[H]C([H])([H])OC1([H])C([H])([H])C([H])(C(=O)[O-])C2([H])C(=O)C([H])(OC(=O)C([H])([H])[H])C3([H])OC(C([H])([H])[H])(C([H])([H])[H])OC45C([H])([H])C3([H])C(C([H])([H])[H])(C([H])([H])[H])OC43C([H])([H])C([H])([H])C4(C([H])([H])[H])C1(C([H])([H])[H])C2([H])C4(C([H])([H])[H])C3([H])C5([H])[H]

$$$$
9:0:0
     RDKit          3D

 70 77  0  0  1  0  0  0  0  0999 V2000
    1.8444    4.4147    4.9922 C   0  0  0  0  0  0  0  0  0  0  0  0
    0.4531    3.9896    4.4712 C   0  0  0  0  0  0  0  0  0  0  0  0
   -0.0313    5.2511    3.6863 C   0  0  0  0  0  0  0  0  0  0  0  0
    0.3033    2.6628    3.6613 C   0  0  2  0  0  0  0  0  0  0  0  0
   -1.2321    2.5613    3.4821 C   0  0  0  0  0  0  0  0  0  0  0  0
   -1.7600    3.2576    4.7508 C   0  0  0  0  0  0  0  0  0  0  0  0
   -0.4557    3.4277    5.5973 C   0  0  1  0  0  0  0  0  0  0  0  0
    0.0817    1.9757    6.0285 C   0  0  2  0  0  0  0  0  0  0  0  0
   -1.2029    1.2679    6.5934 C   0  0  0  0  0  0  0  0  0  0  0  0
    1.0923    1.8457    7.2010 C   0  0  0  0  0  0  0  0  0  0  0  0
    2.1356    0.9833    7.4485 C   0  0  0  0  0  0  0  0  0  0  0  0
    2.8635   -0.1492    6.6488 C   0  0  1  0  0  0  0  0  0  0  0  0
    1.9404   -1.3629    6.2518 C   0  0  1  0  0  0  0  0  0  0  0  0
    1.5565   -2.3516    7.3617 C   0  0  0  0  0  0  0  0  0  0  0  0
    1.4412   -3.6217    6.7033 O   0  0  0  0  0  0  0  0  0  0  0  0
    1.8838   -3.5275    5.3745 C   0  0  1  0  0  0  0  0  0  0  0  0
    2.6487   -4.6493    4.9993 O   0  0  0  0  0  0  0  0  0  0  0  0
    0.6397   -3.3810    4.4822 C   0  0  0  0  0  0  0  0  0  0  0  0
   -0.1517   -2.1420    4.9318 C   0  0  0  0  0  0  0  0  0  0  0  0
    0.7419   -0.9385    5.3559 C   0  0  2  0  0  0  0  0  0  0  0  0
    1.1979    0.0952    4.2434 C   0  0  1  0  0  0  0  0  0  0  0  0
    0.6187   -0.2326    2.8469 C   0  0  0  0  0  0  0  0  0  0  0  0
    0.7699    1.5677    4.6640 C   0  0  1  0  0  0  0  0  0  0  0  0
    2.7798   -0.1381    4.1640 C   0  0  1  0  0  0  0  0  0  0  0  0
    3.6766    0.2716    2.9936 C   0  0  0  0  0  0  0  0  0  0  0  0
    5.0173    0.1417    3.5305 O   0  0  0  0  0  0  0  0  0  0  0  0
    4.9757   -0.2434    4.8841 C   0  0  1  0  0  0  0  0  0  0  0  0
    6.1243    0.1489    5.6087 O   0  0  0  0  0  0  0  0  0  0  0  0
    3.6231    0.3841    5.3701 C   0  0  2  0  0  0  0  0  0  0  0  0
    4.0399    1.8964    5.5127 C   0  0  0  0  0  0  0  0  0  0  0  0
    2.8581   -1.5964    4.0926 O   0  0  0  0  0  0  0  0  0  0  0  0
    2.7451   -2.2670    5.3648 C   0  0  1  0  0  0  0  0  0  0  0  0
    2.6449    4.0363    4.3584 H   0  0  0  0  0  0  0  0  0  0  0  0
    1.9950    4.1172    6.0278 H   0  0  0  0  0  0  0  0  0  0  0  0
    1.9632    5.4987    5.0140 H   0  0  0  0  0  0  0  0  0  0  0  0
   -0.8992    5.1103    3.0474 H   0  0  0  0  0  0  0  0  0  0  0  0
    0.7483    5.5997    3.0062 H   0  0  0  0  0  0  0  0  0  0  0  0
   -0.2473    6.0731    4.3675 H   0  0  0  0  0  0  0  0  0  0  0  0
    0.8559    2.6670    2.7207 H   0  0  0  0  0  0  0  0  0  0  0  0
   -1.5717    3.0632    2.5758 H   0  0  0  0  0  0  0  0  0  0  0  0
   -1.5851    1.5344    3.4279 H   0  0  0  0  0  0  0  0  0  0  0  0
   -2.2026    4.2235    4.5196 H   0  0  0  0  0  0  0  0  0  0  0  0
   -2.5908    2.7197    5.1994 H   0  0  0  0  0  0  0  0  0  0  0  0
   -0.5967    4.1054    6.4413 H   0  0  0  0  0  0  0  0  0  0  0  0
   -1.7756    0.7521    5.8204 H   0  0  0  0  0  0  0  0  0  0  0  0
   -1.8608    1.9735    7.1035 H   0  0  0  0  0  0  0  0  0  0  0  0
   -0.9864    0.5467    7.3839 H   0  0  0  0  0  0  0  0  0  0  0  0
    0.8793    2.5442    7.9968 H   0  0  0  0  0  0  0  0  0  0  0  0
    2.6176    1.1481    8.4015 H   0  0  0  0  0  0  0  0  0  0  0  0
    3.6351   -0.5173    7.3272 H   0  0  0  0  0  0  0  0  0  0  0  0
    2.3331   -2.4079    8.1250 H   0  0  0  0  0  0  0  0  0  0  0  0
    0.6195   -2.0811    7.8471 H   0  0  0  0  0  0  0  0  0  0  0  0
    2.0818   -5.4040    4.9973 H   0  0  0  0  0  0  0  0  0  0  0  0
    0.9418   -3.3118    3.4353 H   0  0  0  0  0  0  0  0  0  0  0  0
    0.0234   -4.2759    4.5904 H   0  0  0  0  0  0  0  0  0  0  0  0
   -0.8949   -1.8740    4.1860 H   0  0  0  0  0  0  0  0  0  0  0  0
   -0.7489   -2.4354    5.7975 H   0  0  0  0  0  0  0  0  0  0  0  0
    0.1128   -0.4952    6.0646 H   0  0  0  0  0  0  0  0  0  0  0  0
    0.9806    0.4561    2.0828 H   0  0  0  0  0  0  0  0  0  0  0  0
   -0.4652   -0.1921    2.8308 H   0  0  0  0  0  0  0  0  0  0  0  0
    0.9082   -1.2260    2.5096 H   0  0  0  0  0  0  0  0  0  0  0  0
    1.7522    1.9567    4.7642 H   0  0  0  0  0  0  0  0  0  0  0  0
    3.5425   -0.3671    2.1186 H   0  0  0  0  0  0  0  0  0  0  0  0
    3.4898    1.3038    2.6965 H   0  0  0  0  0  0  0  0  0  0  0  0
    5.0343   -1.3238    4.8678 H   0  0  0  0  0  0  0  0  0  0  0  0
    6.1108    1.0918    5.6734 H   0  0  0  0  0  0  0  0  0  0  0  0
    4.3610    2.3461    4.5738 H   0  0  0  0  0  0  0  0  0  0  0  0
    4.8417    2.0375    6.2356 H   0  0  0  0  0  0  0  0  0  0  0  0
    3.2967    2.5443    5.9352 H   0  0  0  0  0  0  0  0  0  0  0  0
    3.6977   -2.5152    5.8300 H   0  0  0  0  0  0  0  0  0  0  0  0
  1  2  1  0
  1 33  1  0
  1 34  1  0
  1 35  1  0
  2  7  1  0
  2  3  1  0
  2  4  1  0
  3 36  1  0
  3 37  1  0
  3 38  1  0
  4 23  1  0
  4  5  1  0
  4 39  1  6
  5  6  1  0
  5 40  1  0
  5 41  1  0
  6  7  1  0
  6 42  1  0
  6 43  1  0
  7  8  1  0
  7 44  1  1
  8 23  1  0
  8  9  1  1
  8 10  1  0
  9 45  1  0
  9 46  1  0
  9 47  1  0
 10 11  2  3
 10 48  1  0
 11 12  1  0
 11 49  1  0
 12 29  1  0
 12 13  1  0
 12 50  1  1
 13 20  1  0
 13 32  1  0
 13 14  1  1
 14 15  1  0
 14 51  1  0
 14 52  1  0
 15 16  1  0
 16 32  1  0
 16 17  1  6
 16 18  1  0
 17 53  1  0
 18 19  1  0
 18 54  1  0
 18 55  1  0
 19 20  1  0
 19 56  1  0
 19 57  1  0
 20 21  1  0
 20 58  1  1
 21 22  1  6
 21 23  1  0
 21 24  1  0
 22 59  1  0
 22 60  1  0
 22 61  1  0
 23 62  1  1
 24 29  1  0
 24 25  1  6
 24 31  1  0
 25 26  1  0
 25 63  1  0
 25 64  1  0
 26 27  1  0
 27 28  1  0
 27 29  1  0
 27 65  1  6
 28 66  1  0
 29 30  1  1
 30 67  1  0
 30 68  1  0
 30 69  1  0
 31 32  1  0
 32 70  1  1
M  END
>  <i_m_ct_stereo_status>  (34) 
1

>  <s_m_source_file>  (34) 
/var/tmp/pbs.5076255.sched01/tmp3_il56_a/09f63jmog.sdf

>  <i_m_source_file_index>  (34) 
13

>  <i_lp_mmshare_version>  (34) 
48012

>  <i_f3d_flags>  (34) 
0

>  <s_epik_input>  (34) 
W0NIXVwxPVtDSF1cW0NAQF0yKFtDSDNdKVtDQEhdKFtDSDJdW0NIMl0zKUMoW0NIM10pKFtDSDNdKVtDQEhdM1tDQEBIXTJbQ0BAXShbQ0gzXSkoW0NAXTQoW0NAXTUoW0NAQEhdMVtDQEBdNjc4KVtDSDNdKVtDSDJdT1tDQEhdNVtPSF0pW0NASF03W0NIMl1bQ0gyXVtDQEBdKFtPSF0pKFtDQEhdOE80KU9bQ0gyXTY=

>  <s_epik_cmdline>  (34) 
J2VwaWtfcHl0aG9uJywgJy1waHQnLCAnMi4wJywgJy1waCcsICc3LjAnLCAnLXRuJywgJzgnLCAnLW1hJywgJzIwMCcsICctaW1hZScsICc8aW5maWxlLm1hZT4nLCAnLW9tYWUnLCAnPG91dGZpbGUubWFlPic=

>  <r_lp_tautomer_probability>  (34) 
1

>  <r_epik_Ionization_Penalty>  (34) 
2.59571e-07

>  <r_epik_Ionization_Penalty_Charging>  (34) 
0

>  <r_epik_Ionization_Penalty_Neutral>  (34) 
2.59571e-07

>  <r_epik_State_Penalty>  (34) 
-0

>  <r_epik_Charging_Adjusted_Penalty>  (34) 
0

>  <i_epik_Tot_Q>  (34) 
0

>  <i_epik_Tot_abs_Q>  (34) 
0

>  <s_epik_Chemistry_Notes>  (34) 
This compound contains an acetal/aminal-like group ( X-CH(R)-Y where X, Y are N, S, or O) that may be acid/base labile, releasing an aldehyde.

>  <s_lp_Force_Field>  (34) 
OPLS3e

>  <r_lp_Energy>  (34) 
173.114

>  <b_lp_Chiralities_Consistent>  (34) 
1

>  <s_lp_Variant>  (34) 
9:0-1

>  <s_i_glide_gridfile>  (34) 
pfpi4k_grid

>  <i_i_glide_lignum>  (34) 
13

>  <i_i_glide_rotatable_bonds>  (34) 
2

>  <r_i_docking_score>  (34) 
-1.75117

>  <r_i_glide_ligand_efficiency>  (34) 
-0.0547241

>  <r_i_glide_ligand_efficiency_sa>  (34) 
-0.173738

>  <r_i_glide_ligand_efficiency_ln>  (34) 
-0.392135

>  <r_i_glide_gscore>  (34) 
-1.75117

>  <r_i_glide_lipo>  (34) 
-0.0203432

>  <r_i_glide_hbond>  (34) 
0

>  <r_i_glide_metal>  (34) 
-0

>  <r_i_glide_rewards>  (34) 
-0.465341

>  <r_i_glide_evdw>  (34) 
-24.3596

>  <r_i_glide_ecoul>  (34) 
-0.316721

>  <r_i_glide_erotb>  (34) 
0

>  <r_i_glide_esite>  (34) 
0

>  <r_i_glide_emodel>  (34) 
-27.1802

>  <r_i_glide_energy>  (34) 
-24.6763

>  <r_i_glide_einternal>  (34) 
0.01026

>  <r_i_glide_intrahb_reward>  (34) 
-0

>  <i_i_glide_confnum>  (34) 
2

>  <i_i_glide_posenum>  (34) 
26

>  <r_i_glide_eff_state_penalty>  (34) 
0

>  <ligand_id>  (34) 
9

>  <original_smiles>  (34) 
CC1(C)C2CCC1C1(C)C=CC3C45COC6(O)CCC4C(C)(C21)C1(COC(O)C31C)OC65

>  <smiles>  (34) 
[H]OC1([H])OC([H])([H])C23OC4([H])C5(O[H])OC([H])([H])C46C([H])(C([H])=C([H])C4(C([H])([H])[H])C7([H])C([H])([H])C([H])([H])C([H])(C4([H])C2(C([H])([H])[H])C6([H])C([H])([H])C5([H])[H])C7(C([H])([H])[H])C([H])([H])[H])C13C([H])([H])[H]

$$$$
9:0:1
     RDKit          3D

 70 77  0  0  1  0  0  0  0  0999 V2000
    1.8593    4.4099    5.0018 C   0  0  0  0  0  0  0  0  0  0  0  0
    0.4686    3.9886    4.4741 C   0  0  0  0  0  0  0  0  0  0  0  0
   -0.0102    5.2546    3.6913 C   0  0  0  0  0  0  0  0  0  0  0  0
    0.3178    2.6657    3.6587 C   0  0  2  0  0  0  0  0  0  0  0  0
   -1.2180    2.5700    3.4749 C   0  0  0  0  0  0  0  0  0  0  0  0
   -1.7475    3.2618    4.7456 C   0  0  0  0  0  0  0  0  0  0  0  0
   -0.4443    3.4242    5.5957 C   0  0  1  0  0  0  0  0  0  0  0  0
    0.0889    1.9689    6.0225 C   0  0  2  0  0  0  0  0  0  0  0  0
   -1.1990    1.2621    6.5809 C   0  0  0  0  0  0  0  0  0  0  0  0
    1.0964    1.8326    7.1970 C   0  0  0  0  0  0  0  0  0  0  0  0
    2.1373    0.9676    7.4436 C   0  0  0  0  0  0  0  0  0  0  0  0
    2.8657   -0.1621    6.6393 C   0  0  1  0  0  0  0  0  0  0  0  0
    1.9402   -1.3719    6.2375 C   0  0  1  0  0  0  0  0  0  0  0  0
    1.5514   -2.3616    7.3430 C   0  0  0  0  0  0  0  0  0  0  0  0
    1.4395   -3.6312    6.6802 O   0  0  0  0  0  0  0  0  0  0  0  0
    1.8807   -3.5323    5.3535 C   0  0  1  0  0  0  0  0  0  0  0  0
    2.6337   -4.6612    4.9652 O   0  0  0  0  0  0  0  0  0  0  0  0
    0.6387   -3.3825    4.4623 C   0  0  0  0  0  0  0  0  0  0  0  0
   -0.1521   -2.1423    4.9094 C   0  0  0  0  0  0  0  0  0  0  0  0
    0.7445   -0.9433    5.3382 C   0  0  2  0  0  0  0  0  0  0  0  0
    1.2054    0.0944    4.2314 C   0  0  1  0  0  0  0  0  0  0  0  0
    0.6287   -0.2269    2.8317 C   0  0  0  0  0  0  0  0  0  0  0  0
    0.7790    1.5665    4.6572 C   0  0  1  0  0  0  0  0  0  0  0  0
    2.7880   -0.1421    4.1548 C   0  0  1  0  0  0  0  0  0  0  0  0
    3.6874    0.2717    2.9881 C   0  0  0  0  0  0  0  0  0  0  0  0
    5.0270    0.1374    3.5266 O   0  0  0  0  0  0  0  0  0  0  0  0
    4.9814   -0.2535    4.8787 C   0  0  1  0  0  0  0  0  0  0  0  0
    6.1296    0.1350    5.6083 O   0  0  0  0  0  0  0  0  0  0  0  0
    3.6291    0.3746    5.3648 C   0  0  2  0  0  0  0  0  0  0  0  0
    4.0480    1.8855    5.5142 C   0  0  0  0  0  0  0  0  0  0  0  0
    2.8639   -1.6011    4.0795 O   0  0  0  0  0  0  0  0  0  0  0  0
    2.7452   -2.2742    5.3469 C   0  0  1  0  0  0  0  0  0  0  0  0
    2.6613    4.0342    4.3670 H   0  0  0  0  0  0  0  0  0  0  0  0
    2.0068    4.1067    6.0347 H   0  0  0  0  0  0  0  0  0  0  0  0
    1.9798    5.4932    5.0294 H   0  0  0  0  0  0  0  0  0  0  0  0
   -0.8762    5.1178    3.0476 H   0  0  0  0  0  0  0  0  0  0  0  0
    0.7714    5.6038    3.0141 H   0  0  0  0  0  0  0  0  0  0  0  0
   -0.2284    6.0760    4.3732 H   0  0  0  0  0  0  0  0  0  0  0  0
    0.8729    2.6728    2.7191 H   0  0  0  0  0  0  0  0  0  0  0  0
   -1.5534    3.0772    2.5697 H   0  0  0  0  0  0  0  0  0  0  0  0
   -1.5737    1.5440    3.4141 H   0  0  0  0  0  0  0  0  0  0  0  0
   -2.1861    4.2303    4.5180 H   0  0  0  0  0  0  0  0  0  0  0  0
   -2.5813    2.7246    5.1901 H   0  0  0  0  0  0  0  0  0  0  0  0
   -0.5848    4.1000    6.4415 H   0  0  0  0  0  0  0  0  0  0  0  0
   -1.7713    0.7520    5.8040 H   0  0  0  0  0  0  0  0  0  0  0  0
   -1.8551    1.9663    7.0938 H   0  0  0  0  0  0  0  0  0  0  0  0
   -0.9872    0.5362    7.3679 H   0  0  0  0  0  0  0  0  0  0  0  0
    0.8822    2.5270    7.9951 H   0  0  0  0  0  0  0  0  0  0  0  0
    2.6163    1.1264    8.3981 H   0  0  0  0  0  0  0  0  0  0  0  0
    3.6340   -0.5365    7.3183 H   0  0  0  0  0  0  0  0  0  0  0  0
    2.3255   -2.4238    8.1101 H   0  0  0  0  0  0  0  0  0  0  0  0
    0.6113   -2.0947    7.8256 H   0  0  0  0  0  0  0  0  0  0  0  0
    3.4694   -4.6165    5.4050 H   0  0  0  0  0  0  0  0  0  0  0  0
    0.9406   -3.3111    3.4179 H   0  0  0  0  0  0  0  0  0  0  0  0
    0.0231   -4.2780    4.5663 H   0  0  0  0  0  0  0  0  0  0  0  0
   -0.8940   -1.8710    4.1607 H   0  0  0  0  0  0  0  0  0  0  0  0
   -0.7523   -2.4384    5.7725 H   0  0  0  0  0  0  0  0  0  0  0  0
    0.1146   -0.5004    6.0479 H   0  0  0  0  0  0  0  0  0  0  0  0
    0.9921    0.4646    2.0715 H   0  0  0  0  0  0  0  0  0  0  0  0
   -0.4557   -0.1837    2.8151 H   0  0  0  0  0  0  0  0  0  0  0  0
    0.9162   -1.2197    2.4907 H   0  0  0  0  0  0  0  0  0  0  0  0
    1.7623    1.9527    4.7622 H   0  0  0  0  0  0  0  0  0  0  0  0
    3.5539   -0.3626    2.1090 H   0  0  0  0  0  0  0  0  0  0  0  0
    3.5019    1.3053    2.6949 H   0  0  0  0  0  0  0  0  0  0  0  0
    5.0392   -1.3343    4.8568 H   0  0  0  0  0  0  0  0  0  0  0  0
    6.1177    1.0769    5.6772 H   0  0  0  0  0  0  0  0  0  0  0  0
    4.3698    2.3390    4.5772 H   0  0  0  0  0  0  0  0  0  0  0  0
    4.8514    2.0241    6.2362 H   0  0  0  0  0  0  0  0  0  0  0  0
    3.3058    2.5318    5.9406 H   0  0  0  0  0  0  0  0  0  0  0  0
    3.6971   -2.5246    5.8146 H   0  0  0  0  0  0  0  0  0  0  0  0
  1  2  1  0
  1 33  1  0
  1 34  1  0
  1 35  1  0
  2  7  1  0
  2  3  1  0
  2  4  1  0
  3 36  1  0
  3 37  1  0
  3 38  1  0
  4 23  1  0
  4  5  1  0
  4 39  1  6
  5  6  1  0
  5 40  1  0
  5 41  1  0
  6  7  1  0
  6 42  1  0
  6 43  1  0
  7  8  1  0
  7 44  1  1
  8 23  1  0
  8  9  1  1
  8 10  1  0
  9 45  1  0
  9 46  1  0
  9 47  1  0
 10 11  2  3
 10 48  1  0
 11 12  1  0
 11 49  1  0
 12 29  1  0
 12 13  1  0
 12 50  1  1
 13 20  1  0
 13 32  1  0
 13 14  1  1
 14 15  1  0
 14 51  1  0
 14 52  1  0
 15 16  1  0
 16 32  1  0
 16 17  1  6
 16 18  1  0
 17 53  1  0
 18 19  1  0
 18 54  1  0
 18 55  1  0
 19 20  1  0
 19 56  1  0
 19 57  1  0
 20 21  1  0
 20 58  1  1
 21 22  1  6
 21 23  1  0
 21 24  1  0
 22 59  1  0
 22 60  1  0
 22 61  1  0
 23 62  1  1
 24 29  1  0
 24 25  1  6
 24 31  1  0
 25 26  1  0
 25 63  1  0
 25 64  1  0
 26 27  1  0
 27 28  1  0
 27 29  1  0
 27 65  1  6
 28 66  1  0
 29 30  1  1
 30 67  1  0
 30 68  1  0
 30 69  1  0
 31 32  1  0
 32 70  1  1
M  END
>  <i_m_ct_stereo_status>  (35) 
1

>  <s_m_source_file>  (35) 
/var/tmp/pbs.5076255.sched01/tmp3_il56_a/09f63jmog.sdf

>  <i_m_source_file_index>  (35) 
13

>  <i_lp_mmshare_version>  (35) 
48012

>  <i_f3d_flags>  (35) 
0

>  <s_epik_input>  (35) 
W0NIXVwxPVtDSF1cW0NAQF0yKFtDSDNdKVtDQEhdKFtDSDJdW0NIMl0zKUMoW0NIM10pKFtDSDNdKVtDQEhdM1tDQEBIXTJbQ0BAXShbQ0gzXSkoW0NAXTQoW0NAXTUoW0NAQEhdMVtDQEBdNjc4KVtDSDNdKVtDSDJdT1tDQEhdNVtPSF0pW0NASF03W0NIMl1bQ0gyXVtDQEBdKFtPSF0pKFtDQEhdOE80KU9bQ0gyXTY=

>  <s_epik_cmdline>  (35) 
J2VwaWtfcHl0aG9uJywgJy1waHQnLCAnMi4wJywgJy1waCcsICc3LjAnLCAnLXRuJywgJzgnLCAnLW1hJywgJzIwMCcsICctaW1hZScsICc8aW5maWxlLm1hZT4nLCAnLW9tYWUnLCAnPG91dGZpbGUubWFlPic=

>  <r_lp_tautomer_probability>  (35) 
1

>  <r_epik_Ionization_Penalty>  (35) 
2.59571e-07

>  <r_epik_Ionization_Penalty_Charging>  (35) 
0

>  <r_epik_Ionization_Penalty_Neutral>  (35) 
2.59571e-07

>  <r_epik_State_Penalty>  (35) 
-0

>  <r_epik_Charging_Adjusted_Penalty>  (35) 
0

>  <i_epik_Tot_Q>  (35) 
0

>  <i_epik_Tot_abs_Q>  (35) 
0

>  <s_epik_Chemistry_Notes>  (35) 
This compound contains an acetal/aminal-like group ( X-CH(R)-Y where X, Y are N, S, or O) that may be acid/base labile, releasing an aldehyde.

>  <s_lp_Force_Field>  (35) 
OPLS3e

>  <r_lp_Energy>  (35) 
173.114

>  <b_lp_Chiralities_Consistent>  (35) 
1

>  <s_lp_Variant>  (35) 
9:0-1

>  <s_i_glide_gridfile>  (35) 
pfpi4k_grid

>  <i_i_glide_lignum>  (35) 
13

>  <i_i_glide_rotatable_bonds>  (35) 
2

>  <r_i_docking_score>  (35) 
-1.72253

>  <r_i_glide_ligand_efficiency>  (35) 
-0.0538291

>  <r_i_glide_ligand_efficiency_sa>  (35) 
-0.170897

>  <r_i_glide_ligand_efficiency_ln>  (35) 
-0.385722

>  <r_i_glide_gscore>  (35) 
-1.72253

>  <r_i_glide_lipo>  (35) 
-0.0208197

>  <r_i_glide_hbond>  (35) 
0

>  <r_i_glide_metal>  (35) 
-0

>  <r_i_glide_rewards>  (35) 
-0.466102

>  <r_i_glide_evdw>  (35) 
-24.3141

>  <r_i_glide_ecoul>  (35) 
-0.132697

>  <r_i_glide_erotb>  (35) 
0

>  <r_i_glide_esite>  (35) 
0

>  <r_i_glide_emodel>  (35) 
-26.7961

>  <r_i_glide_energy>  (35) 
-24.4468

>  <r_i_glide_einternal>  (35) 
0.0900897

>  <r_i_glide_intrahb_reward>  (35) 
-0

>  <i_i_glide_confnum>  (35) 
1

>  <i_i_glide_posenum>  (35) 
6

>  <r_i_glide_eff_state_penalty>  (35) 
0

>  <ligand_id>  (35) 
9

>  <original_smiles>  (35) 
CC1(C)C2CCC1C1(C)C=CC3C45COC6(O)CCC4C(C)(C21)C1(COC(O)C31C)OC65

>  <smiles>  (35) 
[H]OC1([H])OC([H])([H])C23OC4([H])C5(O[H])OC([H])([H])C46C([H])(C([H])=C([H])C4(C([H])([H])[H])C7([H])C([H])([H])C([H])([H])C([H])(C4([H])C2(C([H])([H])[H])C6([H])C([H])([H])C5([H])[H])C7(C([H])([H])[H])C([H])([H])[H])C13C([H])([H])[H]

$$$$
9:0:2
     RDKit          3D

 70 77  0  0  1  0  0  0  0  0999 V2000
    1.8079    4.4412    5.0643 C   0  0  0  0  0  0  0  0  0  0  0  0
    0.4381    4.0119    4.4927 C   0  0  0  0  0  0  0  0  0  0  0  0
   -0.0185    5.2699    3.6858 C   0  0  0  0  0  0  0  0  0  0  0  0
    0.3203    2.6824    3.6815 C   0  0  2  0  0  0  0  0  0  0  0  0
   -1.2072    2.5775    3.4470 C   0  0  0  0  0  0  0  0  0  0  0  0
   -1.7828    3.2775    4.6928 C   0  0  0  0  0  0  0  0  0  0  0  0
   -0.5112    3.4526    5.5863 C   0  0  1  0  0  0  0  0  0  0  0  0
    0.0115    2.0034    6.0427 C   0  0  2  0  0  0  0  0  0  0  0  0
   -1.2923    1.2953    6.5617 C   0  0  0  0  0  0  0  0  0  0  0  0
    0.9778    1.8784    7.2524 C   0  0  0  0  0  0  0  0  0  0  0  0
    2.0128    1.0202    7.5420 C   0  0  0  0  0  0  0  0  0  0  0  0
    2.7724   -0.1143    6.7724 C   0  0  1  0  0  0  0  0  0  0  0  0
    1.8654   -1.3303    6.3477 C   0  0  1  0  0  0  0  0  0  0  0  0
    1.4422   -2.3159    7.4465 C   0  0  0  0  0  0  0  0  0  0  0  0
    1.3502   -3.5883    6.7884 O   0  0  0  0  0  0  0  0  0  0  0  0
    1.8445   -3.4986    5.4784 C   0  0  1  0  0  0  0  0  0  0  0  0
    2.6262   -4.6216    5.1389 O   0  0  0  0  0  0  0  0  0  0  0  0
    0.6365   -3.3589    4.5376 C   0  0  0  0  0  0  0  0  0  0  0  0
   -0.1736   -2.1194    4.9528 C   0  0  0  0  0  0  0  0  0  0  0  0
    0.7012   -0.9124    5.4057 C   0  0  2  0  0  0  0  0  0  0  0  0
    1.1963    0.1183    4.3069 C   0  0  1  0  0  0  0  0  0  0  0  0
    0.6702   -0.2161    2.8896 C   0  0  0  0  0  0  0  0  0  0  0  0
    0.7507    1.5913    4.7055 C   0  0  1  0  0  0  0  0  0  0  0  0
    2.7802   -0.1128    4.2873 C   0  0  1  0  0  0  0  0  0  0  0  0
    3.7203    0.2930    3.1504 C   0  0  0  0  0  0  0  0  0  0  0  0
    5.0403    0.1470    3.7291 O   0  0  0  0  0  0  0  0  0  0  0  0
    4.9501   -0.2181    5.0866 C   0  0  1  0  0  0  0  0  0  0  0  0
    6.0726    0.1911    5.8430 O   0  0  0  0  0  0  0  0  0  0  0  0
    3.5794    0.4156    5.5203 C   0  0  2  0  0  0  0  0  0  0  0  0
    3.9871    1.9285    5.6723 C   0  0  0  0  0  0  0  0  0  0  0  0
    2.8644   -1.5709    4.2255 O   0  0  0  0  0  0  0  0  0  0  0  0
    2.7043   -2.2374    5.4957 C   0  0  1  0  0  0  0  0  0  0  0  0
    2.6325    4.0619    4.4625 H   0  0  0  0  0  0  0  0  0  0  0  0
    1.9200    4.1477    6.1061 H   0  0  0  0  0  0  0  0  0  0  0  0
    1.9239    5.5254    5.0869 H   0  0  0  0  0  0  0  0  0  0  0  0
   -0.8622    5.1261    3.0165 H   0  0  0  0  0  0  0  0  0  0  0  0
    0.7855    5.6168    3.0342 H   0  0  0  0  0  0  0  0  0  0  0  0
   -0.2601    6.0937    4.3563 H   0  0  0  0  0  0  0  0  0  0  0  0
    0.9079    2.6844    2.7623 H   0  0  0  0  0  0  0  0  0  0  0  0
   -1.5140    3.0759    2.5271 H   0  0  0  0  0  0  0  0  0  0  0  0
   -1.5562    1.5496    3.3839 H   0  0  0  0  0  0  0  0  0  0  0  0
   -2.2171    4.2421    4.4414 H   0  0  0  0  0  0  0  0  0  0  0  0
   -2.6290    2.7405    5.1126 H   0  0  0  0  0  0  0  0  0  0  0  0
   -0.6839    4.1327    6.4227 H   0  0  0  0  0  0  0  0  0  0  0  0
   -1.8359    0.7767    5.7701 H   0  0  0  0  0  0  0  0  0  0  0  0
   -1.9689    2.0017    7.0456 H   0  0  0  0  0  0  0  0  0  0  0  0
   -1.1045    0.5770    7.3619 H   0  0  0  0  0  0  0  0  0  0  0  0
    0.7347    2.5802    8.0381 H   0  0  0  0  0  0  0  0  0  0  0  0
    2.4597    1.1890    8.5111 H   0  0  0  0  0  0  0  0  0  0  0  0
    3.5187   -0.4768    7.4812 H   0  0  0  0  0  0  0  0  0  0  0  0
    2.1913   -2.3704    8.2366 H   0  0  0  0  0  0  0  0  0  0  0  0
    0.4880   -2.0448    7.8965 H   0  0  0  0  0  0  0  0  0  0  0  0
    2.0627   -5.3793    5.1297 H   0  0  0  0  0  0  0  0  0  0  0  0
    0.9786   -3.2917    3.5025 H   0  0  0  0  0  0  0  0  0  0  0  0
    0.0180   -4.2541    4.6249 H   0  0  0  0  0  0  0  0  0  0  0  0
   -0.8893   -1.8558    4.1783 H   0  0  0  0  0  0  0  0  0  0  0  0
   -0.8012   -2.4111    5.7977 H   0  0  0  0  0  0  0  0  0  0  0  0
    0.0449   -0.4673    6.0886 H   0  0  0  0  0  0  0  0  0  0  0  0
    1.0589    0.4719    2.1390 H   0  0  0  0  0  0  0  0  0  0  0  0
   -0.4130   -0.1781    2.8315 H   0  0  0  0  0  0  0  0  0  0  0  0
    0.9736   -1.2097    2.5669 H   0  0  0  0  0  0  0  0  0  0  0  0
    1.7280    1.9826    4.8423 H   0  0  0  0  0  0  0  0  0  0  0  0
    3.6151   -0.3454    2.2713 H   0  0  0  0  0  0  0  0  0  0  0  0
    3.5513    1.3267    2.8488 H   0  0  0  0  0  0  0  0  0  0  0  0
    5.0052   -1.2999    5.0901 H   0  0  0  0  0  0  0  0  0  0  0  0
    6.8274   -0.2662    5.5067 H   0  0  0  0  0  0  0  0  0  0  0  0
    4.3464    2.3752    4.7462 H   0  0  0  0  0  0  0  0  0  0  0  0
    4.7700    2.0635    6.4178 H   0  0  0  0  0  0  0  0  0  0  0  0
    3.2318    2.5795    6.0709 H   0  0  0  0  0  0  0  0  0  0  0  0
    3.6377   -2.4821    5.9974 H   0  0  0  0  0  0  0  0  0  0  0  0
  1  2  1  0
  1 33  1  0
  1 34  1  0
  1 35  1  0
  2  7  1  0
  2  3  1  0
  2  4  1  0
  3 36  1  0
  3 37  1  0
  3 38  1  0
  4 23  1  0
  4  5  1  0
  4 39  1  6
  5  6  1  0
  5 40  1  0
  5 41  1  0
  6  7  1  0
  6 42  1  0
  6 43  1  0
  7  8  1  0
  7 44  1  1
  8 23  1  0
  8  9  1  1
  8 10  1  0
  9 45  1  0
  9 46  1  0
  9 47  1  0
 10 11  2  3
 10 48  1  0
 11 12  1  0
 11 49  1  0
 12 29  1  0
 12 13  1  0
 12 50  1  1
 13 20  1  0
 13 32  1  0
 13 14  1  1
 14 15  1  0
 14 51  1  0
 14 52  1  0
 15 16  1  0
 16 32  1  0
 16 17  1  6
 16 18  1  0
 17 53  1  0
 18 19  1  0
 18 54  1  0
 18 55  1  0
 19 20  1  0
 19 56  1  0
 19 57  1  0
 20 21  1  0
 20 58  1  1
 21 22  1  6
 21 23  1  0
 21 24  1  0
 22 59  1  0
 22 60  1  0
 22 61  1  0
 23 62  1  1
 24 29  1  0
 24 25  1  6
 24 31  1  0
 25 26  1  0
 25 63  1  0
 25 64  1  0
 26 27  1  0
 27 28  1  0
 27 29  1  0
 27 65  1  6
 28 66  1  0
 29 30  1  6
 30 67  1  0
 30 68  1  0
 30 69  1  0
 31 32  1  0
 32 70  1  1
M  END
>  <i_m_ct_stereo_status>  (36) 
1

>  <s_m_source_file>  (36) 
/var/tmp/pbs.5076255.sched01/tmp3_il56_a/09f63jmog.sdf

>  <i_m_source_file_index>  (36) 
13

>  <i_lp_mmshare_version>  (36) 
48012

>  <i_f3d_flags>  (36) 
0

>  <s_epik_input>  (36) 
W0NIXVwxPVtDSF1cW0NAQF0yKFtDSDNdKVtDQEhdKFtDSDJdW0NIMl0zKUMoW0NIM10pKFtDSDNdKVtDQEhdM1tDQEBIXTJbQ0BAXShbQ0gzXSkoW0NAXTQoW0NAXTUoW0NAQEhdMVtDQEBdNjc4KVtDSDNdKVtDSDJdT1tDQEhdNVtPSF0pW0NASF03W0NIMl1bQ0gyXVtDQEBdKFtPSF0pKFtDQEhdOE80KU9bQ0gyXTY=

>  <s_epik_cmdline>  (36) 
J2VwaWtfcHl0aG9uJywgJy1waHQnLCAnMi4wJywgJy1waCcsICc3LjAnLCAnLXRuJywgJzgnLCAnLW1hJywgJzIwMCcsICctaW1hZScsICc8aW5maWxlLm1hZT4nLCAnLW9tYWUnLCAnPG91dGZpbGUubWFlPic=

>  <r_lp_tautomer_probability>  (36) 
1

>  <r_epik_Ionization_Penalty>  (36) 
2.59571e-07

>  <r_epik_Ionization_Penalty_Charging>  (36) 
0

>  <r_epik_Ionization_Penalty_Neutral>  (36) 
2.59571e-07

>  <r_epik_State_Penalty>  (36) 
-0

>  <r_epik_Charging_Adjusted_Penalty>  (36) 
0

>  <i_epik_Tot_Q>  (36) 
0

>  <i_epik_Tot_abs_Q>  (36) 
0

>  <s_epik_Chemistry_Notes>  (36) 
This compound contains an acetal/aminal-like group ( X-CH(R)-Y where X, Y are N, S, or O) that may be acid/base labile, releasing an aldehyde.

>  <s_lp_Force_Field>  (36) 
OPLS3e

>  <r_lp_Energy>  (36) 
173.114

>  <b_lp_Chiralities_Consistent>  (36) 
1

>  <s_lp_Variant>  (36) 
9:0-1

>  <s_i_glide_gridfile>  (36) 
pfpi4k_grid

>  <i_i_glide_lignum>  (36) 
13

>  <i_i_glide_rotatable_bonds>  (36) 
2

>  <r_i_docking_score>  (36) 
-1.66194

>  <r_i_glide_ligand_efficiency>  (36) 
-0.0519355

>  <r_i_glide_ligand_efficiency_sa>  (36) 
-0.164885

>  <r_i_glide_ligand_efficiency_ln>  (36) 
-0.372153

>  <r_i_glide_gscore>  (36) 
-1.66194

>  <r_i_glide_lipo>  (36) 
-0.0178121

>  <r_i_glide_hbond>  (36) 
0

>  <r_i_glide_metal>  (36) 
-0

>  <r_i_glide_rewards>  (36) 
-0.451346

>  <r_i_glide_evdw>  (36) 
-24.3516

>  <r_i_glide_ecoul>  (36) 
0.165346

>  <r_i_glide_erotb>  (36) 
0

>  <r_i_glide_esite>  (36) 
0

>  <r_i_glide_emodel>  (36) 
-26.3963

>  <r_i_glide_energy>  (36) 
-24.1862

>  <r_i_glide_einternal>  (36) 
0.34472

>  <r_i_glide_intrahb_reward>  (36) 
-0

>  <i_i_glide_confnum>  (36) 
2

>  <i_i_glide_posenum>  (36) 
39

>  <r_i_glide_eff_state_penalty>  (36) 
0

>  <ligand_id>  (36) 
9

>  <original_smiles>  (36) 
CC1(C)C2CCC1C1(C)C=CC3C45COC6(O)CCC4C(C)(C21)C1(COC(O)C31C)OC65

>  <smiles>  (36) 
[H]OC1([H])OC([H])([H])C23OC4([H])C5(O[H])OC([H])([H])C46C([H])(C([H])=C([H])C4(C([H])([H])[H])C7([H])C([H])([H])C([H])([H])C([H])(C4([H])C2(C([H])([H])[H])C6([H])C([H])([H])C5([H])[H])C7(C([H])([H])[H])C([H])([H])[H])C13C([H])([H])[H]

$$$$
9:1:0
     RDKit          3D

 70 77  0  0  1  0  0  0  0  0999 V2000
    4.1354   -8.1638    7.1941 C   0  0  0  0  0  0  0  0  0  0  0  0
    4.3938   -7.5009    5.7911 C   0  0  0  0  0  0  0  0  0  0  0  0
    3.1952   -7.9724    4.9872 C   0  0  0  0  0  0  0  0  0  0  0  0
    4.5412   -5.9716    5.7615 C   0  0  1  0  0  0  0  0  0  0  0  0
    5.7677   -5.8043    6.7113 C   0  0  0  0  0  0  0  0  0  0  0  0
    6.6302   -7.0412    6.3583 C   0  0  0  0  0  0  0  0  0  0  0  0
    5.8273   -7.6889    5.1898 C   0  0  2  0  0  0  0  0  0  0  0  0
    5.9906   -6.7802    3.8866 C   0  0  1  0  0  0  0  0  0  0  0  0
    7.4811   -6.2838    3.7745 C   0  0  0  0  0  0  0  0  0  0  0  0
    5.8997   -7.5361    2.5097 C   0  0  0  0  0  0  0  0  0  0  0  0
    5.3226   -7.2170    1.3007 C   0  0  0  0  0  0  0  0  0  0  0  0
    4.2773   -6.2578    0.6885 C   0  0  2  0  0  0  0  0  0  0  0  0
    4.7656   -4.7130    0.7481 C   0  0  2  0  0  0  0  0  0  0  0  0
    5.7547   -4.3078   -0.3343 C   0  0  0  0  0  0  0  0  0  0  0  0
    5.4100   -2.9423   -0.5854 O   0  0  0  0  0  0  0  0  0  0  0  0
    4.2794   -2.5664    0.1683 C   0  0  2  0  0  0  0  0  0  0  0  0
    3.4198   -1.7332   -0.5542 O   0  0  0  0  0  0  0  0  0  0  0  0
    4.7863   -1.8337    1.4223 C   0  0  0  0  0  0  0  0  0  0  0  0
    5.6671   -2.7891    2.2287 C   0  0  0  0  0  0  0  0  0  0  0  0
    5.1851   -4.2476    2.2003 C   0  0  1  0  0  0  0  0  0  0  0  0
    4.1024   -4.7190    3.2735 C   0  0  2  0  0  0  0  0  0  0  0  0
    3.5892   -3.5205    4.1500 C   0  0  0  0  0  0  0  0  0  0  0  0
    4.9805   -5.6128    4.2863 C   0  0  1  0  0  0  0  0  0  0  0  0
    2.8216   -5.1927    2.3979 C   0  0  2  0  0  0  0  0  0  0  0  0
    1.4061   -5.2765    2.9534 C   0  0  0  0  0  0  0  0  0  0  0  0
    0.6562   -5.8659    1.8562 O   0  0  0  0  0  0  0  0  0  0  0  0
    1.4783   -6.3604    0.8192 C   0  0  1  0  0  0  0  0  0  0  0  0
    1.3847   -5.6571   -0.3793 O   0  0  0  0  0  0  0  0  0  0  0  0
    2.8826   -6.4536    1.4839 C   0  0  1  0  0  0  0  0  0  0  0  0
    2.7504   -7.9451    1.9750 C   0  0  0  0  0  0  0  0  0  0  0  0
    2.6747   -4.0229    1.5191 O   0  0  0  0  0  0  0  0  0  0  0  0
    3.5920   -3.8970    0.4210 C   0  0  2  0  0  0  0  0  0  0  0  0
    3.1422   -7.9179    7.5783 H   0  0  0  0  0  0  0  0  0  0  0  0
    4.8026   -7.8905    8.0079 H   0  0  0  0  0  0  0  0  0  0  0  0
    4.1799   -9.2537    7.1188 H   0  0  0  0  0  0  0  0  0  0  0  0
    2.9697   -7.2311    4.2443 H   0  0  0  0  0  0  0  0  0  0  0  0
    2.2760   -8.0450    5.5704 H   0  0  0  0  0  0  0  0  0  0  0  0
    3.3709   -8.9579    4.5587 H   0  0  0  0  0  0  0  0  0  0  0  0
    3.6683   -5.4401    6.1256 H   0  0  0  0  0  0  0  0  0  0  0  0
    6.3058   -4.8667    6.5645 H   0  0  0  0  0  0  0  0  0  0  0  0
    5.4748   -5.8081    7.7657 H   0  0  0  0  0  0  0  0  0  0  0  0
    7.6721   -6.7887    6.1740 H   0  0  0  0  0  0  0  0  0  0  0  0
    6.7152   -7.7263    7.1994 H   0  0  0  0  0  0  0  0  0  0  0  0
    6.1131   -8.7249    5.0173 H   0  0  0  0  0  0  0  0  0  0  0  0
    7.7199   -5.4735    4.4522 H   0  0  0  0  0  0  0  0  0  0  0  0
    7.7828   -5.9330    2.7808 H   0  0  0  0  0  0  0  0  0  0  0  0
    8.1717   -7.0950    3.9970 H   0  0  0  0  0  0  0  0  0  0  0  0
    6.5107   -8.4193    2.4756 H   0  0  0  0  0  0  0  0  0  0  0  0
    4.9703   -6.4456    1.8040 H   0  0  0  0  0  0  0  0  0  0  0  0
    4.1049   -6.5568   -0.3221 H   0  0  0  0  0  0  0  0  0  0  0  0
    6.7918   -4.4018   -0.0026 H   0  0  0  0  0  0  0  0  0  0  0  0
    5.6197   -4.8869   -1.2525 H   0  0  0  0  0  0  0  0  0  0  0  0
    2.5418   -1.8101   -0.1777 H   0  0  0  0  0  0  0  0  0  0  0  0
    5.3586   -0.9486    1.1245 H   0  0  0  0  0  0  0  0  0  0  0  0
    3.9348   -1.4782    1.9961 H   0  0  0  0  0  0  0  0  0  0  0  0
    6.6636   -2.7501    1.8000 H   0  0  0  0  0  0  0  0  0  0  0  0
    5.8213   -2.4310    3.2378 H   0  0  0  0  0  0  0  0  0  0  0  0
    6.1358   -4.7507    2.3519 H   0  0  0  0  0  0  0  0  0  0  0  0
    2.8195   -3.8425    4.8519 H   0  0  0  0  0  0  0  0  0  0  0  0
    3.1291   -2.7247    3.5641 H   0  0  0  0  0  0  0  0  0  0  0  0
    4.3718   -3.0516    4.7574 H   0  0  0  0  0  0  0  0  0  0  0  0
    5.6814   -4.8165    4.5180 H   0  0  0  0  0  0  0  0  0  0  0  0
    1.3343   -5.8811    3.8646 H   0  0  0  0  0  0  0  0  0  0  0  0
    1.0023   -4.2879    3.1964 H   0  0  0  0  0  0  0  0  0  0  0  0
    1.0260   -7.3131    0.5589 H   0  0  0  0  0  0  0  0  0  0  0  0
    2.1952   -5.8257   -0.8855 H   0  0  0  0  0  0  0  0  0  0  0  0
    1.8477   -8.1164    2.5730 H   0  0  0  0  0  0  0  0  0  0  0  0
    3.5620   -8.3783    2.5451 H   0  0  0  0  0  0  0  0  0  0  0  0
    2.6747   -8.6314    1.1267 H   0  0  0  0  0  0  0  0  0  0  0  0
    3.1557   -4.1859   -0.5198 H   0  0  0  0  0  0  0  0  0  0  0  0
  1  2  1  0
  1 33  1  0
  1 34  1  0
  1 35  1  0
  2  7  1  0
  2  3  1  0
  2  4  1  0
  3 36  1  0
  3 37  1  0
  3 38  1  0
  4 23  1  0
  4  5  1  0
  4 39  1  1
  5  6  1  0
  5 40  1  0
  5 41  1  0
  6  7  1  0
  6 42  1  0
  6 43  1  0
  7  8  1  0
  7 44  1  6
  8 23  1  0
  8  9  1  1
  8 10  1  0
  9 45  1  0
  9 46  1  0
  9 47  1  0
 10 11  2  3
 10 48  1  0
 11 12  1  0
 11 49  1  0
 12 29  1  0
 12 13  1  0
 12 50  1  6
 13 20  1  0
 13 32  1  0
 13 14  1  6
 14 15  1  0
 14 51  1  0
 14 52  1  0
 15 16  1  0
 16 32  1  0
 16 17  1  6
 16 18  1  0
 17 53  1  0
 18 19  1  0
 18 54  1  0
 18 55  1  0
 19 20  1  0
 19 56  1  0
 19 57  1  0
 20 21  1  0
 20 58  1  1
 21 22  1  1
 21 23  1  0
 21 24  1  0
 22 59  1  0
 22 60  1  0
 22 61  1  0
 23 62  1  1
 24 29  1  0
 24 25  1  1
 24 31  1  0
 25 26  1  0
 25 63  1  0
 25 64  1  0
 26 27  1  0
 27 28  1  0
 27 29  1  0
 27 65  1  6
 28 66  1  0
 29 30  1  1
 30 67  1  0
 30 68  1  0
 30 69  1  0
 31 32  1  0
 32 70  1  6
M  END
>  <i_m_ct_stereo_status>  (37) 
1

>  <s_m_source_file>  (37) 
/var/tmp/pbs.5076255.sched01/tmp3_il56_a/09f63jmog.sdf

>  <i_m_source_file_index>  (37) 
14

>  <i_lp_mmshare_version>  (37) 
48012

>  <i_f3d_flags>  (37) 
2

>  <s_epik_input>  (37) 
W0NIXVwxPVtDSF1cW0NAQF0yKFtDSDNdKVtDQEhdKFtDSDJdW0NIMl0zKUMoW0NIM10pKFtDSDNdKVtDQEhdM1tDQEBIXTJbQ0BAXShbQ0gzXSkoW0NAXTQoW0NAXTUoW0NAQEhdMVtDQEBdNjc4KVtDSDNdKVtDSDJdT1tDQEhdNVtPSF0pW0NASF03W0NIMl1bQ0gyXVtDQEBdKFtPSF0pKFtDQEhdOE80KU9bQ0gyXTY=

>  <s_epik_cmdline>  (37) 
J2VwaWtfcHl0aG9uJywgJy1waHQnLCAnMi4wJywgJy1waCcsICc3LjAnLCAnLXRuJywgJzgnLCAnLW1hJywgJzIwMCcsICctaW1hZScsICc8aW5maWxlLm1hZT4nLCAnLW9tYWUnLCAnPG91dGZpbGUubWFlPic=

>  <r_lp_tautomer_probability>  (37) 
1

>  <r_epik_Ionization_Penalty>  (37) 
2.59571e-07

>  <r_epik_Ionization_Penalty_Charging>  (37) 
0

>  <r_epik_Ionization_Penalty_Neutral>  (37) 
2.59571e-07

>  <r_epik_State_Penalty>  (37) 
-0

>  <r_epik_Charging_Adjusted_Penalty>  (37) 
0

>  <i_epik_Tot_Q>  (37) 
0

>  <i_epik_Tot_abs_Q>  (37) 
0

>  <s_epik_Chemistry_Notes>  (37) 
This compound contains an acetal/aminal-like group ( X-CH(R)-Y where X, Y are N, S, or O) that may be acid/base labile, releasing an aldehyde.

>  <s_lp_Force_Field>  (37) 
OPLS3e

>  <r_lp_Energy>  (37) 
187.387

>  <b_lp_Chiralities_Consistent>  (37) 
0

>  <s_lp_Variant>  (37) 
9:0-2

>  <s_i_glide_gridfile>  (37) 
pfpi4k_grid

>  <i_i_glide_lignum>  (37) 
14

>  <i_i_glide_rotatable_bonds>  (37) 
2

>  <r_i_docking_score>  (37) 
-3.53287

>  <r_i_glide_ligand_efficiency>  (37) 
-0.110402

>  <r_i_glide_ligand_efficiency_sa>  (37) 
-0.350505

>  <r_i_glide_ligand_efficiency_ln>  (37) 
-0.791106

>  <r_i_glide_gscore>  (37) 
-3.53287

>  <r_i_glide_lipo>  (37) 
-0.45547

>  <r_i_glide_hbond>  (37) 
-0.151973

>  <r_i_glide_metal>  (37) 
-0

>  <r_i_glide_rewards>  (37) 
-0.391448

>  <r_i_glide_evdw>  (37) 
-19.6731

>  <r_i_glide_ecoul>  (37) 
-9.86166

>  <r_i_glide_erotb>  (37) 
0

>  <r_i_glide_esite>  (37) 
-0.0710766

>  <r_i_glide_emodel>  (37) 
-32.7395

>  <r_i_glide_energy>  (37) 
-29.5348

>  <r_i_glide_einternal>  (37) 
3.81517

>  <r_i_glide_intrahb_reward>  (37) 
-0

>  <i_i_glide_confnum>  (37) 
2

>  <i_i_glide_posenum>  (37) 
15

>  <r_i_glide_eff_state_penalty>  (37) 
0

>  <ligand_id>  (37) 
9

>  <original_smiles>  (37) 
CC1(C)C2CCC1C1(C)C=CC3C45COC6(O)CCC4C(C)(C21)C1(COC(O)C31C)OC65

>  <smiles>  (37) 
[H]OC1([H])OC([H])([H])C23OC4([H])C5(O[H])OC([H])([H])C46C([H])(C([H])=C([H])C4(C([H])([H])[H])C7([H])C([H])([H])C([H])([H])C([H])(C4([H])C2(C([H])([H])[H])C6([H])C([H])([H])C5([H])[H])C7(C([H])([H])[H])C([H])([H])[H])C13C([H])([H])[H]

$$$$
9:1:1
     RDKit          3D

 70 77  0  0  1  0  0  0  0  0999 V2000
    5.3170   -7.7694    6.7843 C   0  0  0  0  0  0  0  0  0  0  0  0
    5.3483   -7.1336    5.3477 C   0  0  0  0  0  0  0  0  0  0  0  0
    4.0259   -7.5945    4.7635 C   0  0  0  0  0  0  0  0  0  0  0  0
    5.5035   -5.6098    5.2684 C   0  0  1  0  0  0  0  0  0  0  0  0
    6.8756   -5.4446    5.9949 C   0  0  0  0  0  0  0  0  0  0  0  0
    7.6522   -6.7002    5.5237 C   0  0  0  0  0  0  0  0  0  0  0  0
    6.6585   -7.3564    4.5207 C   0  0  2  0  0  0  0  0  0  0  0  0
    6.6217   -6.4754    3.2079 C   0  0  1  0  0  0  0  0  0  0  0  0
    8.0743   -6.0059    2.8237 C   0  0  0  0  0  0  0  0  0  0  0  0
    6.2744   -7.2513    1.8851 C   0  0  0  0  0  0  0  0  0  0  0  0
    5.5170   -6.9114    0.8011 C   0  0  0  0  0  0  0  0  0  0  0  0
    4.3888   -5.9496    0.3279 C   0  0  2  0  0  0  0  0  0  0  0  0
    4.9140   -4.4407    0.2820 C   0  0  2  0  0  0  0  0  0  0  0  0
    5.7046   -4.0501   -0.9616 C   0  0  0  0  0  0  0  0  0  0  0  0
    5.3779   -2.6755   -1.1696 O   0  0  0  0  0  0  0  0  0  0  0  0
    4.3777   -2.2613   -0.2723 C   0  0  2  0  0  0  0  0  0  0  0  0
    3.4316   -1.4124   -0.8776 O   0  0  0  0  0  0  0  0  0  0  0  0
    5.0869   -1.5244    0.8756 C   0  0  0  0  0  0  0  0  0  0  0  0
    6.0782   -2.4915    1.5383 C   0  0  0  0  0  0  0  0  0  0  0  0
    5.5701   -3.9433    1.6229 C   0  0  1  0  0  0  0  0  0  0  0  0
    4.6739   -4.3809    2.8723 C   0  0  2  0  0  0  0  0  0  0  0  0
    4.3427   -3.1599    3.7984 C   0  0  0  0  0  0  0  0  0  0  0  0
    5.6892   -5.2965    3.7344 C   0  0  1  0  0  0  0  0  0  0  0  0
    3.2607   -4.8335    2.2261 C   0  0  2  0  0  0  0  0  0  0  0  0
    1.9544   -4.8835    3.0021 C   0  0  0  0  0  0  0  0  0  0  0  0
    1.0451   -5.4639    2.0465 O   0  0  0  0  0  0  0  0  0  0  0  0
    1.6826   -6.0372    0.9259 C   0  0  1  0  0  0  0  0  0  0  0  0
    1.4299   -5.3745   -0.2924 O   0  0  0  0  0  0  0  0  0  0  0  0
    3.1671   -6.1196    1.3464 C   0  0  1  0  0  0  0  0  0  0  0  0
    3.0785   -7.6030    1.8765 C   0  0  0  0  0  0  0  0  0  0  0  0
    3.0014   -3.6685    1.3624 O   0  0  0  0  0  0  0  0  0  0  0  0
    3.7221   -3.5862    0.1198 C   0  0  2  0  0  0  0  0  0  0  0  0
    4.4052   -7.5000    7.3205 H   0  0  0  0  0  0  0  0  0  0  0  0
    6.1144   -7.4958    7.4712 H   0  0  0  0  0  0  0  0  0  0  0  0
    5.3319   -8.8604    6.7175 H   0  0  0  0  0  0  0  0  0  0  0  0
    3.6912   -6.8576    4.0570 H   0  0  0  0  0  0  0  0  0  0  0  0
    3.2172   -7.6394    5.4929 H   0  0  0  0  0  0  0  0  0  0  0  0
    4.1133   -8.5886    4.3266 H   0  0  0  0  0  0  0  0  0  0  0  0
    4.7110   -5.0561    5.7675 H   0  0  0  0  0  0  0  0  0  0  0  0
    7.3963   -4.5198    5.7459 H   0  0  0  0  0  0  0  0  0  0  0  0
    6.7656   -5.4311    7.0823 H   0  0  0  0  0  0  0  0  0  0  0  0
    8.6542   -6.4662    5.1681 H   0  0  0  0  0  0  0  0  0  0  0  0
    7.8649   -7.3733    6.3519 H   0  0  0  0  0  0  0  0  0  0  0  0
    6.8977   -8.3972    4.3197 H   0  0  0  0  0  0  0  0  0  0  0  0
    8.4512   -5.1970    3.4390 H   0  0  0  0  0  0  0  0  0  0  0  0
    8.2040   -5.6654    1.7885 H   0  0  0  0  0  0  0  0  0  0  0  0
    8.7810   -6.8271    2.9357 H   0  0  0  0  0  0  0  0  0  0  0  0
    6.8460   -8.1531    1.7396 H   0  0  0  0  0  0  0  0  0  0  0  0
    5.3605   -6.1548    1.4355 H   0  0  0  0  0  0  0  0  0  0  0  0
    4.0539   -6.2790   -0.6545 H   0  0  0  0  0  0  0  0  0  0  0  0
    6.7740   -4.1389   -0.8035 H   0  0  0  0  0  0  0  0  0  0  0  0
    5.4148   -4.6182   -1.8503 H   0  0  0  0  0  0  0  0  0  0  0  0
    2.6756   -1.9342   -1.1040 H   0  0  0  0  0  0  0  0  0  0  0  0
    5.6174   -0.6510    0.4814 H   0  0  0  0  0  0  0  0  0  0  0  0
    4.3473   -1.1537    1.5835 H   0  0  0  0  0  0  0  0  0  0  0  0
    6.9991   -2.4701    0.9533 H   0  0  0  0  0  0  0  0  0  0  0  0
    6.4009   -2.1086    2.4977 H   0  0  0  0  0  0  0  0  0  0  0  0
    6.5255   -4.4443    1.6246 H   0  0  0  0  0  0  0  0  0  0  0  0
    3.6938   -3.4635    4.6201 H   0  0  0  0  0  0  0  0  0  0  0  0
    3.8012   -2.3658    3.2848 H   0  0  0  0  0  0  0  0  0  0  0  0
    5.2226   -2.6988    4.2583 H   0  0  0  0  0  0  0  0  0  0  0  0
    6.4219   -4.5189    3.8441 H   0  0  0  0  0  0  0  0  0  0  0  0
    2.0234   -5.4877    3.9043 H   0  0  0  0  0  0  0  0  0  0  0  0
    1.6186   -3.8928    3.3067 H   0  0  0  0  0  0  0  0  0  0  0  0
    1.1682   -6.9842    0.7678 H   0  0  0  0  0  0  0  0  0  0  0  0
    2.1584   -5.5274   -0.8724 H   0  0  0  0  0  0  0  0  0  0  0  0
    2.2801   -7.7439    2.6107 H   0  0  0  0  0  0  0  0  0  0  0  0
    3.9564   -8.0418    2.3123 H   0  0  0  0  0  0  0  0  0  0  0  0
    2.8596   -8.2899    1.0569 H   0  0  0  0  0  0  0  0  0  0  0  0
    3.1175   -3.8780   -0.7276 H   0  0  0  0  0  0  0  0  0  0  0  0
  1  2  1  0
  1 33  1  0
  1 34  1  0
  1 35  1  0
  2  7  1  0
  2  3  1  0
  2  4  1  0
  3 36  1  0
  3 37  1  0
  3 38  1  0
  4 23  1  0
  4  5  1  0
  4 39  1  1
  5  6  1  0
  5 40  1  0
  5 41  1  0
  6  7  1  0
  6 42  1  0
  6 43  1  0
  7  8  1  0
  7 44  1  6
  8 23  1  0
  8  9  1  6
  8 10  1  0
  9 45  1  0
  9 46  1  0
  9 47  1  0
 10 11  2  3
 10 48  1  0
 11 12  1  0
 11 49  1  0
 12 29  1  0
 12 13  1  0
 12 50  1  6
 13 20  1  0
 13 32  1  0
 13 14  1  6
 14 15  1  0
 14 51  1  0
 14 52  1  0
 15 16  1  0
 16 32  1  0
 16 17  1  6
 16 18  1  0
 17 53  1  0
 18 19  1  0
 18 54  1  0
 18 55  1  0
 19 20  1  0
 19 56  1  0
 19 57  1  0
 20 21  1  0
 20 58  1  1
 21 22  1  1
 21 23  1  0
 21 24  1  0
 22 59  1  0
 22 60  1  0
 22 61  1  0
 23 62  1  1
 24 29  1  0
 24 25  1  1
 24 31  1  0
 25 26  1  0
 25 63  1  0
 25 64  1  0
 26 27  1  0
 27 28  1  0
 27 29  1  0
 27 65  1  6
 28 66  1  0
 29 30  1  1
 30 67  1  0
 30 68  1  0
 30 69  1  0
 31 32  1  0
 32 70  1  6
M  END
>  <i_m_ct_stereo_status>  (38) 
1

>  <s_m_source_file>  (38) 
/var/tmp/pbs.5076255.sched01/tmp3_il56_a/09f63jmog.sdf

>  <i_m_source_file_index>  (38) 
14

>  <i_lp_mmshare_version>  (38) 
48012

>  <i_f3d_flags>  (38) 
2

>  <s_epik_input>  (38) 
W0NIXVwxPVtDSF1cW0NAQF0yKFtDSDNdKVtDQEhdKFtDSDJdW0NIMl0zKUMoW0NIM10pKFtDSDNdKVtDQEhdM1tDQEBIXTJbQ0BAXShbQ0gzXSkoW0NAXTQoW0NAXTUoW0NAQEhdMVtDQEBdNjc4KVtDSDNdKVtDSDJdT1tDQEhdNVtPSF0pW0NASF03W0NIMl1bQ0gyXVtDQEBdKFtPSF0pKFtDQEhdOE80KU9bQ0gyXTY=

>  <s_epik_cmdline>  (38) 
J2VwaWtfcHl0aG9uJywgJy1waHQnLCAnMi4wJywgJy1waCcsICc3LjAnLCAnLXRuJywgJzgnLCAnLW1hJywgJzIwMCcsICctaW1hZScsICc8aW5maWxlLm1hZT4nLCAnLW9tYWUnLCAnPG91dGZpbGUubWFlPic=

>  <r_lp_tautomer_probability>  (38) 
1

>  <r_epik_Ionization_Penalty>  (38) 
2.59571e-07

>  <r_epik_Ionization_Penalty_Charging>  (38) 
0

>  <r_epik_Ionization_Penalty_Neutral>  (38) 
2.59571e-07

>  <r_epik_State_Penalty>  (38) 
-0

>  <r_epik_Charging_Adjusted_Penalty>  (38) 
0

>  <i_epik_Tot_Q>  (38) 
0

>  <i_epik_Tot_abs_Q>  (38) 
0

>  <s_epik_Chemistry_Notes>  (38) 
This compound contains an acetal/aminal-like group ( X-CH(R)-Y where X, Y are N, S, or O) that may be acid/base labile, releasing an aldehyde.

>  <s_lp_Force_Field>  (38) 
OPLS3e

>  <r_lp_Energy>  (38) 
187.387

>  <b_lp_Chiralities_Consistent>  (38) 
0

>  <s_lp_Variant>  (38) 
9:0-2

>  <s_i_glide_gridfile>  (38) 
pfpi4k_grid

>  <i_i_glide_lignum>  (38) 
14

>  <i_i_glide_rotatable_bonds>  (38) 
2

>  <r_i_docking_score>  (38) 
-3.16341

>  <r_i_glide_ligand_efficiency>  (38) 
-0.0988564

>  <r_i_glide_ligand_efficiency_sa>  (38) 
-0.31385

>  <r_i_glide_ligand_efficiency_ln>  (38) 
-0.708373

>  <r_i_glide_gscore>  (38) 
-3.16341

>  <r_i_glide_lipo>  (38) 
-0.62508

>  <r_i_glide_hbond>  (38) 
-0.0814917

>  <r_i_glide_metal>  (38) 
-0

>  <r_i_glide_rewards>  (38) 
-0.391448

>  <r_i_glide_evdw>  (38) 
-16.0999

>  <r_i_glide_ecoul>  (38) 
-7.83988

>  <r_i_glide_erotb>  (38) 
0

>  <r_i_glide_esite>  (38) 
-0.0844085

>  <r_i_glide_emodel>  (38) 
-28.1703

>  <r_i_glide_energy>  (38) 
-23.9398

>  <r_i_glide_einternal>  (38) 
2.84018

>  <r_i_glide_intrahb_reward>  (38) 
-0

>  <i_i_glide_confnum>  (38) 
2

>  <i_i_glide_posenum>  (38) 
2

>  <r_i_glide_eff_state_penalty>  (38) 
0

>  <ligand_id>  (38) 
9

>  <original_smiles>  (38) 
CC1(C)C2CCC1C1(C)C=CC3C45COC6(O)CCC4C(C)(C21)C1(COC(O)C31C)OC65

>  <smiles>  (38) 
[H]OC1([H])OC([H])([H])C23OC4([H])C5(O[H])OC([H])([H])C46C([H])(C([H])=C([H])C4(C([H])([H])[H])C7([H])C([H])([H])C([H])([H])C([H])(C4([H])C2(C([H])([H])[H])C6([H])C([H])([H])C5([H])[H])C7(C([H])([H])[H])C([H])([H])[H])C13C([H])([H])[H]

$$$$
9:1:2
     RDKit          3D

 70 77  0  0  1  0  0  0  0  0999 V2000
    1.8515   -7.4832    7.5723 C   0  0  0  0  0  0  0  0  0  0  0  0
    2.5981   -6.5677    6.5334 C   0  0  0  0  0  0  0  0  0  0  0  0
    2.7530   -7.4979    5.3422 C   0  0  0  0  0  0  0  0  0  0  0  0
    1.9074   -5.2515    6.1514 C   0  0  1  0  0  0  0  0  0  0  0  0
    1.8275   -4.5747    7.5544 C   0  0  0  0  0  0  0  0  0  0  0  0
    3.1576   -5.0205    8.2137 C   0  0  0  0  0  0  0  0  0  0  0  0
    3.8578   -5.7998    7.0581 C   0  0  2  0  0  0  0  0  0  0  0  0
    4.3706   -4.7613    5.9635 C   0  0  1  0  0  0  0  0  0  0  0  0
    4.9625   -3.4949    6.6765 C   0  0  0  0  0  0  0  0  0  0  0  0
    5.6347   -5.1902    5.1284 C   0  0  0  0  0  0  0  0  0  0  0  0
    5.9914   -5.0942    3.8011 C   0  0  0  0  0  0  0  0  0  0  0  0
    5.3520   -4.7970    2.3999 C   0  0  2  0  0  0  0  0  0  0  0  0
    4.7783   -3.2814    2.3111 C   0  0  2  0  0  0  0  0  0  0  0  0
    5.8148   -2.1858    2.0410 C   0  0  0  0  0  0  0  0  0  0  0  0
    5.1026   -1.2313    1.2406 O   0  0  0  0  0  0  0  0  0  0  0  0
    3.8035   -1.7098    0.9582 C   0  0  2  0  0  0  0  0  0  0  0  0
    3.4166   -1.3884   -0.3495 O   0  0  0  0  0  0  0  0  0  0  0  0
    2.8504   -1.0485    1.9733 C   0  0  0  0  0  0  0  0  0  0  0  0
    3.2598   -1.4433    3.3950 C   0  0  0  0  0  0  0  0  0  0  0  0
    3.7820   -2.8930    3.4821 C   0  0  1  0  0  0  0  0  0  0  0  0
    2.7255   -4.0610    3.7265 C   0  0  2  0  0  0  0  0  0  0  0  0
    1.2485   -3.5435    3.6776 C   0  0  0  0  0  0  0  0  0  0  0  0
    2.9572   -4.4590    5.2677 C   0  0  1  0  0  0  0  0  0  0  0  0
    2.8718   -5.0258    2.4324 C   0  0  2  0  0  0  0  0  0  0  0  0
    1.7878   -5.9798    1.9770 C   0  0  0  0  0  0  0  0  0  0  0  0
    2.4337   -6.6925    0.9270 O   0  0  0  0  0  0  0  0  0  0  0  0
    3.8208   -6.4780    0.8063 C   0  0  1  0  0  0  0  0  0  0  0  0
    4.2264   -5.7353   -0.3159 O   0  0  0  0  0  0  0  0  0  0  0  0
    4.1829   -5.8567    2.1819 C   0  0  1  0  0  0  0  0  0  0  0  0
    4.5358   -7.2265    2.8915 C   0  0  0  0  0  0  0  0  0  0  0  0
    2.7729   -4.0040    1.3818 O   0  0  0  0  0  0  0  0  0  0  0  0
    3.9494   -3.2225    1.0963 C   0  0  2  0  0  0  0  0  0  0  0  0
    0.9415   -7.9135    7.1480 H   0  0  0  0  0  0  0  0  0  0  0  0
    1.5139   -7.0223    8.4971 H   0  0  0  0  0  0  0  0  0  0  0  0
    2.4824   -8.3244    7.8669 H   0  0  0  0  0  0  0  0  0  0  0  0
    2.7552   -6.9026    4.4486 H   0  0  0  0  0  0  0  0  0  0  0  0
    1.9103   -8.1769    5.2006 H   0  0  0  0  0  0  0  0  0  0  0  0
    3.6431   -8.1195    5.4354 H   0  0  0  0  0  0  0  0  0  0  0  0
    0.9238   -5.3796    5.7047 H   0  0  0  0  0  0  0  0  0  0  0  0
    1.7311   -3.4889    7.5143 H   0  0  0  0  0  0  0  0  0  0  0  0
    0.9647   -4.9206    8.1277 H   0  0  0  0  0  0  0  0  0  0  0  0
    3.7019   -4.1931    8.6637 H   0  0  0  0  0  0  0  0  0  0  0  0
    2.9842   -5.6633    9.0759 H   0  0  0  0  0  0  0  0  0  0  0  0
    4.6537   -6.4470    7.4249 H   0  0  0  0  0  0  0  0  0  0  0  0
    4.2157   -2.8123    7.0707 H   0  0  0  0  0  0  0  0  0  0  0  0
    5.6157   -2.8805    6.0491 H   0  0  0  0  0  0  0  0  0  0  0  0
    5.5991   -3.7951    7.5099 H   0  0  0  0  0  0  0  0  0  0  0  0
    6.4266   -5.5499    5.7752 H   0  0  0  0  0  0  0  0  0  0  0  0
    5.0953   -4.7252    3.8572 H   0  0  0  0  0  0  0  0  0  0  0  0
    6.1246   -4.9552    1.6334 H   0  0  0  0  0  0  0  0  0  0  0  0
    6.1876   -1.7331    2.9610 H   0  0  0  0  0  0  0  0  0  0  0  0
    6.6688   -2.5831    1.4928 H   0  0  0  0  0  0  0  0  0  0  0  0
    2.4434   -1.3334   -0.3583 H   0  0  0  0  0  0  0  0  0  0  0  0
    2.9032    0.0379    1.8570 H   0  0  0  0  0  0  0  0  0  0  0  0
    1.8305   -1.3436    1.7396 H   0  0  0  0  0  0  0  0  0  0  0  0
    4.0604   -0.7769    3.7048 H   0  0  0  0  0  0  0  0  0  0  0  0
    2.4742   -1.2374    4.1121 H   0  0  0  0  0  0  0  0  0  0  0  0
    4.4294   -2.7936    4.3359 H   0  0  0  0  0  0  0  0  0  0  0  0
    0.5274   -4.3562    3.7836 H   0  0  0  0  0  0  0  0  0  0  0  0
    0.9978   -3.0663    2.7325 H   0  0  0  0  0  0  0  0  0  0  0  0
    1.0034   -2.8240    4.4606 H   0  0  0  0  0  0  0  0  0  0  0  0
    2.7557   -3.4604    5.6410 H   0  0  0  0  0  0  0  0  0  0  0  0
    1.4625   -6.6785    2.7273 H   0  0  0  0  0  0  0  0  0  0  0  0
    0.9152   -5.4740    1.5946 H   0  0  0  0  0  0  0  0  0  0  0  0
    4.2597   -7.4638    0.6041 H   0  0  0  0  0  0  0  0  0  0  0  0
    3.7780   -6.0940   -1.0806 H   0  0  0  0  0  0  0  0  0  0  0  0
    3.7506   -7.9804    2.7982 H   0  0  0  0  0  0  0  0  0  0  0  0
    4.8075   -7.2033    3.9378 H   0  0  0  0  0  0  0  0  0  0  0  0
    5.4268   -7.6684    2.4343 H   0  0  0  0  0  0  0  0  0  0  0  0
    4.5207   -3.5377    0.2385 H   0  0  0  0  0  0  0  0  0  0  0  0
  1  2  1  0
  1 33  1  0
  1 34  1  0
  1 35  1  0
  2  7  1  0
  2  3  1  0
  2  4  1  0
  3 36  1  0
  3 37  1  0
  3 38  1  0
  4 23  1  0
  4  5  1  0
  4 39  1  6
  5  6  1  0
  5 40  1  0
  5 41  1  0
  6  7  1  0
  6 42  1  0
  6 43  1  0
  7  8  1  0
  7 44  1  1
  8 23  1  0
  8  9  1  1
  8 10  1  0
  9 45  1  0
  9 46  1  0
  9 47  1  0
 10 11  2  3
 10 48  1  0
 11 12  1  0
 11 49  1  0
 12 29  1  0
 12 13  1  0
 12 50  1  6
 13 20  1  0
 13 32  1  0
 13 14  1  6
 14 15  1  0
 14 51  1  0
 14 52  1  0
 15 16  1  0
 16 32  1  0
 16 17  1  6
 16 18  1  0
 17 53  1  0
 18 19  1  0
 18 54  1  0
 18 55  1  0
 19 20  1  0
 19 56  1  0
 19 57  1  0
 20 21  1  0
 20 58  1  1
 21 22  1  1
 21 23  1  0
 21 24  1  0
 22 59  1  0
 22 60  1  0
 22 61  1  0
 23 62  1  1
 24 29  1  0
 24 25  1  6
 24 31  1  0
 25 26  1  0
 25 63  1  0
 25 64  1  0
 26 27  1  0
 27 28  1  0
 27 29  1  0
 27 65  1  6
 28 66  1  0
 29 30  1  1
 30 67  1  0
 30 68  1  0
 30 69  1  0
 31 32  1  0
 32 70  1  6
M  END
>  <i_m_ct_stereo_status>  (39) 
1

>  <s_m_source_file>  (39) 
/var/tmp/pbs.5076255.sched01/tmp3_il56_a/09f63jmog.sdf

>  <i_m_source_file_index>  (39) 
14

>  <i_lp_mmshare_version>  (39) 
48012

>  <i_f3d_flags>  (39) 
2

>  <s_epik_input>  (39) 
W0NIXVwxPVtDSF1cW0NAQF0yKFtDSDNdKVtDQEhdKFtDSDJdW0NIMl0zKUMoW0NIM10pKFtDSDNdKVtDQEhdM1tDQEBIXTJbQ0BAXShbQ0gzXSkoW0NAXTQoW0NAXTUoW0NAQEhdMVtDQEBdNjc4KVtDSDNdKVtDSDJdT1tDQEhdNVtPSF0pW0NASF03W0NIMl1bQ0gyXVtDQEBdKFtPSF0pKFtDQEhdOE80KU9bQ0gyXTY=

>  <s_epik_cmdline>  (39) 
J2VwaWtfcHl0aG9uJywgJy1waHQnLCAnMi4wJywgJy1waCcsICc3LjAnLCAnLXRuJywgJzgnLCAnLW1hJywgJzIwMCcsICctaW1hZScsICc8aW5maWxlLm1hZT4nLCAnLW9tYWUnLCAnPG91dGZpbGUubWFlPic=

>  <r_lp_tautomer_probability>  (39) 
1

>  <r_epik_Ionization_Penalty>  (39) 
2.59571e-07

>  <r_epik_Ionization_Penalty_Charging>  (39) 
0

>  <r_epik_Ionization_Penalty_Neutral>  (39) 
2.59571e-07

>  <r_epik_State_Penalty>  (39) 
-0

>  <r_epik_Charging_Adjusted_Penalty>  (39) 
0

>  <i_epik_Tot_Q>  (39) 
0

>  <i_epik_Tot_abs_Q>  (39) 
0

>  <s_epik_Chemistry_Notes>  (39) 
This compound contains an acetal/aminal-like group ( X-CH(R)-Y where X, Y are N, S, or O) that may be acid/base labile, releasing an aldehyde.

>  <s_lp_Force_Field>  (39) 
OPLS3e

>  <r_lp_Energy>  (39) 
187.387

>  <b_lp_Chiralities_Consistent>  (39) 
0

>  <s_lp_Variant>  (39) 
9:0-2

>  <s_i_glide_gridfile>  (39) 
pfpi4k_grid

>  <i_i_glide_lignum>  (39) 
14

>  <i_i_glide_rotatable_bonds>  (39) 
2

>  <r_i_docking_score>  (39) 
-2.57837

>  <r_i_glide_ligand_efficiency>  (39) 
-0.0805741

>  <r_i_glide_ligand_efficiency_sa>  (39) 
-0.255807

>  <r_i_glide_ligand_efficiency_ln>  (39) 
-0.577368

>  <r_i_glide_gscore>  (39) 
-2.57837

>  <r_i_glide_lipo>  (39) 
-0.162189

>  <r_i_glide_hbond>  (39) 
0

>  <r_i_glide_metal>  (39) 
-0

>  <r_i_glide_rewards>  (39) 
-0.503161

>  <r_i_glide_evdw>  (39) 
-17.4891

>  <r_i_glide_ecoul>  (39) 
-6.76881

>  <r_i_glide_erotb>  (39) 
0

>  <r_i_glide_esite>  (39) 
-0.0232442

>  <r_i_glide_emodel>  (39) 
-27.0362

>  <r_i_glide_energy>  (39) 
-24.2579

>  <r_i_glide_einternal>  (39) 
2.64338

>  <r_i_glide_intrahb_reward>  (39) 
-0

>  <i_i_glide_confnum>  (39) 
1

>  <i_i_glide_posenum>  (39) 
10

>  <r_i_glide_eff_state_penalty>  (39) 
0

>  <ligand_id>  (39) 
9

>  <original_smiles>  (39) 
CC1(C)C2CCC1C1(C)C=CC3C45COC6(O)CCC4C(C)(C21)C1(COC(O)C31C)OC65

>  <smiles>  (39) 
[H]OC1([H])OC([H])([H])C23OC4([H])C5(O[H])OC([H])([H])C46C([H])(C([H])=C([H])C4(C([H])([H])[H])C7([H])C([H])([H])C([H])([H])C([H])(C4([H])C2(C([H])([H])[H])C6([H])C([H])([H])C5([H])[H])C7(C([H])([H])[H])C([H])([H])[H])C13C([H])([H])[H]

$$$$
10:0:0
     RDKit          3D

 16 17  0  0  1  0  0  0  0  0999 V2000
   -2.2946    2.6737    7.9258 C   0  0  0  0  0  0  0  0  0  0  0  0
   -1.9164    2.0039    6.6187 C   0  0  0  0  0  0  0  0  0  0  0  0
   -1.7864    0.7067    6.6614 N   0  0  0  0  0  0  0  0  0  0  0  0
   -1.4424    0.0404    5.5090 C   0  0  0  0  0  0  0  0  0  0  0  0
   -1.2894   -1.6716    5.6037 Cl  0  0  0  0  0  0  0  0  0  0  0  0
   -1.2329    0.6568    4.3023 C   0  0  0  0  0  0  0  0  0  0  0  0
   -1.3798    2.0065    4.2788 N   0  0  0  0  0  0  0  0  0  0  0  0
   -1.2513    2.9077    3.2753 C   0  0  0  0  0  0  0  0  0  0  0  0
   -1.4971    4.1380    3.7321 N   0  0  0  0  0  0  0  0  0  0  0  0
   -1.7844    4.0434    5.0852 N   0  0  0  0  0  0  0  0  0  0  0  0
   -1.7231    2.7510    5.4195 C   0  0  0  0  0  0  0  0  0  0  0  0
   -2.3874    3.7542    7.8130 H   0  0  0  0  0  0  0  0  0  0  0  0
   -1.5369    2.4768    8.6853 H   0  0  0  0  0  0  0  0  0  0  0  0
   -3.2491    2.2915    8.2875 H   0  0  0  0  0  0  0  0  0  0  0  0
   -0.9662    0.1508    3.3801 H   0  0  0  0  0  0  0  0  0  0  0  0
   -0.9858    2.6621    2.2582 H   0  0  0  0  0  0  0  0  0  0  0  0
  1  2  1  0
  1 12  1  0
  1 13  1  0
  1 14  1  0
  2 11  1  0
  2  3  2  0
  3  4  1  0
  4  5  1  0
  4  6  2  0
  6  7  1  0
  6 15  1  0
  7 11  1  0
  7  8  1  0
  8  9  2  0
  8 16  1  0
  9 10  1  0
 10 11  2  0
M  END
>  <i_m_ct_stereo_status>  (40) 
1

>  <s_m_source_file>  (40) 
/var/tmp/pbs.5076255.sched01/tmp3_il56_a/09f63jmog.sdf

>  <i_m_source_file_index>  (40) 
15

>  <i_lp_mmshare_version>  (40) 
48012

>  <i_f3d_flags>  (40) 
0

>  <s_epik_input>  (40) 
Q2xjKFtjSF0xKW5jKFtDSDNdKWMobjEyKW5uW2NIXTI=

>  <s_epik_cmdline>  (40) 
J2VwaWtfcHl0aG9uJywgJy1waHQnLCAnMi4wJywgJy1waCcsICc3LjAnLCAnLXRuJywgJzgnLCAnLW1hJywgJzIwMCcsICctaW1hZScsICc8aW5maWxlLm1hZT4nLCAnLW9tYWUnLCAnPG91dGZpbGUubWFlPic=

>  <r_lp_tautomer_probability>  (40) 
1

>  <r_epik_Ionization_Penalty>  (40) 
2.5367e-08

>  <r_epik_Ionization_Penalty_Charging>  (40) 
0

>  <r_epik_Ionization_Penalty_Neutral>  (40) 
2.5367e-08

>  <r_epik_State_Penalty>  (40) 
-0

>  <r_epik_Charging_Adjusted_Penalty>  (40) 
0

>  <i_epik_Tot_Q>  (40) 
0

>  <i_epik_Tot_abs_Q>  (40) 
0

>  <s_lp_Force_Field>  (40) 
OPLS3e

>  <r_lp_Energy>  (40) 
11.4233

>  <b_lp_Chiralities_Consistent>  (40) 
1

>  <s_lp_Variant>  (40) 
10:0-1

>  <s_i_glide_gridfile>  (40) 
pfpi4k_grid

>  <i_i_glide_lignum>  (40) 
15

>  <i_i_glide_rotatable_bonds>  (40) 
0

>  <r_i_docking_score>  (40) 
-4.29953

>  <r_i_glide_ligand_efficiency>  (40) 
-0.390867

>  <r_i_glide_ligand_efficiency_sa>  (40) 
-0.86928

>  <r_i_glide_ligand_efficiency_ln>  (40) 
-1.26535

>  <r_i_glide_gscore>  (40) 
-4.29953

>  <r_i_glide_lipo>  (40) 
-0.0535193

>  <r_i_glide_hbond>  (40) 
-0.16

>  <r_i_glide_metal>  (40) 
-0

>  <r_i_glide_rewards>  (40) 
-2.29782

>  <r_i_glide_evdw>  (40) 
-13.3828

>  <r_i_glide_ecoul>  (40) 
-5.96678

>  <r_i_glide_erotb>  (40) 
0

>  <r_i_glide_esite>  (40) 
-0.224038

>  <r_i_glide_emodel>  (40) 
-25.8295

>  <r_i_glide_energy>  (40) 
-19.3495

>  <r_i_glide_einternal>  (40) 
0

>  <r_i_glide_intrahb_reward>  (40) 
-0

>  <i_i_glide_confnum>  (40) 
2

>  <i_i_glide_posenum>  (40) 
6

>  <r_i_glide_eff_state_penalty>  (40) 
0

>  <ligand_id>  (40) 
10

>  <original_smiles>  (40) 
Cc1nc(Cl)cn2cnnc12

>  <smiles>  (40) 
[H]c1nnc2c(C([H])([H])[H])nc(Cl)c([H])n12

$$$$
10:0:1
     RDKit          3D

 16 17  0  0  1  0  0  0  0  0999 V2000
   -1.9255   -8.9589    2.9835 C   0  0  0  0  0  0  0  0  0  0  0  0
   -0.4228   -8.9813    2.8081 C   0  0  0  0  0  0  0  0  0  0  0  0
    0.1994   -9.9929    3.3393 N   0  0  0  0  0  0  0  0  0  0  0  0
    1.5618  -10.0791    3.2197 C   0  0  0  0  0  0  0  0  0  0  0  0
    2.3535  -11.4230    3.9534 Cl  0  0  0  0  0  0  0  0  0  0  0  0
    2.3224   -9.1465    2.5597 C   0  0  0  0  0  0  0  0  0  0  0  0
    1.6545   -8.1007    2.0041 N   0  0  0  0  0  0  0  0  0  0  0  0
    2.0942   -7.0299    1.2967 C   0  0  0  0  0  0  0  0  0  0  0  0
    1.0612   -6.2621    0.9452 N   0  0  0  0  0  0  0  0  0  0  0  0
   -0.0972   -6.8314    1.4604 N   0  0  0  0  0  0  0  0  0  0  0  0
    0.2598   -7.9529    2.0961 C   0  0  0  0  0  0  0  0  0  0  0  0
   -2.3717   -8.0887    2.5041 H   0  0  0  0  0  0  0  0  0  0  0  0
   -2.1835   -8.9377    4.0448 H   0  0  0  0  0  0  0  0  0  0  0  0
   -2.3653   -9.8557    2.5441 H   0  0  0  0  0  0  0  0  0  0  0  0
    3.4021   -9.2113    2.4533 H   0  0  0  0  0  0  0  0  0  0  0  0
    3.1270   -6.8380    1.0437 H   0  0  0  0  0  0  0  0  0  0  0  0
  1  2  1  0
  1 12  1  0
  1 13  1  0
  1 14  1  0
  2 11  1  0
  2  3  2  0
  3  4  1  0
  4  5  1  0
  4  6  2  0
  6  7  1  0
  6 15  1  0
  7 11  1  0
  7  8  1  0
  8  9  2  0
  8 16  1  0
  9 10  1  0
 10 11  2  0
M  END
>  <i_m_ct_stereo_status>  (41) 
1

>  <s_m_source_file>  (41) 
/var/tmp/pbs.5076255.sched01/tmp3_il56_a/09f63jmog.sdf

>  <i_m_source_file_index>  (41) 
15

>  <i_lp_mmshare_version>  (41) 
48012

>  <i_f3d_flags>  (41) 
0

>  <s_epik_input>  (41) 
Q2xjKFtjSF0xKW5jKFtDSDNdKWMobjEyKW5uW2NIXTI=

>  <s_epik_cmdline>  (41) 
J2VwaWtfcHl0aG9uJywgJy1waHQnLCAnMi4wJywgJy1waCcsICc3LjAnLCAnLXRuJywgJzgnLCAnLW1hJywgJzIwMCcsICctaW1hZScsICc8aW5maWxlLm1hZT4nLCAnLW9tYWUnLCAnPG91dGZpbGUubWFlPic=

>  <r_lp_tautomer_probability>  (41) 
1

>  <r_epik_Ionization_Penalty>  (41) 
2.5367e-08

>  <r_epik_Ionization_Penalty_Charging>  (41) 
0

>  <r_epik_Ionization_Penalty_Neutral>  (41) 
2.5367e-08

>  <r_epik_State_Penalty>  (41) 
-0

>  <r_epik_Charging_Adjusted_Penalty>  (41) 
0

>  <i_epik_Tot_Q>  (41) 
0

>  <i_epik_Tot_abs_Q>  (41) 
0

>  <s_lp_Force_Field>  (41) 
OPLS3e

>  <r_lp_Energy>  (41) 
11.4233

>  <b_lp_Chiralities_Consistent>  (41) 
1

>  <s_lp_Variant>  (41) 
10:0-1

>  <s_i_glide_gridfile>  (41) 
pfpi4k_grid

>  <i_i_glide_lignum>  (41) 
15

>  <i_i_glide_rotatable_bonds>  (41) 
0

>  <r_i_docking_score>  (41) 
-4.07773

>  <r_i_glide_ligand_efficiency>  (41) 
-0.370703

>  <r_i_glide_ligand_efficiency_sa>  (41) 
-0.824435

>  <r_i_glide_ligand_efficiency_ln>  (41) 
-1.20007

>  <r_i_glide_gscore>  (41) 
-4.07773

>  <r_i_glide_lipo>  (41) 
-0.0826401

>  <r_i_glide_hbond>  (41) 
0

>  <r_i_glide_metal>  (41) 
-0

>  <r_i_glide_rewards>  (41) 
-2.25

>  <r_i_glide_evdw>  (41) 
-18.5464

>  <r_i_glide_ecoul>  (41) 
-3.43831

>  <r_i_glide_erotb>  (41) 
0

>  <r_i_glide_esite>  (41) 
-0.30202

>  <r_i_glide_emodel>  (41) 
-28.13

>  <r_i_glide_energy>  (41) 
-21.9847

>  <r_i_glide_einternal>  (41) 
0

>  <r_i_glide_intrahb_reward>  (41) 
-0

>  <i_i_glide_confnum>  (41) 
1

>  <i_i_glide_posenum>  (41) 
26

>  <r_i_glide_eff_state_penalty>  (41) 
0

>  <ligand_id>  (41) 
10

>  <original_smiles>  (41) 
Cc1nc(Cl)cn2cnnc12

>  <smiles>  (41) 
[H]c1nnc2c(C([H])([H])[H])nc(Cl)c([H])n12

$$$$
10:0:2
     RDKit          3D

 16 17  0  0  1  0  0  0  0  0999 V2000
    0.4396  -10.5549    3.6786 C   0  0  0  0  0  0  0  0  0  0  0  0
    1.4212   -9.6528    2.9597 C   0  0  0  0  0  0  0  0  0  0  0  0
    2.6623  -10.0514    2.9651 N   0  0  0  0  0  0  0  0  0  0  0  0
    3.6086   -9.2890    2.3236 C   0  0  0  0  0  0  0  0  0  0  0  0
    5.2465   -9.8248    2.3536 Cl  0  0  0  0  0  0  0  0  0  0  0  0
    3.3245   -8.1107    1.6782 C   0  0  0  0  0  0  0  0  0  0  0  0
    2.0249   -7.7134    1.6853 N   0  0  0  0  0  0  0  0  0  0  0  0
    1.4199   -6.6228    1.1493 C   0  0  0  0  0  0  0  0  0  0  0  0
    0.1119   -6.6568    1.4075 N   0  0  0  0  0  0  0  0  0  0  0  0
   -0.1515   -7.7929    2.1553 N   0  0  0  0  0  0  0  0  0  0  0  0
    1.0087   -8.4448    2.3192 C   0  0  0  0  0  0  0  0  0  0  0  0
   -0.5756  -10.1585    3.6276 H   0  0  0  0  0  0  0  0  0  0  0  0
    0.7131  -10.6560    4.7309 H   0  0  0  0  0  0  0  0  0  0  0  0
    0.4434  -11.5491    3.2285 H   0  0  0  0  0  0  0  0  0  0  0  0
    4.0609   -7.4941    1.1743 H   0  0  0  0  0  0  0  0  0  0  0  0
    1.9237   -5.8501    0.5877 H   0  0  0  0  0  0  0  0  0  0  0  0
  1  2  1  0
  1 12  1  0
  1 13  1  0
  1 14  1  0
  2 11  1  0
  2  3  2  0
  3  4  1  0
  4  5  1  0
  4  6  2  0
  6  7  1  0
  6 15  1  0
  7 11  1  0
  7  8  1  0
  8  9  2  0
  8 16  1  0
  9 10  1  0
 10 11  2  0
M  END
>  <i_m_ct_stereo_status>  (42) 
1

>  <s_m_source_file>  (42) 
/var/tmp/pbs.5076255.sched01/tmp3_il56_a/09f63jmog.sdf

>  <i_m_source_file_index>  (42) 
15

>  <i_lp_mmshare_version>  (42) 
48012

>  <i_f3d_flags>  (42) 
0

>  <s_epik_input>  (42) 
Q2xjKFtjSF0xKW5jKFtDSDNdKWMobjEyKW5uW2NIXTI=

>  <s_epik_cmdline>  (42) 
J2VwaWtfcHl0aG9uJywgJy1waHQnLCAnMi4wJywgJy1waCcsICc3LjAnLCAnLXRuJywgJzgnLCAnLW1hJywgJzIwMCcsICctaW1hZScsICc8aW5maWxlLm1hZT4nLCAnLW9tYWUnLCAnPG91dGZpbGUubWFlPic=

>  <r_lp_tautomer_probability>  (42) 
1

>  <r_epik_Ionization_Penalty>  (42) 
2.5367e-08

>  <r_epik_Ionization_Penalty_Charging>  (42) 
0

>  <r_epik_Ionization_Penalty_Neutral>  (42) 
2.5367e-08

>  <r_epik_State_Penalty>  (42) 
-0

>  <r_epik_Charging_Adjusted_Penalty>  (42) 
0

>  <i_epik_Tot_Q>  (42) 
0

>  <i_epik_Tot_abs_Q>  (42) 
0

>  <s_lp_Force_Field>  (42) 
OPLS3e

>  <r_lp_Energy>  (42) 
11.4233

>  <b_lp_Chiralities_Consistent>  (42) 
1

>  <s_lp_Variant>  (42) 
10:0-1

>  <s_i_glide_gridfile>  (42) 
pfpi4k_grid

>  <i_i_glide_lignum>  (42) 
15

>  <i_i_glide_rotatable_bonds>  (42) 
0

>  <r_i_docking_score>  (42) 
-3.75237

>  <r_i_glide_ligand_efficiency>  (42) 
-0.341124

>  <r_i_glide_ligand_efficiency_sa>  (42) 
-0.758654

>  <r_i_glide_ligand_efficiency_ln>  (42) 
-1.10432

>  <r_i_glide_gscore>  (42) 
-3.75237

>  <r_i_glide_lipo>  (42) 
-0.0481992

>  <r_i_glide_hbond>  (42) 
0

>  <r_i_glide_metal>  (42) 
-0

>  <r_i_glide_rewards>  (42) 
-2.25

>  <r_i_glide_evdw>  (42) 
-16.9208

>  <r_i_glide_ecoul>  (42) 
-2.23766

>  <r_i_glide_erotb>  (42) 
0

>  <r_i_glide_esite>  (42) 
-0.272483

>  <r_i_glide_emodel>  (42) 
-24.8131

>  <r_i_glide_energy>  (42) 
-19.1584

>  <r_i_glide_einternal>  (42) 
0

>  <r_i_glide_intrahb_reward>  (42) 
-0

>  <i_i_glide_confnum>  (42) 
2

>  <i_i_glide_posenum>  (42) 
36

>  <r_i_glide_eff_state_penalty>  (42) 
0

>  <ligand_id>  (42) 
10

>  <original_smiles>  (42) 
Cc1nc(Cl)cn2cnnc12

>  <smiles>  (42) 
[H]c1nnc2c(C([H])([H])[H])nc(Cl)c([H])n12

$$$$
11:0:0
     RDKit          3D

 64 67  0  0  1  0  0  0  0  0999 V2000
    2.1706    3.5475    2.6621 C   0  0  0  0  0  0  0  0  0  0  0  0
    1.9455    2.8566    3.9961 C   0  0  0  0  0  0  0  0  0  0  0  0
    1.8784    1.5413    4.2784 C   0  0  0  0  0  0  0  0  0  0  0  0
    1.6599    1.0459    5.6951 C   0  0  1  0  0  0  0  0  0  0  0  0
    0.1641    0.8777    6.0556 C   0  0  0  0  0  0  0  0  0  0  0  0
   -0.6069    2.2125    6.1586 C   0  0  0  0  0  0  0  0  0  0  0  0
   -2.0802    2.0266    6.5476 C   0  0  0  0  0  0  0  0  0  0  0  0
   -2.7950    3.0486    6.4963 O   0  0  0  0  0  0  0  0  0  0  0  0
   -2.4719    0.8824    6.8897 O   0  0  0  0  0  0  0  0  0  0  0  0
    2.4008   -0.2904    5.7075 C   0  0  0  0  0  0  0  0  0  0  0  0
    2.1548   -0.8856    4.3075 C   0  0  2  0  0  0  0  0  0  0  0  0
    3.1515   -2.0315    3.9473 C   0  0  1  0  0  0  0  0  0  0  0  0
    2.6371   -3.3790    4.5085 C   0  0  0  0  0  0  0  0  0  0  0  0
    3.5109   -4.5849    4.1232 C   0  0  0  0  0  0  0  0  0  0  0  0
    3.7523   -4.6808    2.6025 C   0  0  1  0  0  0  0  0  0  0  0  0
    2.4747   -5.1317    1.8460 C   0  0  0  0  0  0  0  0  0  0  0  0
    2.6707   -5.2014    0.3224 C   0  0  1  0  0  0  0  0  0  0  0  0
    1.4326   -5.4547   -0.3209 O   0  0  0  0  0  0  0  0  0  0  0  0
    3.2503   -3.8940   -0.2320 C   0  0  0  0  0  0  0  0  0  0  0  0
    4.5359   -3.5123    0.5109 C   0  0  0  0  0  0  0  0  0  0  0  0
    4.3555   -3.3548    2.0447 C   0  0  2  0  0  0  0  0  0  0  0  0
    5.7815   -3.1599    2.6173 C   0  0  0  0  0  0  0  0  0  0  0  0
    3.4112   -2.1535    2.4208 C   0  0  2  0  0  0  0  0  0  0  0  0
    3.8334   -0.8063    1.7840 C   0  0  0  0  0  0  0  0  0  0  0  0
    3.4540    0.4429    2.6011 C   0  0  0  0  0  0  0  0  0  0  0  0
    2.1051    0.3404    3.3453 C   0  0  2  0  0  0  0  0  0  0  0  0
    0.9103    0.2186    2.3714 C   0  0  0  0  0  0  0  0  0  0  0  0
    1.4378    4.3464    2.5528 H   0  0  0  0  0  0  0  0  0  0  0  0
    2.0402    2.8897    1.8051 H   0  0  0  0  0  0  0  0  0  0  0  0
    3.1621    3.9993    2.6236 H   0  0  0  0  0  0  0  0  0  0  0  0
    1.8189    3.5435    4.8209 H   0  0  0  0  0  0  0  0  0  0  0  0
    2.1203    1.7373    6.4003 H   0  0  0  0  0  0  0  0  0  0  0  0
   -0.3233    0.2389    5.3194 H   0  0  0  0  0  0  0  0  0  0  0  0
    0.0858    0.3511    7.0102 H   0  0  0  0  0  0  0  0  0  0  0  0
   -0.1412    2.8605    6.9039 H   0  0  0  0  0  0  0  0  0  0  0  0
   -0.5852    2.7437    5.2043 H   0  0  0  0  0  0  0  0  0  0  0  0
    3.4661   -0.0879    5.8423 H   0  0  0  0  0  0  0  0  0  0  0  0
    2.0952   -0.9551    6.5154 H   0  0  0  0  0  0  0  0  0  0  0  0
    1.1507   -1.3132    4.3171 H   0  0  0  0  0  0  0  0  0  0  0  0
    4.1059   -1.8027    4.4191 H   0  0  0  0  0  0  0  0  0  0  0  0
    2.5663   -3.3254    5.5938 H   0  0  0  0  0  0  0  0  0  0  0  0
    1.6223   -3.5530    4.1484 H   0  0  0  0  0  0  0  0  0  0  0  0
    4.4628   -4.5186    4.6505 H   0  0  0  0  0  0  0  0  0  0  0  0
    3.0487   -5.5058    4.4795 H   0  0  0  0  0  0  0  0  0  0  0  0
    4.4853   -5.4756    2.4514 H   0  0  0  0  0  0  0  0  0  0  0  0
    2.1750   -6.1166    2.2059 H   0  0  0  0  0  0  0  0  0  0  0  0
    1.6512   -4.4609    2.0757 H   0  0  0  0  0  0  0  0  0  0  0  0
    3.3534   -6.0198    0.0894 H   0  0  0  0  0  0  0  0  0  0  0  0
    1.6296   -5.4542   -1.2590 H   0  0  0  0  0  0  0  0  0  0  0  0
    3.4742   -4.0111   -1.2932 H   0  0  0  0  0  0  0  0  0  0  0  0
    2.5241   -3.0848   -0.1622 H   0  0  0  0  0  0  0  0  0  0  0  0
    5.2734   -4.2954    0.3206 H   0  0  0  0  0  0  0  0  0  0  0  0
    4.9584   -2.6077    0.0721 H   0  0  0  0  0  0  0  0  0  0  0  0
    6.3002   -2.3162    2.1655 H   0  0  0  0  0  0  0  0  0  0  0  0
    6.3972   -4.0389    2.4261 H   0  0  0  0  0  0  0  0  0  0  0  0
    5.7976   -2.9993    3.6933 H   0  0  0  0  0  0  0  0  0  0  0  0
    2.4381   -2.3700    1.9886 H   0  0  0  0  0  0  0  0  0  0  0  0
    4.9005   -0.7722    1.5701 H   0  0  0  0  0  0  0  0  0  0  0  0
    3.3422   -0.7393    0.8105 H   0  0  0  0  0  0  0  0  0  0  0  0
    4.2381    0.6281    3.3377 H   0  0  0  0  0  0  0  0  0  0  0  0
    3.4612    1.2959    1.9277 H   0  0  0  0  0  0  0  0  0  0  0  0
    0.9300   -0.7131    1.8092 H   0  0  0  0  0  0  0  0  0  0  0  0
    0.8898    1.0253    1.6405 H   0  0  0  0  0  0  0  0  0  0  0  0
   -0.0402    0.2555    2.9061 H   0  0  0  0  0  0  0  0  0  0  0  0
  1  2  1  0
  1 28  1  0
  1 29  1  0
  1 30  1  0
  2  3  2  3
  2 31  1  0
  3 26  1  0
  3  4  1  0
  4  5  1  0
  4 10  1  0
  4 32  1  1
  5  6  1  0
  5 33  1  0
  5 34  1  0
  6  7  1  0
  6 35  1  0
  6 36  1  0
  7  8  2  0
  7  9  1  0
 10 11  1  0
 10 37  1  0
 10 38  1  0
 11 26  1  0
 11 12  1  0
 11 39  1  1
 12 23  1  0
 12 13  1  0
 12 40  1  1
 13 14  1  0
 13 41  1  0
 13 42  1  0
 14 15  1  0
 14 43  1  0
 14 44  1  0
 15 21  1  0
 15 16  1  0
 15 45  1  1
 16 17  1  0
 16 46  1  0
 16 47  1  0
 17 18  1  0
 17 19  1  0
 17 48  1  1
 18 49  1  0
 19 20  1  0
 19 50  1  0
 19 51  1  0
 20 21  1  0
 20 52  1  0
 20 53  1  0
 21 22  1  1
 21 23  1  0
 22 54  1  0
 22 55  1  0
 22 56  1  0
 23 24  1  0
 23 57  1  6
 24 25  1  0
 24 58  1  0
 24 59  1  0
 25 26  1  0
 25 60  1  0
 25 61  1  0
 26 27  1  6
 27 62  1  0
 27 63  1  0
 27 64  1  0
M  CHG  1   9  -1
M  END
>  <i_m_ct_stereo_status>  (43) 
1

>  <s_m_source_file>  (43) 
/var/tmp/pbs.5076255.sched01/tmp3_il56_a/09f63jmog.sdf

>  <i_m_source_file_index>  (43) 
16

>  <i_lp_mmshare_version>  (43) 
48012

>  <i_f3d_flags>  (43) 
0

>  <s_epik_input>  (43) 
Tz1DKFtPSF0pW0NIMl1bQ0gyXVtDQEBIXShbQ0gyXTEpXEMoPVtDSF1cW0NIM10pW0NAQF0oW0NIM10pKFtDSDJdW0NIMl1bQ0BIXTIzKVtDQEhdMVtDQEhdMltDSDJdW0NIMl1bQ0BIXShbQ0BdMzRbQ0gzXSlbQ0gyXVtDQEBIXShbT0hdKVtDSDJdW0NIMl00

>  <s_epik_cmdline>  (43) 
J2VwaWtfcHl0aG9uJywgJy1waHQnLCAnMi4wJywgJy1waCcsICc3LjAnLCAnLXRuJywgJzgnLCAnLW1hJywgJzIwMCcsICctaW1hZScsICc8aW5maWxlLm1hZT4nLCAnLW9tYWUnLCAnPG91dGZpbGUubWFlPic=

>  <r_epik_Ionization_Penalty>  (43) 
0.00463689

>  <r_epik_Ionization_Penalty_Charging>  (43) 
0.00463353

>  <r_epik_Ionization_Penalty_Neutral>  (43) 
3.35439e-06

>  <r_epik_State_Penalty>  (43) 
0.003351

>  <r_epik_Charging_Adjusted_Penalty>  (43) 
0.00798453

>  <i_epik_Tot_Q>  (43) 
-1

>  <i_epik_Tot_abs_Q>  (43) 
1

>  <s_lp_Force_Field>  (43) 
OPLS3e

>  <r_lp_Energy>  (43) 
45.2948

>  <b_lp_Chiralities_Consistent>  (43) 
1

>  <s_lp_Variant>  (43) 
11:0-1

>  <s_i_glide_gridfile>  (43) 
pfpi4k_grid

>  <i_i_glide_lignum>  (43) 
16

>  <i_i_glide_rotatable_bonds>  (43) 
4

>  <r_i_docking_score>  (43) 
-3.73329

>  <r_i_glide_ligand_efficiency>  (43) 
-0.13827

>  <r_i_glide_ligand_efficiency_sa>  (43) 
-0.41481

>  <r_i_glide_ligand_efficiency_ln>  (43) 
-0.869048

>  <r_i_glide_gscore>  (43) 
-3.73329

>  <r_i_glide_lipo>  (43) 
-0.0959763

>  <r_i_glide_hbond>  (43) 
-0.72588

>  <r_i_glide_metal>  (43) 
-0

>  <r_i_glide_rewards>  (43) 
-0.862167

>  <r_i_glide_evdw>  (43) 
-15.4723

>  <r_i_glide_ecoul>  (43) 
-10.3137

>  <r_i_glide_erotb>  (43) 
0.277003

>  <r_i_glide_esite>  (43) 
-0.00559862

>  <r_i_glide_emodel>  (43) 
-34.2158

>  <r_i_glide_energy>  (43) 
-25.786

>  <r_i_glide_einternal>  (43) 
3.1205

>  <r_i_glide_intrahb_reward>  (43) 
-0

>  <i_i_glide_confnum>  (43) 
1

>  <i_i_glide_posenum>  (43) 
1

>  <r_i_glide_eff_state_penalty>  (43) 
0

>  <ligand_id>  (43) 
11

>  <original_smiles>  (43) 
CC=C1C(CCC(=O)O)CC2C3CCC4CC(O)CCC4(C)C3CCC12C

>  <smiles>  (43) 
[H]OC1([H])C([H])([H])C([H])([H])C2(C([H])([H])[H])C([H])(C([H])([H])C([H])([H])C3([H])C4([H])C([H])([H])C([H])(C([H])([H])C([H])([H])C(=O)[O-])C(=C([H])C([H])([H])[H])C4(C([H])([H])[H])C([H])([H])C([H])([H])C32[H])C1([H])[H]

$$$$
11:0:1
     RDKit          3D

 64 67  0  0  1  0  0  0  0  0999 V2000
    4.6905   -0.2451    2.0679 C   0  0  0  0  0  0  0  0  0  0  0  0
    3.6865    0.1259    3.1400 C   0  0  0  0  0  0  0  0  0  0  0  0
    2.7371   -0.6498    3.7256 C   0  0  0  0  0  0  0  0  0  0  0  0
    1.8226   -0.1259    4.8133 C   0  0  1  0  0  0  0  0  0  0  0  0
    0.5216    0.4938    4.2332 C   0  0  0  0  0  0  0  0  0  0  0  0
   -0.4241    1.1346    5.2780 C   0  0  0  0  0  0  0  0  0  0  0  0
   -1.4127    0.1743    5.9471 C   0  0  0  0  0  0  0  0  0  0  0  0
   -2.1489    0.6620    6.8485 O   0  0  0  0  0  0  0  0  0  0  0  0
   -1.4388   -1.0260    5.5941 O   0  0  0  0  0  0  0  0  0  0  0  0
    1.5695   -1.3745    5.6708 C   0  0  0  0  0  0  0  0  0  0  0  0
    1.4313   -2.4978    4.6392 C   0  0  2  0  0  0  0  0  0  0  0  0
    1.5302   -3.9060    5.2899 C   0  0  1  0  0  0  0  0  0  0  0  0
    0.1403   -4.3643    5.8039 C   0  0  0  0  0  0  0  0  0  0  0  0
    0.1332   -5.7849    6.3933 C   0  0  0  0  0  0  0  0  0  0  0  0
    0.7300   -6.8323    5.4266 C   0  0  1  0  0  0  0  0  0  0  0  0
   -0.2170   -7.1290    4.2323 C   0  0  0  0  0  0  0  0  0  0  0  0
    0.3645   -8.1335    3.2217 C   0  0  1  0  0  0  0  0  0  0  0  0
   -0.4796   -8.1877    2.0767 O   0  0  0  0  0  0  0  0  0  0  0  0
    1.7763   -7.7295    2.7718 C   0  0  0  0  0  0  0  0  0  0  0  0
    2.6913   -7.4999    3.9799 C   0  0  0  0  0  0  0  0  0  0  0  0
    2.1719   -6.4244    4.9736 C   0  0  2  0  0  0  0  0  0  0  0  0
    3.1266   -6.4724    6.2008 C   0  0  0  0  0  0  0  0  0  0  0  0
    2.1237   -4.9826    4.3374 C   0  0  2  0  0  0  0  0  0  0  0  0
    3.4594   -4.5368    3.6941 C   0  0  0  0  0  0  0  0  0  0  0  0
    3.7179   -3.0190    3.7208 C   0  0  0  0  0  0  0  0  0  0  0  0
    2.4535   -2.1454    3.5194 C   0  0  2  0  0  0  0  0  0  0  0  0
    1.8342   -2.3535    2.1188 C   0  0  0  0  0  0  0  0  0  0  0  0
    4.6941    0.5262    1.2953 H   0  0  0  0  0  0  0  0  0  0  0  0
    4.4773   -1.1870    1.5648 H   0  0  0  0  0  0  0  0  0  0  0  0
    5.6977   -0.2971    2.4910 H   0  0  0  0  0  0  0  0  0  0  0  0
    3.7641    1.1431    3.4753 H   0  0  0  0  0  0  0  0  0  0  0  0
    2.3511    0.6371    5.3899 H   0  0  0  0  0  0  0  0  0  0  0  0
    0.8027    1.2780    3.5364 H   0  0  0  0  0  0  0  0  0  0  0  0
   -0.0191   -0.2281    3.6202 H   0  0  0  0  0  0  0  0  0  0  0  0
    0.1555    1.6332    6.0521 H   0  0  0  0  0  0  0  0  0  0  0  0
   -1.0279    1.8996    4.7971 H   0  0  0  0  0  0  0  0  0  0  0  0
    2.4735   -1.5430    6.2849 H   0  0  0  0  0  0  0  0  0  0  0  0
    0.6790   -1.2934    6.3168 H   0  0  0  0  0  0  0  0  0  0  0  0
    0.4449   -2.4110    4.1980 H   0  0  0  0  0  0  0  0  0  0  0  0
    2.1975   -3.8305    6.1444 H   0  0  0  0  0  0  0  0  0  0  0  0
   -0.2313   -3.6597    6.5467 H   0  0  0  0  0  0  0  0  0  0  0  0
   -0.5749   -4.3253    4.9817 H   0  0  0  0  0  0  0  0  0  0  0  0
    0.6832   -5.7848    7.3317 H   0  0  0  0  0  0  0  0  0  0  0  0
   -0.8842   -6.0612    6.6558 H   0  0  0  0  0  0  0  0  0  0  0  0
    0.8107   -7.7680    5.9814 H   0  0  0  0  0  0  0  0  0  0  0  0
   -1.1619   -7.5142    4.6110 H   0  0  0  0  0  0  0  0  0  0  0  0
   -0.4629   -6.2069    3.7092 H   0  0  0  0  0  0  0  0  0  0  0  0
    0.3998   -9.1254    3.6836 H   0  0  0  0  0  0  0  0  0  0  0  0
   -0.1971   -8.8996    1.5188 H   0  0  0  0  0  0  0  0  0  0  0  0
    2.1971   -8.5144    2.1422 H   0  0  0  0  0  0  0  0  0  0  0  0
    1.7385   -6.8332    2.1540 H   0  0  0  0  0  0  0  0  0  0  0  0
    2.7886   -8.4486    4.5062 H   0  0  0  0  0  0  0  0  0  0  0  0
    3.6944   -7.2568    3.6363 H   0  0  0  0  0  0  0  0  0  0  0  0
    4.1671   -6.3155    5.9227 H   0  0  0  0  0  0  0  0  0  0  0  0
    3.0865   -7.4457    6.6906 H   0  0  0  0  0  0  0  0  0  0  0  0
    2.8922   -5.7348    6.9659 H   0  0  0  0  0  0  0  0  0  0  0  0
    1.4140   -5.0299    3.5087 H   0  0  0  0  0  0  0  0  0  0  0  0
    4.3099   -5.0184    4.1746 H   0  0  0  0  0  0  0  0  0  0  0  0
    3.4692   -4.8816    2.6663 H   0  0  0  0  0  0  0  0  0  0  0  0
    4.1493   -2.7569    4.6887 H   0  0  0  0  0  0  0  0  0  0  0  0
    4.4903   -2.7934    2.9835 H   0  0  0  0  0  0  0  0  0  0  0  0
    1.4486   -3.3638    2.0256 H   0  0  0  0  0  0  0  0  0  0  0  0
    2.5493   -2.1968    1.3086 H   0  0  0  0  0  0  0  0  0  0  0  0
    1.0084   -1.6639    1.9416 H   0  0  0  0  0  0  0  0  0  0  0  0
  1  2  1  0
  1 28  1  0
  1 29  1  0
  1 30  1  0
  2  3  2  3
  2 31  1  0
  3 26  1  0
  3  4  1  0
  4  5  1  0
  4 10  1  0
  4 32  1  1
  5  6  1  0
  5 33  1  0
  5 34  1  0
  6  7  1  0
  6 35  1  0
  6 36  1  0
  7  8  2  0
  7  9  1  0
 10 11  1  0
 10 37  1  0
 10 38  1  0
 11 26  1  0
 11 12  1  0
 11 39  1  6
 12 23  1  0
 12 13  1  0
 12 40  1  1
 13 14  1  0
 13 41  1  0
 13 42  1  0
 14 15  1  0
 14 43  1  0
 14 44  1  0
 15 21  1  0
 15 16  1  0
 15 45  1  1
 16 17  1  0
 16 46  1  0
 16 47  1  0
 17 18  1  0
 17 19  1  0
 17 48  1  1
 18 49  1  0
 19 20  1  0
 19 50  1  0
 19 51  1  0
 20 21  1  0
 20 52  1  0
 20 53  1  0
 21 22  1  1
 21 23  1  0
 22 54  1  0
 22 55  1  0
 22 56  1  0
 23 24  1  0
 23 57  1  6
 24 25  1  0
 24 58  1  0
 24 59  1  0
 25 26  1  0
 25 60  1  0
 25 61  1  0
 26 27  1  6
 27 62  1  0
 27 63  1  0
 27 64  1  0
M  CHG  1   9  -1
M  END
>  <i_m_ct_stereo_status>  (44) 
1

>  <s_m_source_file>  (44) 
/var/tmp/pbs.5076255.sched01/tmp3_il56_a/09f63jmog.sdf

>  <i_m_source_file_index>  (44) 
16

>  <i_lp_mmshare_version>  (44) 
48012

>  <i_f3d_flags>  (44) 
0

>  <s_epik_input>  (44) 
Tz1DKFtPSF0pW0NIMl1bQ0gyXVtDQEBIXShbQ0gyXTEpXEMoPVtDSF1cW0NIM10pW0NAQF0oW0NIM10pKFtDSDJdW0NIMl1bQ0BIXTIzKVtDQEhdMVtDQEhdMltDSDJdW0NIMl1bQ0BIXShbQ0BdMzRbQ0gzXSlbQ0gyXVtDQEBIXShbT0hdKVtDSDJdW0NIMl00

>  <s_epik_cmdline>  (44) 
J2VwaWtfcHl0aG9uJywgJy1waHQnLCAnMi4wJywgJy1waCcsICc3LjAnLCAnLXRuJywgJzgnLCAnLW1hJywgJzIwMCcsICctaW1hZScsICc8aW5maWxlLm1hZT4nLCAnLW9tYWUnLCAnPG91dGZpbGUubWFlPic=

>  <r_epik_Ionization_Penalty>  (44) 
0.00463689

>  <r_epik_Ionization_Penalty_Charging>  (44) 
0.00463353

>  <r_epik_Ionization_Penalty_Neutral>  (44) 
3.35439e-06

>  <r_epik_State_Penalty>  (44) 
0.003351

>  <r_epik_Charging_Adjusted_Penalty>  (44) 
0.00798453

>  <i_epik_Tot_Q>  (44) 
-1

>  <i_epik_Tot_abs_Q>  (44) 
1

>  <s_lp_Force_Field>  (44) 
OPLS3e

>  <r_lp_Energy>  (44) 
45.2948

>  <b_lp_Chiralities_Consistent>  (44) 
1

>  <s_lp_Variant>  (44) 
11:0-1

>  <s_i_glide_gridfile>  (44) 
pfpi4k_grid

>  <i_i_glide_lignum>  (44) 
16

>  <i_i_glide_rotatable_bonds>  (44) 
4

>  <r_i_docking_score>  (44) 
-3.12991

>  <r_i_glide_ligand_efficiency>  (44) 
-0.115923

>  <r_i_glide_ligand_efficiency_sa>  (44) 
-0.347768

>  <r_i_glide_ligand_efficiency_ln>  (44) 
-0.728592

>  <r_i_glide_gscore>  (44) 
-3.12991

>  <r_i_glide_lipo>  (44) 
-0.111092

>  <r_i_glide_hbond>  (44) 
-0.511889

>  <r_i_glide_metal>  (44) 
-0

>  <r_i_glide_rewards>  (44) 
-0.862167

>  <r_i_glide_evdw>  (44) 
-14.5833

>  <r_i_glide_ecoul>  (44) 
-7.49379

>  <r_i_glide_erotb>  (44) 
0.277003

>  <r_i_glide_esite>  (44) 
-0.0685328

>  <r_i_glide_emodel>  (44) 
-29.1186

>  <r_i_glide_energy>  (44) 
-22.0771

>  <r_i_glide_einternal>  (44) 
1.74137

>  <r_i_glide_intrahb_reward>  (44) 
-0

>  <i_i_glide_confnum>  (44) 
1

>  <i_i_glide_posenum>  (44) 
7

>  <r_i_glide_eff_state_penalty>  (44) 
0

>  <ligand_id>  (44) 
11

>  <original_smiles>  (44) 
CC=C1C(CCC(=O)O)CC2C3CCC4CC(O)CCC4(C)C3CCC12C

>  <smiles>  (44) 
[H]OC1([H])C([H])([H])C([H])([H])C2(C([H])([H])[H])C([H])(C([H])([H])C([H])([H])C3([H])C4([H])C([H])([H])C([H])(C([H])([H])C([H])([H])C(=O)[O-])C(=C([H])C([H])([H])[H])C4(C([H])([H])[H])C([H])([H])C([H])([H])C32[H])C1([H])[H]

$$$$
11:0:2
     RDKit          3D

 64 67  0  0  1  0  0  0  0  0999 V2000
    7.7065   -8.2311    1.2390 C   0  0  0  0  0  0  0  0  0  0  0  0
    7.2811   -6.7805    1.2687 C   0  0  0  0  0  0  0  0  0  0  0  0
    6.0606   -6.2674    1.5163 C   0  0  0  0  0  0  0  0  0  0  0  0
    5.8365   -4.7766    1.5356 C   0  0  1  0  0  0  0  0  0  0  0  0
    5.4982   -4.2261    0.1253 C   0  0  0  0  0  0  0  0  0  0  0  0
    5.7782   -2.7251   -0.0539 C   0  0  0  0  0  0  0  0  0  0  0  0
    7.2496   -2.3439    0.0958 C   0  0  0  0  0  0  0  0  0  0  0  0
    8.1231   -3.2400    0.0503 O   0  0  0  0  0  0  0  0  0  0  0  0
    7.4693   -1.1231    0.2299 O   0  0  0  0  0  0  0  0  0  0  0  0
    4.6875   -4.6013    2.5182 C   0  0  0  0  0  0  0  0  0  0  0  0
    3.7904   -5.8260    2.2699 C   0  0  2  0  0  0  0  0  0  0  0  0
    2.7997   -6.0818    3.4428 C   0  0  1  0  0  0  0  0  0  0  0  0
    1.5282   -5.2196    3.2539 C   0  0  0  0  0  0  0  0  0  0  0  0
    0.4589   -5.4777    4.3259 C   0  0  0  0  0  0  0  0  0  0  0  0
    0.0903   -6.9690    4.4469 C   0  0  1  0  0  0  0  0  0  0  0  0
   -0.7212   -7.4658    3.2193 C   0  0  0  0  0  0  0  0  0  0  0  0
   -1.0660   -8.9509    3.2988 C   0  0  1  0  0  0  0  0  0  0  0  0
   -1.6640   -9.3468    2.0859 O   0  0  0  0  0  0  0  0  0  0  0  0
    0.1695   -9.8204    3.5677 C   0  0  0  0  0  0  0  0  0  0  0  0
    0.9201   -9.3220    4.8129 C   0  0  0  0  0  0  0  0  0  0  0  0
    1.3574   -7.8334    4.7336 C   0  0  2  0  0  0  0  0  0  0  0  0
    1.9203   -7.4697    6.1350 C   0  0  0  0  0  0  0  0  0  0  0  0
    2.4180   -7.5783    3.6009 C   0  0  2  0  0  0  0  0  0  0  0  0
    3.6579   -8.5030    3.6823 C   0  0  0  0  0  0  0  0  0  0  0  0
    4.9612   -7.8872    3.1408 C   0  0  0  0  0  0  0  0  0  0  0  0
    4.7673   -6.9845    1.9031 C   0  0  2  0  0  0  0  0  0  0  0  0
    4.2386   -7.7681    0.6875 C   0  0  0  0  0  0  0  0  0  0  0  0
    8.3268   -8.3889    0.3548 H   0  0  0  0  0  0  0  0  0  0  0  0
    6.8804   -8.9397    1.1960 H   0  0  0  0  0  0  0  0  0  0  0  0
    8.3040   -8.4255    2.1306 H   0  0  0  0  0  0  0  0  0  0  0  0
    8.0860   -6.0822    1.0812 H   0  0  0  0  0  0  0  0  0  0  0  0
    6.7366   -4.3195    1.9463 H   0  0  0  0  0  0  0  0  0  0  0  0
    6.0619   -4.7591   -0.6357 H   0  0  0  0  0  0  0  0  0  0  0  0
    4.4510   -4.4017   -0.1208 H   0  0  0  0  0  0  0  0  0  0  0  0
    5.4636   -2.4050   -1.0454 H   0  0  0  0  0  0  0  0  0  0  0  0
    5.1945   -2.1393    0.6524 H   0  0  0  0  0  0  0  0  0  0  0  0
    5.1013   -4.6257    3.5303 H   0  0  0  0  0  0  0  0  0  0  0  0
    4.1653   -3.6497    2.4087 H   0  0  0  0  0  0  0  0  0  0  0  0
    3.2006   -5.6162    1.3748 H   0  0  0  0  0  0  0  0  0  0  0  0
    3.2887   -5.7752    4.3662 H   0  0  0  0  0  0  0  0  0  0  0  0
    1.7914   -4.1626    3.2543 H   0  0  0  0  0  0  0  0  0  0  0  0
    1.1051   -5.4215    2.2685 H   0  0  0  0  0  0  0  0  0  0  0  0
    0.8105   -5.0924    5.2834 H   0  0  0  0  0  0  0  0  0  0  0  0
   -0.4317   -4.9040    4.0990 H   0  0  0  0  0  0  0  0  0  0  0  0
   -0.5771   -7.0601    5.3054 H   0  0  0  0  0  0  0  0  0  0  0  0
   -1.6556   -6.9103    3.1588 H   0  0  0  0  0  0  0  0  0  0  0  0
   -0.1858   -7.2757    2.2934 H   0  0  0  0  0  0  0  0  0  0  0  0
   -1.7985   -9.0638    4.0900 H   0  0  0  0  0  0  0  0  0  0  0  0
   -0.9921   -9.4555    1.4283 H   0  0  0  0  0  0  0  0  0  0  0  0
   -0.1298  -10.8576    3.7287 H   0  0  0  0  0  0  0  0  0  0  0  0
    0.8394   -9.8258    2.7081 H   0  0  0  0  0  0  0  0  0  0  0  0
    0.2570   -9.4523    5.6721 H   0  0  0  0  0  0  0  0  0  0  0  0
    1.7762   -9.9705    5.0125 H   0  0  0  0  0  0  0  0  0  0  0  0
    2.7325   -8.1277    6.4367 H   0  0  0  0  0  0  0  0  0  0  0  0
    1.1509   -7.5657    6.8997 H   0  0  0  0  0  0  0  0  0  0  0  0
    2.2991   -6.4531    6.2013 H   0  0  0  0  0  0  0  0  0  0  0  0
    1.9430   -7.8385    2.6576 H   0  0  0  0  0  0  0  0  0  0  0  0
    3.8378   -8.8342    4.7027 H   0  0  0  0  0  0  0  0  0  0  0  0
    3.4313   -9.4086    3.1162 H   0  0  0  0  0  0  0  0  0  0  0  0
    5.4273   -7.2913    3.9280 H   0  0  0  0  0  0  0  0  0  0  0  0
    5.6505   -8.7031    2.9389 H   0  0  0  0  0  0  0  0  0  0  0  0
    3.2396   -8.1447    0.8803 H   0  0  0  0  0  0  0  0  0  0  0  0
    4.8601   -8.6243    0.4393 H   0  0  0  0  0  0  0  0  0  0  0  0
    4.2018   -7.1387   -0.2036 H   0  0  0  0  0  0  0  0  0  0  0  0
  1  2  1  0
  1 28  1  0
  1 29  1  0
  1 30  1  0
  2  3  2  3
  2 31  1  0
  3 26  1  0
  3  4  1  0
  4  5  1  0
  4 10  1  0
  4 32  1  1
  5  6  1  0
  5 33  1  0
  5 34  1  0
  6  7  1  0
  6 35  1  0
  6 36  1  0
  7  8  2  0
  7  9  1  0
 10 11  1  0
 10 37  1  0
 10 38  1  0
 11 26  1  0
 11 12  1  0
 11 39  1  6
 12 23  1  0
 12 13  1  0
 12 40  1  1
 13 14  1  0
 13 41  1  0
 13 42  1  0
 14 15  1  0
 14 43  1  0
 14 44  1  0
 15 21  1  0
 15 16  1  0
 15 45  1  1
 16 17  1  0
 16 46  1  0
 16 47  1  0
 17 18  1  0
 17 19  1  0
 17 48  1  1
 18 49  1  0
 19 20  1  0
 19 50  1  0
 19 51  1  0
 20 21  1  0
 20 52  1  0
 20 53  1  0
 21 22  1  1
 21 23  1  0
 22 54  1  0
 22 55  1  0
 22 56  1  0
 23 24  1  0
 23 57  1  6
 24 25  1  0
 24 58  1  0
 24 59  1  0
 25 26  1  0
 25 60  1  0
 25 61  1  0
 26 27  1  6
 27 62  1  0
 27 63  1  0
 27 64  1  0
M  CHG  1   9  -1
M  END
>  <i_m_ct_stereo_status>  (45) 
1

>  <s_m_source_file>  (45) 
/var/tmp/pbs.5076255.sched01/tmp3_il56_a/09f63jmog.sdf

>  <i_m_source_file_index>  (45) 
16

>  <i_lp_mmshare_version>  (45) 
48012

>  <i_f3d_flags>  (45) 
0

>  <s_epik_input>  (45) 
Tz1DKFtPSF0pW0NIMl1bQ0gyXVtDQEBIXShbQ0gyXTEpXEMoPVtDSF1cW0NIM10pW0NAQF0oW0NIM10pKFtDSDJdW0NIMl1bQ0BIXTIzKVtDQEhdMVtDQEhdMltDSDJdW0NIMl1bQ0BIXShbQ0BdMzRbQ0gzXSlbQ0gyXVtDQEBIXShbT0hdKVtDSDJdW0NIMl00

>  <s_epik_cmdline>  (45) 
J2VwaWtfcHl0aG9uJywgJy1waHQnLCAnMi4wJywgJy1waCcsICc3LjAnLCAnLXRuJywgJzgnLCAnLW1hJywgJzIwMCcsICctaW1hZScsICc8aW5maWxlLm1hZT4nLCAnLW9tYWUnLCAnPG91dGZpbGUubWFlPic=

>  <r_epik_Ionization_Penalty>  (45) 
0.00463689

>  <r_epik_Ionization_Penalty_Charging>  (45) 
0.00463353

>  <r_epik_Ionization_Penalty_Neutral>  (45) 
3.35439e-06

>  <r_epik_State_Penalty>  (45) 
0.003351

>  <r_epik_Charging_Adjusted_Penalty>  (45) 
0.00798453

>  <i_epik_Tot_Q>  (45) 
-1

>  <i_epik_Tot_abs_Q>  (45) 
1

>  <s_lp_Force_Field>  (45) 
OPLS3e

>  <r_lp_Energy>  (45) 
45.2948

>  <b_lp_Chiralities_Consistent>  (45) 
1

>  <s_lp_Variant>  (45) 
11:0-1

>  <s_i_glide_gridfile>  (45) 
pfpi4k_grid

>  <i_i_glide_lignum>  (45) 
16

>  <i_i_glide_rotatable_bonds>  (45) 
4

>  <r_i_docking_score>  (45) 
-2.94798

>  <r_i_glide_ligand_efficiency>  (45) 
-0.109185

>  <r_i_glide_ligand_efficiency_sa>  (45) 
-0.327554

>  <r_i_glide_ligand_efficiency_ln>  (45) 
-0.686242

>  <r_i_glide_gscore>  (45) 
-2.94798

>  <r_i_glide_lipo>  (45) 
-0.392762

>  <r_i_glide_hbond>  (45) 
-0.401276

>  <r_i_glide_metal>  (45) 
-0

>  <r_i_glide_rewards>  (45) 
-0.933513

>  <r_i_glide_evdw>  (45) 
-20.0741

>  <r_i_glide_ecoul>  (45) 
-3.29151

>  <r_i_glide_erotb>  (45) 
0.277003

>  <r_i_glide_esite>  (45) 
0

>  <r_i_glide_emodel>  (45) 
-30.2413

>  <r_i_glide_energy>  (45) 
-23.3656

>  <r_i_glide_einternal>  (45) 
1.5563

>  <r_i_glide_intrahb_reward>  (45) 
-0

>  <i_i_glide_confnum>  (45) 
1

>  <i_i_glide_posenum>  (45) 
3

>  <r_i_glide_eff_state_penalty>  (45) 
0

>  <ligand_id>  (45) 
11

>  <original_smiles>  (45) 
CC=C1C(CCC(=O)O)CC2C3CCC4CC(O)CCC4(C)C3CCC12C

>  <smiles>  (45) 
[H]OC1([H])C([H])([H])C([H])([H])C2(C([H])([H])[H])C([H])(C([H])([H])C([H])([H])C3([H])C4([H])C([H])([H])C([H])(C([H])([H])C([H])([H])C(=O)[O-])C(=C([H])C([H])([H])[H])C4(C([H])([H])[H])C([H])([H])C([H])([H])C32[H])C1([H])[H]

$$$$
12:0:0
     RDKit          3D

 67 71  0  0  1  0  0  0  0  0999 V2000
    4.0369   -1.4561   -1.4440 C   0  0  0  0  0  0  0  0  0  0  0  0
    4.2721   -2.7530   -0.9409 O   0  0  0  0  0  0  0  0  0  0  0  0
    3.5165   -3.1998    0.0575 C   0  0  0  0  0  0  0  0  0  0  0  0
    2.6191   -2.5751    0.6252 O   0  0  0  0  0  0  0  0  0  0  0  0
    3.9027   -4.6173    0.5080 C   0  0  2  0  0  0  0  0  0  0  0  0
    2.6318   -5.4787    0.7268 C   0  0  0  0  0  0  0  0  0  0  0  0
    2.5087   -6.1477    2.0879 C   0  0  1  0  0  0  0  0  0  0  0  0
    1.2304   -6.9432    2.1291 C   0  0  0  0  0  0  0  0  0  0  0  0
    3.8440   -6.8769    2.4842 C   0  0  1  0  0  0  0  0  0  0  0  0
    5.1524   -6.0549    2.2298 C   0  0  2  0  0  0  0  0  0  0  0  0
    5.9865   -6.8276    1.1661 C   0  0  0  0  0  0  0  0  0  0  0  0
    5.9523   -6.1318    3.5533 C   0  0  0  0  0  0  0  0  0  0  0  0
    5.4255   -7.3613    4.2794 C   0  0  0  0  0  0  0  0  0  0  0  0
    3.9090   -7.3871    3.9654 C   0  0  1  0  0  0  0  0  0  0  0  0
    3.1996   -6.3775    4.9003 C   0  0  0  0  0  0  0  0  0  0  0  0
    3.3283   -8.8252    4.1485 C   0  0  2  0  0  0  0  0  0  0  0  0
    3.8192  -10.0360    3.3438 C   0  0  0  0  0  0  0  0  0  0  0  0
    2.4611   -9.4686    3.0615 C   0  0  1  0  0  0  0  0  0  0  0  0
    1.1197   -9.9115    3.6857 C   0  0  1  0  0  0  0  0  0  0  0  0
    1.0017  -11.4257    3.7358 C   0  0  0  0  0  0  0  0  0  0  0  0
    1.0994   -9.1436    5.0125 C   0  0  1  0  0  0  0  0  0  0  0  0
    0.4186   -9.4195    6.3464 C   0  0  0  0  0  0  0  0  0  0  0  0
    1.2125   -9.0768    7.3785 C   0  0  0  0  0  0  0  0  0  0  0  0
    2.5559   -8.7554    6.8674 C   0  0  0  0  0  0  0  0  0  0  0  0
    3.5110   -8.3104    7.5092 O   0  0  0  0  0  0  0  0  0  0  0  0
    2.5527   -9.1984    5.4001 C   0  0  2  0  0  0  0  0  0  0  0  0
    4.8718   -4.5811    1.7464 C   0  0  0  0  0  0  0  0  0  0  0  0
    6.2031   -3.9153    1.3221 C   0  0  0  0  0  0  0  0  0  0  0  0
    4.3091   -3.6577    2.8713 C   0  0  0  0  0  0  0  0  0  0  0  0
    4.7241   -1.2648   -2.2693 H   0  0  0  0  0  0  0  0  0  0  0  0
    4.1964   -0.6950   -0.6752 H   0  0  0  0  0  0  0  0  0  0  0  0
    3.0133   -1.3727   -1.8163 H   0  0  0  0  0  0  0  0  0  0  0  0
    4.4274   -5.0675   -0.3467 H   0  0  0  0  0  0  0  0  0  0  0  0
    1.7345   -4.8828    0.5891 H   0  0  0  0  0  0  0  0  0  0  0  0
    2.5848   -6.2523   -0.0378 H   0  0  0  0  0  0  0  0  0  0  0  0
    2.2531   -5.4030    2.8143 H   0  0  0  0  0  0  0  0  0  0  0  0
    1.2618   -7.7856    1.4277 H   0  0  0  0  0  0  0  0  0  0  0  0
    0.3633   -6.3914    1.8791 H   0  0  0  0  0  0  0  0  0  0  0  0
    1.1018   -7.2813    3.1278 H   0  0  0  0  0  0  0  0  0  0  0  0
    3.9219   -7.7304    1.8201 H   0  0  0  0  0  0  0  0  0  0  0  0
    6.9001   -6.3146    0.8762 H   0  0  0  0  0  0  0  0  0  0  0  0
    5.4096   -7.0023    0.2582 H   0  0  0  0  0  0  0  0  0  0  0  0
    6.3112   -7.7972    1.5364 H   0  0  0  0  0  0  0  0  0  0  0  0
    7.0308   -6.1479    3.3942 H   0  0  0  0  0  0  0  0  0  0  0  0
    5.7798   -5.3030    4.2135 H   0  0  0  0  0  0  0  0  0  0  0  0
    5.9245   -8.2454    3.8859 H   0  0  0  0  0  0  0  0  0  0  0  0
    5.6240   -7.3128    5.3489 H   0  0  0  0  0  0  0  0  0  0  0  0
    3.4037   -6.5513    5.9381 H   0  0  0  0  0  0  0  0  0  0  0  0
    2.1193   -6.3879    4.7762 H   0  0  0  0  0  0  0  0  0  0  0  0
    3.5383   -5.3638    4.7528 H   0  0  0  0  0  0  0  0  0  0  0  0
    4.5338   -9.8699    2.5385 H   0  0  0  0  0  0  0  0  0  0  0  0
    3.8303  -11.0147    3.7716 H   0  0  0  0  0  0  0  0  0  0  0  0
    2.4456   -9.2054    2.0343 H   0  0  0  0  0  0  0  0  0  0  0  0
    0.2933   -9.5405    3.0625 H   0  0  0  0  0  0  0  0  0  0  0  0
    1.7636  -11.8699    4.3832 H   0  0  0  0  0  0  0  0  0  0  0  0
    1.1235  -11.8576    2.7409 H   0  0  0  0  0  0  0  0  0  0  0  0
    0.0184  -11.7341    4.1124 H   0  0  0  0  0  0  0  0  0  0  0  0
    0.7564   -8.1438    4.8558 H   0  0  0  0  0  0  0  0  0  0  0  0
   -0.6401   -9.6554    6.4086 H   0  0  0  0  0  0  0  0  0  0  0  0
    0.9570   -9.0325    8.4158 H   0  0  0  0  0  0  0  0  0  0  0  0
    2.8098  -10.2605    5.5677 H   0  0  0  0  0  0  0  0  0  0  0  0
    6.9772   -4.0932    2.0705 H   0  0  0  0  0  0  0  0  0  0  0  0
    6.0906   -2.8352    1.2284 H   0  0  0  0  0  0  0  0  0  0  0  0
    6.5783   -4.2676    0.3572 H   0  0  0  0  0  0  0  0  0  0  0  0
    4.9376   -3.5874    3.7330 H   0  0  0  0  0  0  0  0  0  0  0  0
    3.3315   -3.9169    3.2233 H   0  0  0  0  0  0  0  0  0  0  0  0
    4.1873   -2.6486    2.5329 H   0  0  0  0  0  0  0  0  0  0  0  0
  1  2  1  0
  1 30  1  0
  1 31  1  0
  1 32  1  0
  2  3  1  0
  3  4  2  0
  3  5  1  0
  5 27  1  0
  5  6  1  0
  5 33  1  6
  6  7  1  0
  6 34  1  0
  6 35  1  0
  7  8  1  0
  7  9  1  0
  7 36  1  1
  8 37  1  0
  8 38  1  0
  8 39  1  0
  9 14  1  0
  9 10  1  0
  9 40  1  6
 10 11  1  6
 10 12  1  0
 10 27  1  0
 11 41  1  0
 11 42  1  0
 11 43  1  0
 12 13  1  0
 12 44  1  0
 12 45  1  0
 13 14  1  0
 13 46  1  0
 13 47  1  0
 14 15  1  1
 14 16  1  0
 15 48  1  0
 15 49  1  0
 15 50  1  0
 16 18  1  0
 16 26  1  0
 16 17  1  1
 17 18  1  0
 17 51  1  0
 17 52  1  0
 18 19  1  0
 18 53  1  6
 19 20  1  0
 19 21  1  0
 19 54  1  6
 20 55  1  0
 20 56  1  0
 20 57  1  0
 21 26  1  0
 21 22  1  0
 21 58  1  6
 22 23  2  0
 22 59  1  0
 23 24  1  0
 23 60  1  0
 24 25  2  0
 24 26  1  0
 26 61  1  1
 27 28  1  0
 27 29  1  0
 28 62  1  0
 28 63  1  0
 28 64  1  0
 29 65  1  0
 29 66  1  0
 29 67  1  0
M  END
>  <i_m_ct_stereo_status>  (46) 
1

>  <s_m_source_file>  (46) 
/var/tmp/pbs.5076255.sched01/tmp3_il56_a/09f63jmog.sdf

>  <i_m_source_file_index>  (46) 
18

>  <i_lp_mmshare_version>  (46) 
48012

>  <i_f3d_flags>  (46) 
0

>  <s_epik_input>  (46) 
W0NIM11PQyg9TylbQ0BASF0oQzEoW0NIM10pW0NIM10pW0NIMl1bQ0BASF0oW0NIM10pW0NAQEhdKFtDQEBdMTJbQ0gzXSlbQ0BdKFtDSDNdKShbQ0gyXVtDSDJdMilbQ0BAXTM0W0NAQEhdKFtDSDJdMylbQ0BASF0oW0NIM10pW0NAQEhdNVtDQEBIXTRDKD1PKVtDSF09W0NIXTU=

>  <s_epik_cmdline>  (46) 
J2VwaWtfcHl0aG9uJywgJy1waHQnLCAnMi4wJywgJy1waCcsICc3LjAnLCAnLXRuJywgJzgnLCAnLW1hJywgJzIwMCcsICctaW1hZScsICc8aW5maWxlLm1hZT4nLCAnLW9tYWUnLCAnPG91dGZpbGUubWFlPic=

>  <r_lp_tautomer_probability>  (46) 
0.499977

>  <r_epik_Ionization_Penalty>  (46) 
0

>  <r_epik_Ionization_Penalty_Charging>  (46) 
0

>  <r_epik_Ionization_Penalty_Neutral>  (46) 
0

>  <r_epik_State_Penalty>  (46) 
0.41068

>  <r_epik_Charging_Adjusted_Penalty>  (46) 
0.41068

>  <i_epik_Tot_Q>  (46) 
0

>  <i_epik_Tot_abs_Q>  (46) 
0

>  <s_epik_Chemistry_Notes>  (46) 
This compound has an ester and may undergo hydrolysis at high or low pH.

>  <s_lp_Force_Field>  (46) 
OPLS3e

>  <r_lp_Energy>  (46) 
73.6129

>  <b_lp_Chiralities_Consistent>  (46) 
1

>  <s_lp_Variant>  (46) 
12:0-1

>  <s_i_glide_gridfile>  (46) 
pfpi4k_grid

>  <i_i_glide_lignum>  (46) 
18

>  <i_i_glide_rotatable_bonds>  (46) 
3

>  <r_i_docking_score>  (46) 
-2.17237

>  <r_i_glide_ligand_efficiency>  (46) 
-0.0749092

>  <r_i_glide_ligand_efficiency_sa>  (46) 
-0.230145

>  <r_i_glide_ligand_efficiency_ln>  (46) 
-0.497417

>  <r_i_glide_gscore>  (46) 
-2.17237

>  <r_i_glide_lipo>  (46) 
-0.415277

>  <r_i_glide_hbond>  (46) 
0

>  <r_i_glide_metal>  (46) 
-0

>  <r_i_glide_rewards>  (46) 
-0.691513

>  <r_i_glide_evdw>  (46) 
-27.3624

>  <r_i_glide_ecoul>  (46) 
0.572776

>  <r_i_glide_erotb>  (46) 
0.246575

>  <r_i_glide_esite>  (46) 
-0.0299469

>  <r_i_glide_emodel>  (46) 
-24.3128

>  <r_i_glide_energy>  (46) 
-26.7897

>  <r_i_glide_einternal>  (46) 
6.86929

>  <r_i_glide_intrahb_reward>  (46) 
-0

>  <i_i_glide_confnum>  (46) 
3

>  <i_i_glide_posenum>  (46) 
39

>  <r_i_glide_eff_state_penalty>  (46) 
0

>  <ligand_id>  (46) 
12

>  <original_smiles>  (46) 
COC(=O)C1CC(C)C2C(C)(CCC2(C)C23CC2C(C)C2C=CC(=O)C23)C1(C)C

>  <smiles>  (46) 
[H]C1=C([H])C2([H])C([H])(C1=O)C1(C3(C([H])([H])[H])C([H])([H])C([H])([H])C4(C([H])([H])[H])C3([H])C([H])(C([H])([H])[H])C([H])([H])C([H])(C(=O)OC([H])([H])[H])C4(C([H])([H])[H])C([H])([H])[H])C([H])([H])C1([H])C2([H])C([H])([H])[H]

$$$$
12:0:1
     RDKit          3D

 67 71  0  0  1  0  0  0  0  0999 V2000
    3.0170   -9.8569    1.9879 C   0  0  0  0  0  0  0  0  0  0  0  0
    3.3799   -8.6337    2.5812 O   0  0  0  0  0  0  0  0  0  0  0  0
    2.5851   -7.5891    2.4111 C   0  0  0  0  0  0  0  0  0  0  0  0
    1.5529   -7.5627    1.7348 O   0  0  0  0  0  0  0  0  0  0  0  0
    3.1009   -6.3326    3.1323 C   0  0  2  0  0  0  0  0  0  0  0  0
    1.9503   -5.6479    3.9217 C   0  0  0  0  0  0  0  0  0  0  0  0
    1.7395   -4.1708    3.6121 C   0  0  1  0  0  0  0  0  0  0  0  0
    0.6011   -3.6641    4.4593 C   0  0  0  0  0  0  0  0  0  0  0  0
    3.0953   -3.3741    3.6632 C   0  0  1  0  0  0  0  0  0  0  0  0
    4.2983   -4.0664    2.9330 C   0  0  2  0  0  0  0  0  0  0  0  0
    5.3732   -4.3923    4.0200 C   0  0  0  0  0  0  0  0  0  0  0  0
    4.9078   -2.9731    2.0202 C   0  0  0  0  0  0  0  0  0  0  0  0
    4.4604   -1.6442    2.6118 C   0  0  0  0  0  0  0  0  0  0  0  0
    3.0192   -1.9026    3.1191 C   0  0  1  0  0  0  0  0  0  0  0  0
    2.0549   -1.8312    1.9205 C   0  0  0  0  0  0  0  0  0  0  0  0
    2.6313   -0.8575    4.2292 C   0  0  2  0  0  0  0  0  0  0  0  0
    3.3930   -0.7126    5.5383 C   0  0  0  0  0  0  0  0  0  0  0  0
    2.0283   -1.3150    5.5588 C   0  0  1  0  0  0  0  0  0  0  0  0
    0.6737   -0.5781    5.7748 C   0  0  1  0  0  0  0  0  0  0  0  0
    0.7664    0.4082    6.9255 C   0  0  0  0  0  0  0  0  0  0  0  0
    0.3708   -0.0382    4.3751 C   0  0  1  0  0  0  0  0  0  0  0  0
   -0.4548    1.1498    3.9088 C   0  0  0  0  0  0  0  0  0  0  0  0
    0.1343    1.7546    2.8466 C   0  0  0  0  0  0  0  0  0  0  0  0
    1.4647    1.1748    2.6507 C   0  0  0  0  0  0  0  0  0  0  0  0
    2.2594    1.4048    1.7222 O   0  0  0  0  0  0  0  0  0  0  0  0
    1.7421    0.3254    3.8823 C   0  0  2  0  0  0  0  0  0  0  0  0
    3.8848   -5.3779    2.1529 C   0  0  0  0  0  0  0  0  0  0  0  0
    5.1478   -6.0946    1.6466 C   0  0  0  0  0  0  0  0  0  0  0  0
    3.0404   -5.0968    0.8697 C   0  0  0  0  0  0  0  0  0  0  0  0
    3.7548  -10.6190    2.2408 H   0  0  0  0  0  0  0  0  0  0  0  0
    2.9670   -9.7787    0.8978 H   0  0  0  0  0  0  0  0  0  0  0  0
    2.0426  -10.1895    2.3567 H   0  0  0  0  0  0  0  0  0  0  0  0
    3.8049   -6.6982    3.8998 H   0  0  0  0  0  0  0  0  0  0  0  0
    1.0002   -6.1457    3.7253 H   0  0  0  0  0  0  0  0  0  0  0  0
    2.1249   -5.7495    4.9844 H   0  0  0  0  0  0  0  0  0  0  0  0
    1.2792   -4.0818    2.6581 H   0  0  0  0  0  0  0  0  0  0  0  0
    0.8345   -3.6781    5.5106 H   0  0  0  0  0  0  0  0  0  0  0  0
   -0.2871   -4.2302    4.3636 H   0  0  0  0  0  0  0  0  0  0  0  0
    0.3690   -2.6823    4.1136 H   0  0  0  0  0  0  0  0  0  0  0  0
    3.3854   -3.3516    4.7001 H   0  0  0  0  0  0  0  0  0  0  0  0
    6.2339   -4.9180    3.6201 H   0  0  0  0  0  0  0  0  0  0  0  0
    4.9643   -4.9962    4.8264 H   0  0  0  0  0  0  0  0  0  0  0  0
    5.7742   -3.4820    4.4613 H   0  0  0  0  0  0  0  0  0  0  0  0
    5.9859   -3.0633    1.9134 H   0  0  0  0  0  0  0  0  0  0  0  0
    4.5289   -2.9828    1.0131 H   0  0  0  0  0  0  0  0  0  0  0  0
    5.1303   -1.3801    3.4282 H   0  0  0  0  0  0  0  0  0  0  0  0
    4.4968   -0.8409    1.8747 H   0  0  0  0  0  0  0  0  0  0  0  0
    2.1335   -0.9170    1.3653 H   0  0  0  0  0  0  0  0  0  0  0  0
    1.0163   -1.9364    2.2132 H   0  0  0  0  0  0  0  0  0  0  0  0
    2.2627   -2.5756    1.1691 H   0  0  0  0  0  0  0  0  0  0  0  0
    4.1880   -1.4262    5.7652 H   0  0  0  0  0  0  0  0  0  0  0  0
    3.4854    0.2399    6.0204 H   0  0  0  0  0  0  0  0  0  0  0  0
    2.1242   -2.2743    5.9960 H   0  0  0  0  0  0  0  0  0  0  0  0
   -0.0869   -1.3233    6.0369 H   0  0  0  0  0  0  0  0  0  0  0  0
    1.4857    1.2012    6.7114 H   0  0  0  0  0  0  0  0  0  0  0  0
    1.0966   -0.0924    7.8408 H   0  0  0  0  0  0  0  0  0  0  0  0
   -0.2041    0.8720    7.1260 H   0  0  0  0  0  0  0  0  0  0  0  0
   -0.0919   -0.7999    3.7732 H   0  0  0  0  0  0  0  0  0  0  0  0
   -1.4677    1.3246    4.2433 H   0  0  0  0  0  0  0  0  0  0  0  0
   -0.2751    2.5213    2.2157 H   0  0  0  0  0  0  0  0  0  0  0  0
    2.1210    1.1283    4.5405 H   0  0  0  0  0  0  0  0  0  0  0  0
    5.8304   -5.3906    1.1634 H   0  0  0  0  0  0  0  0  0  0  0  0
    4.9011   -6.8568    0.9030 H   0  0  0  0  0  0  0  0  0  0  0  0
    5.7033   -6.6152    2.4338 H   0  0  0  0  0  0  0  0  0  0  0  0
    3.5255   -4.4606    0.1572 H   0  0  0  0  0  0  0  0  0  0  0  0
    2.0758   -4.6839    1.0366 H   0  0  0  0  0  0  0  0  0  0  0  0
    2.8330   -5.9956    0.3254 H   0  0  0  0  0  0  0  0  0  0  0  0
  1  2  1  0
  1 30  1  0
  1 31  1  0
  1 32  1  0
  2  3  1  0
  3  4  2  0
  3  5  1  0
  5 27  1  0
  5  6  1  0
  5 33  1  1
  6  7  1  0
  6 34  1  0
  6 35  1  0
  7  8  1  0
  7  9  1  0
  7 36  1  6
  8 37  1  0
  8 38  1  0
  8 39  1  0
  9 14  1  0
  9 10  1  0
  9 40  1  1
 10 11  1  1
 10 12  1  0
 10 27  1  0
 11 41  1  0
 11 42  1  0
 11 43  1  0
 12 13  1  0
 12 44  1  0
 12 45  1  0
 13 14  1  0
 13 46  1  0
 13 47  1  0
 14 15  1  6
 14 16  1  0
 15 48  1  0
 15 49  1  0
 15 50  1  0
 16 18  1  0
 16 26  1  0
 16 17  1  1
 17 18  1  0
 17 51  1  0
 17 52  1  0
 18 19  1  0
 18 53  1  6
 19 20  1  0
 19 21  1  0
 19 54  1  1
 20 55  1  0
 20 56  1  0
 20 57  1  0
 21 26  1  0
 21 22  1  0
 21 58  1  6
 22 23  2  0
 22 59  1  0
 23 24  1  0
 23 60  1  0
 24 25  2  0
 24 26  1  0
 26 61  1  1
 27 28  1  0
 27 29  1  0
 28 62  1  0
 28 63  1  0
 28 64  1  0
 29 65  1  0
 29 66  1  0
 29 67  1  0
M  END
>  <i_m_ct_stereo_status>  (47) 
1

>  <s_m_source_file>  (47) 
/var/tmp/pbs.5076255.sched01/tmp3_il56_a/09f63jmog.sdf

>  <i_m_source_file_index>  (47) 
18

>  <i_lp_mmshare_version>  (47) 
48012

>  <i_f3d_flags>  (47) 
0

>  <s_epik_input>  (47) 
W0NIM11PQyg9TylbQ0BASF0oQzEoW0NIM10pW0NIM10pW0NIMl1bQ0BASF0oW0NIM10pW0NAQEhdKFtDQEBdMTJbQ0gzXSlbQ0BdKFtDSDNdKShbQ0gyXVtDSDJdMilbQ0BAXTM0W0NAQEhdKFtDSDJdMylbQ0BASF0oW0NIM10pW0NAQEhdNVtDQEBIXTRDKD1PKVtDSF09W0NIXTU=

>  <s_epik_cmdline>  (47) 
J2VwaWtfcHl0aG9uJywgJy1waHQnLCAnMi4wJywgJy1waCcsICc3LjAnLCAnLXRuJywgJzgnLCAnLW1hJywgJzIwMCcsICctaW1hZScsICc8aW5maWxlLm1hZT4nLCAnLW9tYWUnLCAnPG91dGZpbGUubWFlPic=

>  <r_lp_tautomer_probability>  (47) 
0.499977

>  <r_epik_Ionization_Penalty>  (47) 
0

>  <r_epik_Ionization_Penalty_Charging>  (47) 
0

>  <r_epik_Ionization_Penalty_Neutral>  (47) 
0

>  <r_epik_State_Penalty>  (47) 
0.41068

>  <r_epik_Charging_Adjusted_Penalty>  (47) 
0.41068

>  <i_epik_Tot_Q>  (47) 
0

>  <i_epik_Tot_abs_Q>  (47) 
0

>  <s_epik_Chemistry_Notes>  (47) 
This compound has an ester and may undergo hydrolysis at high or low pH.

>  <s_lp_Force_Field>  (47) 
OPLS3e

>  <r_lp_Energy>  (47) 
73.6129

>  <b_lp_Chiralities_Consistent>  (47) 
1

>  <s_lp_Variant>  (47) 
12:0-1

>  <s_i_glide_gridfile>  (47) 
pfpi4k_grid

>  <i_i_glide_lignum>  (47) 
18

>  <i_i_glide_rotatable_bonds>  (47) 
3

>  <r_i_docking_score>  (47) 
-2.07652

>  <r_i_glide_ligand_efficiency>  (47) 
-0.0716043

>  <r_i_glide_ligand_efficiency_sa>  (47) 
-0.219991

>  <r_i_glide_ligand_efficiency_ln>  (47) 
-0.475472

>  <r_i_glide_gscore>  (47) 
-2.07652

>  <r_i_glide_lipo>  (47) 
-0.151671

>  <r_i_glide_hbond>  (47) 
0

>  <r_i_glide_metal>  (47) 
-0

>  <r_i_glide_rewards>  (47) 
-0.691513

>  <r_i_glide_evdw>  (47) 
-24.8002

>  <r_i_glide_ecoul>  (47) 
-1.41124

>  <r_i_glide_erotb>  (47) 
0.246575

>  <r_i_glide_esite>  (47) 
-0.0282211

>  <r_i_glide_emodel>  (47) 
-22.7828

>  <r_i_glide_energy>  (47) 
-26.2114

>  <r_i_glide_einternal>  (47) 
6.98585

>  <r_i_glide_intrahb_reward>  (47) 
-0

>  <i_i_glide_confnum>  (47) 
3

>  <i_i_glide_posenum>  (47) 
36

>  <r_i_glide_eff_state_penalty>  (47) 
0

>  <ligand_id>  (47) 
12

>  <original_smiles>  (47) 
COC(=O)C1CC(C)C2C(C)(CCC2(C)C23CC2C(C)C2C=CC(=O)C23)C1(C)C

>  <smiles>  (47) 
[H]C1=C([H])C2([H])C([H])(C1=O)C1(C3(C([H])([H])[H])C([H])([H])C([H])([H])C4(C([H])([H])[H])C3([H])C([H])(C([H])([H])[H])C([H])([H])C([H])(C(=O)OC([H])([H])[H])C4(C([H])([H])[H])C([H])([H])[H])C([H])([H])C1([H])C2([H])C([H])([H])[H]

$$$$
12:0:2
     RDKit          3D

 67 71  0  0  1  0  0  0  0  0999 V2000
   -4.0007    3.2642    2.0370 C   0  0  0  0  0  0  0  0  0  0  0  0
   -2.7595    3.6357    2.5742 O   0  0  0  0  0  0  0  0  0  0  0  0
   -2.5727    3.4773    3.8438 C   0  0  0  0  0  0  0  0  0  0  0  0
   -3.5095    3.0729    4.5919 O   0  0  0  0  0  0  0  0  0  0  0  0
   -1.1959    3.7920    4.4391 C   0  0  2  0  0  0  0  0  0  0  0  0
   -0.1129    3.3121    3.5036 C   0  0  0  0  0  0  0  0  0  0  0  0
   -0.0683    1.8313    3.2657 C   0  0  1  0  0  0  0  0  0  0  0  0
    1.0099    1.5485    2.1822 C   0  0  0  0  0  0  0  0  0  0  0  0
    0.2211    1.1567    4.6533 C   0  0  1  0  0  0  0  0  0  0  0  0
   -0.6818    1.6612    5.8568 C   0  0  2  0  0  0  0  0  0  0  0  0
   -0.1924    1.2314    7.2683 C   0  0  0  0  0  0  0  0  0  0  0  0
   -1.9060    0.8019    5.6656 C   0  0  0  0  0  0  0  0  0  0  0  0
   -1.4967   -0.4748    5.0353 C   0  0  0  0  0  0  0  0  0  0  0  0
    0.0053   -0.4051    4.6792 C   0  0  1  0  0  0  0  0  0  0  0  0
    0.2128   -1.1016    3.3395 C   0  0  0  0  0  0  0  0  0  0  0  0
    0.9293   -1.1056    5.7039 C   0  0  2  0  0  0  0  0  0  0  0  0
    2.0090   -0.3850    6.5305 C   0  0  0  0  0  0  0  0  0  0  0  0
    2.4375   -1.1997    5.3946 C   0  0  1  0  0  0  0  0  0  0  0  0
    2.9084   -2.6316    5.5449 C   0  0  1  0  0  0  0  0  0  0  0  0
    3.6733   -2.8345    6.8650 C   0  0  0  0  0  0  0  0  0  0  0  0
    1.5701   -3.3773    5.3823 C   0  0  1  0  0  0  0  0  0  0  0  0
    1.1653   -4.7666    5.8241 C   0  0  0  0  0  0  0  0  0  0  0  0
   -0.1154   -4.8054    6.2177 C   0  0  0  0  0  0  0  0  0  0  0  0
   -0.6268   -3.4483    6.2704 C   0  0  0  0  0  0  0  0  0  0  0  0
   -1.7909   -3.1724    6.5355 O   0  0  0  0  0  0  0  0  0  0  0  0
    0.6024   -2.5220    6.1553 C   0  0  2  0  0  0  0  0  0  0  0  0
   -0.8657    3.2299    5.8742 C   0  0  0  0  0  0  0  0  0  0  0  0
    0.4493    3.9355    6.3642 C   0  0  0  0  0  0  0  0  0  0  0  0
   -1.9441    3.6163    6.9415 C   0  0  0  0  0  0  0  0  0  0  0  0
   -3.9829    3.4240    0.9677 H   0  0  0  0  0  0  0  0  0  0  0  0
   -4.8144    3.8357    2.4920 H   0  0  0  0  0  0  0  0  0  0  0  0
   -4.2006    2.2003    2.1935 H   0  0  0  0  0  0  0  0  0  0  0  0
   -1.1666    4.8877    4.5222 H   0  0  0  0  0  0  0  0  0  0  0  0
   -0.3987    3.7827    2.5198 H   0  0  0  0  0  0  0  0  0  0  0  0
    0.8396    3.7515    3.6354 H   0  0  0  0  0  0  0  0  0  0  0  0
   -1.0454    1.4842    2.9151 H   0  0  0  0  0  0  0  0  0  0  0  0
    2.0089    1.6543    2.6053 H   0  0  0  0  0  0  0  0  0  0  0  0
    0.8615    2.1745    1.3150 H   0  0  0  0  0  0  0  0  0  0  0  0
    0.9824    0.5638    1.7073 H   0  0  0  0  0  0  0  0  0  0  0  0
    1.2569    1.4350    4.8199 H   0  0  0  0  0  0  0  0  0  0  0  0
   -0.7558    1.5950    8.1174 H   0  0  0  0  0  0  0  0  0  0  0  0
    0.8330    1.5519    7.4610 H   0  0  0  0  0  0  0  0  0  0  0  0
   -0.2637    0.1614    7.4148 H   0  0  0  0  0  0  0  0  0  0  0  0
   -2.5207    0.7126    6.5556 H   0  0  0  0  0  0  0  0  0  0  0  0
   -2.5173    1.1283    4.8561 H   0  0  0  0  0  0  0  0  0  0  0  0
   -1.6927   -1.1250    5.8335 H   0  0  0  0  0  0  0  0  0  0  0  0
   -2.1456   -0.7562    4.1989 H   0  0  0  0  0  0  0  0  0  0  0  0
   -0.0555   -2.1559    3.3420 H   0  0  0  0  0  0  0  0  0  0  0  0
    1.2813   -1.0348    3.0234 H   0  0  0  0  0  0  0  0  0  0  0  0
   -0.3983   -0.6483    2.6060 H   0  0  0  0  0  0  0  0  0  0  0  0
    2.3154    0.6489    6.3871 H   0  0  0  0  0  0  0  0  0  0  0  0
    2.0573   -0.7331    7.5579 H   0  0  0  0  0  0  0  0  0  0  0  0
    2.8446   -0.6165    4.5715 H   0  0  0  0  0  0  0  0  0  0  0  0
    3.5700   -2.8390    4.6990 H   0  0  0  0  0  0  0  0  0  0  0  0
    3.0589   -2.6881    7.7555 H   0  0  0  0  0  0  0  0  0  0  0  0
    4.5070   -2.1303    6.9343 H   0  0  0  0  0  0  0  0  0  0  0  0
    4.0775   -3.8419    6.8963 H   0  0  0  0  0  0  0  0  0  0  0  0
    1.3509   -3.3479    4.3195 H   0  0  0  0  0  0  0  0  0  0  0  0
    1.7801   -5.6326    5.6609 H   0  0  0  0  0  0  0  0  0  0  0  0
   -0.7313   -5.6544    6.4740 H   0  0  0  0  0  0  0  0  0  0  0  0
    0.8859   -2.5013    7.2114 H   0  0  0  0  0  0  0  0  0  0  0  0
    0.8584    3.5567    7.2917 H   0  0  0  0  0  0  0  0  0  0  0  0
    0.2680    4.9779    6.6107 H   0  0  0  0  0  0  0  0  0  0  0  0
    1.2725    3.8680    5.6567 H   0  0  0  0  0  0  0  0  0  0  0  0
   -1.7446    3.2661    7.9398 H   0  0  0  0  0  0  0  0  0  0  0  0
   -2.9615    3.2579    6.7604 H   0  0  0  0  0  0  0  0  0  0  0  0
   -1.9511    4.6835    7.0446 H   0  0  0  0  0  0  0  0  0  0  0  0
  1  2  1  0
  1 30  1  0
  1 31  1  0
  1 32  1  0
  2  3  1  0
  3  4  2  0
  3  5  1  0
  5 27  1  0
  5  6  1  0
  5 33  1  1
  6  7  1  0
  6 34  1  0
  6 35  1  0
  7  8  1  0
  7  9  1  0
  7 36  1  6
  8 37  1  0
  8 38  1  0
  8 39  1  0
  9 14  1  0
  9 10  1  0
  9 40  1  1
 10 11  1  1
 10 12  1  0
 10 27  1  0
 11 41  1  0
 11 42  1  0
 11 43  1  0
 12 13  1  0
 12 44  1  0
 12 45  1  0
 13 14  1  0
 13 46  1  0
 13 47  1  0
 14 15  1  6
 14 16  1  0
 15 48  1  0
 15 49  1  0
 15 50  1  0
 16 18  1  0
 16 26  1  0
 16 17  1  1
 17 18  1  0
 17 51  1  0
 17 52  1  0
 18 19  1  0
 18 53  1  6
 19 20  1  0
 19 21  1  0
 19 54  1  6
 20 55  1  0
 20 56  1  0
 20 57  1  0
 21 26  1  0
 21 22  1  0
 21 58  1  6
 22 23  2  0
 22 59  1  0
 23 24  1  0
 23 60  1  0
 24 25  2  0
 24 26  1  0
 26 61  1  1
 27 28  1  0
 27 29  1  0
 28 62  1  0
 28 63  1  0
 28 64  1  0
 29 65  1  0
 29 66  1  0
 29 67  1  0
M  END
>  <i_m_ct_stereo_status>  (48) 
1

>  <s_m_source_file>  (48) 
/var/tmp/pbs.5076255.sched01/tmp3_il56_a/09f63jmog.sdf

>  <i_m_source_file_index>  (48) 
18

>  <i_lp_mmshare_version>  (48) 
48012

>  <i_f3d_flags>  (48) 
0

>  <s_epik_input>  (48) 
W0NIM11PQyg9TylbQ0BASF0oQzEoW0NIM10pW0NIM10pW0NIMl1bQ0BASF0oW0NIM10pW0NAQEhdKFtDQEBdMTJbQ0gzXSlbQ0BdKFtDSDNdKShbQ0gyXVtDSDJdMilbQ0BAXTM0W0NAQEhdKFtDSDJdMylbQ0BASF0oW0NIM10pW0NAQEhdNVtDQEBIXTRDKD1PKVtDSF09W0NIXTU=

>  <s_epik_cmdline>  (48) 
J2VwaWtfcHl0aG9uJywgJy1waHQnLCAnMi4wJywgJy1waCcsICc3LjAnLCAnLXRuJywgJzgnLCAnLW1hJywgJzIwMCcsICctaW1hZScsICc8aW5maWxlLm1hZT4nLCAnLW9tYWUnLCAnPG91dGZpbGUubWFlPic=

>  <r_lp_tautomer_probability>  (48) 
0.499977

>  <r_epik_Ionization_Penalty>  (48) 
0

>  <r_epik_Ionization_Penalty_Charging>  (48) 
0

>  <r_epik_Ionization_Penalty_Neutral>  (48) 
0

>  <r_epik_State_Penalty>  (48) 
0.41068

>  <r_epik_Charging_Adjusted_Penalty>  (48) 
0.41068

>  <i_epik_Tot_Q>  (48) 
0

>  <i_epik_Tot_abs_Q>  (48) 
0

>  <s_epik_Chemistry_Notes>  (48) 
This compound has an ester and may undergo hydrolysis at high or low pH.

>  <s_lp_Force_Field>  (48) 
OPLS3e

>  <r_lp_Energy>  (48) 
73.6129

>  <b_lp_Chiralities_Consistent>  (48) 
1

>  <s_lp_Variant>  (48) 
12:0-1

>  <s_i_glide_gridfile>  (48) 
pfpi4k_grid

>  <i_i_glide_lignum>  (48) 
18

>  <i_i_glide_rotatable_bonds>  (48) 
3

>  <r_i_docking_score>  (48) 
-0.566691

>  <r_i_glide_ligand_efficiency>  (48) 
-0.0195411

>  <r_i_glide_ligand_efficiency_sa>  (48) 
-0.0600363

>  <r_i_glide_ligand_efficiency_ln>  (48) 
-0.129758

>  <r_i_glide_gscore>  (48) 
-0.566691

>  <r_i_glide_lipo>  (48) 
-0.163512

>  <r_i_glide_hbond>  (48) 
-0.000168834

>  <r_i_glide_metal>  (48) 
-0

>  <r_i_glide_rewards>  (48) 
-0.691513

>  <r_i_glide_evdw>  (48) 
-7.01255

>  <r_i_glide_ecoul>  (48) 
-2.41223

>  <r_i_glide_erotb>  (48) 
0.246575

>  <r_i_glide_esite>  (48) 
-0.0727962

>  <r_i_glide_emodel>  (48) 
-1.93567

>  <r_i_glide_energy>  (48) 
-9.42478

>  <r_i_glide_einternal>  (48) 
5.2249

>  <r_i_glide_intrahb_reward>  (48) 
-0

>  <i_i_glide_confnum>  (48) 
1

>  <i_i_glide_posenum>  (48) 
8

>  <r_i_glide_eff_state_penalty>  (48) 
0

>  <ligand_id>  (48) 
12

>  <original_smiles>  (48) 
COC(=O)C1CC(C)C2C(C)(CCC2(C)C23CC2C(C)C2C=CC(=O)C23)C1(C)C

>  <smiles>  (48) 
[H]C1=C([H])C2([H])C([H])(C1=O)C1(C3(C([H])([H])[H])C([H])([H])C([H])([H])C4(C([H])([H])[H])C3([H])C([H])(C([H])([H])[H])C([H])([H])C([H])(C(=O)OC([H])([H])[H])C4(C([H])([H])[H])C([H])([H])[H])C([H])([H])C1([H])C2([H])C([H])([H])[H]

$$$$
12:1:0
     RDKit          3D

 67 71  0  0  1  0  0  0  0  0999 V2000
    5.7512   -3.3829   -2.9011 C   0  0  0  0  0  0  0  0  0  0  0  0
    6.1024   -3.1586   -1.5545 O   0  0  0  0  0  0  0  0  0  0  0  0
    5.1830   -2.6705   -0.7298 C   0  0  0  0  0  0  0  0  0  0  0  0
    4.1124   -2.2438   -1.1332 O   0  0  0  0  0  0  0  0  0  0  0  0
    5.6001   -2.6776    0.7729 C   0  0  2  0  0  0  0  0  0  0  0  0
    6.5318   -3.8823    1.0678 C   0  0  0  0  0  0  0  0  0  0  0  0
    5.8211   -5.2359    1.0026 C   0  0  1  0  0  0  0  0  0  0  0  0
    6.8749   -6.3271    1.2960 C   0  0  0  0  0  0  0  0  0  0  0  0
    4.5940   -5.2485    1.9867 C   0  0  1  0  0  0  0  0  0  0  0  0
    3.6237   -3.9796    1.8940 C   0  0  2  0  0  0  0  0  0  0  0  0
    2.6234   -3.8740    3.0857 C   0  0  0  0  0  0  0  0  0  0  0  0
    2.8002   -4.3574    0.6743 C   0  0  0  0  0  0  0  0  0  0  0  0
    2.6004   -5.8357    0.6811 C   0  0  0  0  0  0  0  0  0  0  0  0
    3.6011   -6.4376    1.7267 C   0  0  1  0  0  0  0  0  0  0  0  0
    4.2337   -7.7245    1.1260 C   0  0  0  0  0  0  0  0  0  0  0  0
    2.8806   -6.8822    3.0359 C   0  0  2  0  0  0  0  0  0  0  0  0
    3.1810   -6.2899    4.4429 C   0  0  0  0  0  0  0  0  0  0  0  0
    3.7392   -7.6003    4.0612 C   0  0  1  0  0  0  0  0  0  0  0  0
    3.0763   -8.8974    4.4853 C   0  0  1  0  0  0  0  0  0  0  0  0
    2.9545   -8.9732    6.0219 C   0  0  0  0  0  0  0  0  0  0  0  0
    1.7511   -8.8078    3.7472 C   0  0  0  0  0  0  0  0  0  0  0  0
    0.4870   -9.6162    3.8516 C   0  0  0  0  0  0  0  0  0  0  0  0
   -0.4906   -8.8492    2.9152 C   0  0  0  0  0  0  0  0  0  0  0  0
    0.2787   -7.5965    2.5058 C   0  0  0  0  0  0  0  0  0  0  0  0
   -0.2621   -6.6385    1.9359 O   0  0  0  0  0  0  0  0  0  0  0  0
    1.6612   -7.7452    2.9730 C   0  0  0  0  0  0  0  0  0  0  0  0
    4.4221   -2.6133    1.8220 C   0  0  0  0  0  0  0  0  0  0  0  0
    5.0375   -2.2485    3.2059 C   0  0  0  0  0  0  0  0  0  0  0  0
    3.4443   -1.4533    1.5037 C   0  0  0  0  0  0  0  0  0  0  0  0
    6.6315   -3.6997   -3.4561 H   0  0  0  0  0  0  0  0  0  0  0  0
    5.3642   -2.4602   -3.3259 H   0  0  0  0  0  0  0  0  0  0  0  0
    4.9800   -4.1517   -2.9590 H   0  0  0  0  0  0  0  0  0  0  0  0
    6.1809   -1.7575    0.8848 H   0  0  0  0  0  0  0  0  0  0  0  0
    7.3885   -3.8756    0.3926 H   0  0  0  0  0  0  0  0  0  0  0  0
    6.9983   -3.7689    2.0375 H   0  0  0  0  0  0  0  0  0  0  0  0
    5.4485   -5.3498   -0.0190 H   0  0  0  0  0  0  0  0  0  0  0  0
    7.0980   -6.3618    2.3520 H   0  0  0  0  0  0  0  0  0  0  0  0
    7.7901   -6.1362    0.7553 H   0  0  0  0  0  0  0  0  0  0  0  0
    6.5859   -7.3297    0.9966 H   0  0  0  0  0  0  0  0  0  0  0  0
    5.0575   -5.2947    2.9757 H   0  0  0  0  0  0  0  0  0  0  0  0
    1.9526   -3.0282    3.0042 H   0  0  0  0  0  0  0  0  0  0  0  0
    3.1177   -3.8194    4.0542 H   0  0  0  0  0  0  0  0  0  0  0  0
    1.9245   -4.7031    3.1054 H   0  0  0  0  0  0  0  0  0  0  0  0
    1.9420   -3.8265    0.7179 H   0  0  0  0  0  0  0  0  0  0  0  0
    3.2011   -4.1409   -0.2970 H   0  0  0  0  0  0  0  0  0  0  0  0
    1.5900   -6.1069    0.8668 H   0  0  0  0  0  0  0  0  0  0  0  0
    2.8368   -6.2472   -0.3136 H   0  0  0  0  0  0  0  0  0  0  0  0
    3.5036   -8.5062    0.9020 H   0  0  0  0  0  0  0  0  0  0  0  0
    4.9593   -8.1621    1.8176 H   0  0  0  0  0  0  0  0  0  0  0  0
    4.7394   -7.4973    0.1928 H   0  0  0  0  0  0  0  0  0  0  0  0
    3.9513   -5.5493    4.6476 H   0  0  0  0  0  0  0  0  0  0  0  0
    2.3077   -6.2254    5.1000 H   0  0  0  0  0  0  0  0  0  0  0  0
    4.8188   -7.6480    3.9913 H   0  0  0  0  0  0  0  0  0  0  0  0
    3.6370   -9.7626    4.0998 H   0  0  0  0  0  0  0  0  0  0  0  0
    2.4617   -9.9021    6.3372 H   0  0  0  0  0  0  0  0  0  0  0  0
    2.3910   -8.1293    6.4334 H   0  0  0  0  0  0  0  0  0  0  0  0
    3.9523   -8.9379    6.4767 H   0  0  0  0  0  0  0  0  0  0  0  0
    0.6796  -10.6239    3.4966 H   0  0  0  0  0  0  0  0  0  0  0  0
    0.1097   -9.6366    4.8741 H   0  0  0  0  0  0  0  0  0  0  0  0
   -0.7330   -9.4340    2.0273 H   0  0  0  0  0  0  0  0  0  0  0  0
   -1.4120   -8.5673    3.4228 H   0  0  0  0  0  0  0  0  0  0  0  0
    4.3252   -2.2779    4.0263 H   0  0  0  0  0  0  0  0  0  0  0  0
    5.4305   -1.2408    3.2115 H   0  0  0  0  0  0  0  0  0  0  0  0
    5.8129   -2.9222    3.5141 H   0  0  0  0  0  0  0  0  0  0  0  0
    2.7394   -1.2783    2.3026 H   0  0  0  0  0  0  0  0  0  0  0  0
    2.8367   -1.6100    0.6135 H   0  0  0  0  0  0  0  0  0  0  0  0
    3.9827   -0.5227    1.3855 H   0  0  0  0  0  0  0  0  0  0  0  0
  1  2  1  0
  1 30  1  0
  1 31  1  0
  1 32  1  0
  2  3  1  0
  3  4  2  0
  3  5  1  0
  5 27  1  0
  5  6  1  0
  5 33  1  6
  6  7  1  0
  6 34  1  0
  6 35  1  0
  7  8  1  0
  7  9  1  0
  7 36  1  6
  8 37  1  0
  8 38  1  0
  8 39  1  0
  9 14  1  0
  9 10  1  0
  9 40  1  1
 10 11  1  1
 10 12  1  0
 10 27  1  0
 11 41  1  0
 11 42  1  0
 11 43  1  0
 12 13  1  0
 12 44  1  0
 12 45  1  0
 13 14  1  0
 13 46  1  0
 13 47  1  0
 14 15  1  6
 14 16  1  0
 15 48  1  0
 15 49  1  0
 15 50  1  0
 16 18  1  0
 16 17  1  1
 16 26  1  0
 17 18  1  0
 17 51  1  0
 17 52  1  0
 18 19  1  0
 18 53  1  6
 19 20  1  0
 19 54  1  6
 19 21  1  0
 20 55  1  0
 20 56  1  0
 20 57  1  0
 21 22  1  0
 21 26  2  0
 22 59  1  0
 22 58  1  0
 22 23  1  0
 23 60  1  0
 23 61  1  0
 23 24  1  0
 24 25  2  0
 24 26  1  0
 27 28  1  0
 27 29  1  0
 28 62  1  0
 28 63  1  0
 28 64  1  0
 29 65  1  0
 29 66  1  0
 29 67  1  0
M  END
>  <i_m_ct_stereo_status>  (49) 
1

>  <s_m_source_file>  (49) 
/var/tmp/pbs.5076255.sched01/tmp3_il56_a/09f63jmog.sdf

>  <i_m_source_file_index>  (49) 
19

>  <i_lp_mmshare_version>  (49) 
48012

>  <i_f3d_flags>  (49) 
0

>  <s_epik_input>  (49) 
W0NIM11PQyg9TylbQ0BASF0oQzEoW0NIM10pW0NIM10pW0NIMl1bQ0BASF0oW0NIM10pW0NAQEhdKFtDQEBdMTJbQ0gzXSlbQ0BdKFtDSDNdKShbQ0gyXVtDSDJdMilbQ0BAXTM0W0NAQEhdKFtDSDJdMylbQ0BASF0oW0NIM10pW0NAQEhdNVtDQEBIXTRDKD1PKVtDSF09W0NIXTU=

>  <s_epik_cmdline>  (49) 
J2VwaWtfcHl0aG9uJywgJy1waHQnLCAnMi4wJywgJy1waCcsICc3LjAnLCAnLXRuJywgJzgnLCAnLW1hJywgJzIwMCcsICctaW1hZScsICc8aW5maWxlLm1hZT4nLCAnLW9tYWUnLCAnPG91dGZpbGUubWFlPic=

>  <r_lp_tautomer_probability>  (49) 
0.499977

>  <r_epik_Ionization_Penalty>  (49) 
0

>  <r_epik_Ionization_Penalty_Charging>  (49) 
0

>  <r_epik_Ionization_Penalty_Neutral>  (49) 
0

>  <r_epik_State_Penalty>  (49) 
0.41068

>  <r_epik_Charging_Adjusted_Penalty>  (49) 
0.41068

>  <i_epik_Tot_Q>  (49) 
0

>  <i_epik_Tot_abs_Q>  (49) 
0

>  <s_epik_Chemistry_Notes>  (49) 
This compound has an ester and may undergo hydrolysis at high or low pH.

>  <s_lp_Force_Field>  (49) 
OPLS3e

>  <r_lp_Energy>  (49) 
42.4724

>  <b_lp_Chiralities_Consistent>  (49) 
1

>  <s_lp_Variant>  (49) 
12:0-2

>  <s_i_glide_gridfile>  (49) 
pfpi4k_grid

>  <i_i_glide_lignum>  (49) 
19

>  <i_i_glide_rotatable_bonds>  (49) 
3

>  <r_i_docking_score>  (49) 
-3.42779

>  <r_i_glide_ligand_efficiency>  (49) 
-0.1182

>  <r_i_glide_ligand_efficiency_sa>  (49) 
-0.363147

>  <r_i_glide_ligand_efficiency_ln>  (49) 
-0.784876

>  <r_i_glide_gscore>  (49) 
-3.42779

>  <r_i_glide_lipo>  (49) 
-0.736628

>  <r_i_glide_hbond>  (49) 
-0.19667

>  <r_i_glide_metal>  (49) 
-0

>  <r_i_glide_rewards>  (49) 
-0.691513

>  <r_i_glide_evdw>  (49) 
-30.5101

>  <r_i_glide_ecoul>  (49) 
-3.1335

>  <r_i_glide_erotb>  (49) 
0.246575

>  <r_i_glide_esite>  (49) 
-0.0540222

>  <r_i_glide_emodel>  (49) 
-36.685

>  <r_i_glide_energy>  (49) 
-33.6436

>  <r_i_glide_einternal>  (49) 
2.3489

>  <r_i_glide_intrahb_reward>  (49) 
-0

>  <i_i_glide_confnum>  (49) 
1

>  <i_i_glide_posenum>  (49) 
1

>  <r_i_glide_eff_state_penalty>  (49) 
0

>  <ligand_id>  (49) 
12

>  <original_smiles>  (49) 
COC(=O)C1CC(C)C2C(C)(CCC2(C)C23CC2C(C)C2C=CC(=O)C23)C1(C)C

>  <smiles>  (49) 
[H]C([H])([H])OC(=O)C1([H])C([H])([H])C([H])(C([H])([H])[H])C2([H])C(C([H])([H])[H])(C34C5=C(C([H])([H])C([H])([H])C5=O)C([H])(C([H])([H])[H])C3([H])C4([H])[H])C([H])([H])C([H])([H])C2(C([H])([H])[H])C1(C([H])([H])[H])C([H])([H])[H]

$$$$
12:2:0
     RDKit          3D

 67 71  0  0  1  0  0  0  0  0999 V2000
    1.8847  -11.4979    4.9096 C   0  0  0  0  0  0  0  0  0  0  0  0
    2.1810  -10.1049    4.7804 O   0  0  0  0  0  0  0  0  0  0  0  0
    3.4345   -9.7642    4.4864 C   0  0  0  0  0  0  0  0  0  0  0  0
    4.3664  -10.5441    4.4864 O   0  0  0  0  0  0  0  0  0  0  0  0
    3.6250   -8.2392    4.1689 C   0  0  2  0  0  0  0  0  0  0  0  0
    2.4039   -7.6574    3.3880 C   0  0  0  0  0  0  0  0  0  0  0  0
    2.7427   -6.8388    2.1424 C   0  0  1  0  0  0  0  0  0  0  0  0
    1.4902   -6.2756    1.4971 C   0  0  0  0  0  0  0  0  0  0  0  0
    3.8672   -5.8060    2.4305 C   0  0  1  0  0  0  0  0  0  0  0  0
    5.0705   -6.3087    3.3226 C   0  0  2  0  0  0  0  0  0  0  0  0
    5.0339   -5.4736    4.6602 C   0  0  0  0  0  0  0  0  0  0  0  0
    6.3523   -5.8171    2.5923 C   0  0  0  0  0  0  0  0  0  0  0  0
    5.9106   -4.6636    1.7026 C   0  0  0  0  0  0  0  0  0  0  0  0
    4.5009   -5.0722    1.1990 C   0  0  1  0  0  0  0  0  0  0  0  0
    4.7031   -6.0836    0.0182 C   0  0  0  0  0  0  0  0  0  0  0  0
    3.6929   -3.8209    0.7270 C   0  0  2  0  0  0  0  0  0  0  0  0
    2.6285   -3.8385   -0.3706 C   0  0  0  0  0  0  0  0  0  0  0  0
    3.9760   -3.2711   -0.6831 C   0  0  1  0  0  0  0  0  0  0  0  0
    4.2110   -1.7650   -0.6765 C   0  0  2  0  0  0  0  0  0  0  0  0
    5.6274   -1.4314   -1.1232 C   0  0  0  0  0  0  0  0  0  0  0  0
    4.0130   -1.4852    0.7921 C   0  0  0  0  0  0  0  0  0  0  0  0
    3.8560   -0.1578    1.4815 C   0  0  0  0  0  0  0  0  0  0  0  0
    3.4295   -0.5937    2.9202 C   0  0  0  0  0  0  0  0  0  0  0  0
    3.2741   -2.1252    2.8218 C   0  0  0  0  0  0  0  0  0  0  0  0
    2.8024   -2.8077    3.7228 O   0  0  0  0  0  0  0  0  0  0  0  0
    3.7631   -2.5369    1.5109 C   0  0  0  0  0  0  0  0  0  0  0  0
    5.0483   -7.8848    3.5854 C   0  0  0  0  0  0  0  0  0  0  0  0
    6.1518   -8.2001    4.6640 C   0  0  0  0  0  0  0  0  0  0  0  0
    5.4259   -8.7475    2.3477 C   0  0  0  0  0  0  0  0  0  0  0  0
    0.8361  -11.6612    5.1980 H   0  0  0  0  0  0  0  0  0  0  0  0
    2.5595  -11.9236    5.6363 H   0  0  0  0  0  0  0  0  0  0  0  0
    2.0972  -11.9691    3.9368 H   0  0  0  0  0  0  0  0  0  0  0  0
    3.5472   -7.8111    5.1679 H   0  0  0  0  0  0  0  0  0  0  0  0
    1.7324   -8.4426    3.0449 H   0  0  0  0  0  0  0  0  0  0  0  0
    1.8138   -7.0440    4.0881 H   0  0  0  0  0  0  0  0  0  0  0  0
    3.0861   -7.5884    1.4246 H   0  0  0  0  0  0  0  0  0  0  0  0
    1.1040   -5.4003    2.0154 H   0  0  0  0  0  0  0  0  0  0  0  0
    0.6940   -7.0054    1.4984 H   0  0  0  0  0  0  0  0  0  0  0  0
    1.7060   -6.0082    0.4678 H   0  0  0  0  0  0  0  0  0  0  0  0
    3.3548   -5.0241    3.0212 H   0  0  0  0  0  0  0  0  0  0  0  0
    5.8719   -5.6410    5.3359 H   0  0  0  0  0  0  0  0  0  0  0  0
    4.1365   -5.6321    5.2609 H   0  0  0  0  0  0  0  0  0  0  0  0
    5.0668   -4.3897    4.5056 H   0  0  0  0  0  0  0  0  0  0  0  0
    7.1633   -5.5225    3.2625 H   0  0  0  0  0  0  0  0  0  0  0  0
    6.7689   -6.5576    1.9264 H   0  0  0  0  0  0  0  0  0  0  0  0
    5.9226   -3.7323    2.2831 H   0  0  0  0  0  0  0  0  0  0  0  0
    6.6087   -4.5207    0.8738 H   0  0  0  0  0  0  0  0  0  0  0  0
    5.3195   -5.6690   -0.7853 H   0  0  0  0  0  0  0  0  0  0  0  0
    3.7440   -6.4068   -0.4042 H   0  0  0  0  0  0  0  0  0  0  0  0
    5.2397   -6.9635    0.3443 H   0  0  0  0  0  0  0  0  0  0  0  0
    2.4067   -4.6973   -0.9931 H   0  0  0  0  0  0  0  0  0  0  0  0
    1.8119   -3.1297   -0.2885 H   0  0  0  0  0  0  0  0  0  0  0  0
    4.5775   -3.8145   -1.4085 H   0  0  0  0  0  0  0  0  0  0  0  0
    3.4565   -1.2753   -1.3041 H   0  0  0  0  0  0  0  0  0  0  0  0
    5.7858   -0.3573   -1.0727 H   0  0  0  0  0  0  0  0  0  0  0  0
    5.8057   -1.7585   -2.1487 H   0  0  0  0  0  0  0  0  0  0  0  0
    6.3798   -1.9136   -0.4896 H   0  0  0  0  0  0  0  0  0  0  0  0
    4.8096    0.3526    1.4610 H   0  0  0  0  0  0  0  0  0  0  0  0
    3.0901    0.4335    0.9950 H   0  0  0  0  0  0  0  0  0  0  0  0
    4.2064   -0.3572    3.6354 H   0  0  0  0  0  0  0  0  0  0  0  0
    2.5029   -0.1302    3.2269 H   0  0  0  0  0  0  0  0  0  0  0  0
    7.0975   -7.7249    4.4275 H   0  0  0  0  0  0  0  0  0  0  0  0
    6.3578   -9.2619    4.7563 H   0  0  0  0  0  0  0  0  0  0  0  0
    5.8876   -7.8603    5.6689 H   0  0  0  0  0  0  0  0  0  0  0  0
    6.4336   -8.6043    2.0342 H   0  0  0  0  0  0  0  0  0  0  0  0
    4.7846   -8.5589    1.4918 H   0  0  0  0  0  0  0  0  0  0  0  0
    5.3294   -9.8152    2.5066 H   0  0  0  0  0  0  0  0  0  0  0  0
  1  2  1  0
  1 30  1  0
  1 31  1  0
  1 32  1  0
  2  3  1  0
  3  4  2  0
  3  5  1  0
  5 27  1  0
  5  6  1  0
  5 33  1  1
  6  7  1  0
  6 34  1  0
  6 35  1  0
  7  8  1  0
  7  9  1  0
  7 36  1  6
  8 37  1  0
  8 38  1  0
  8 39  1  0
  9 14  1  0
  9 10  1  0
  9 40  1  1
 10 11  1  1
 10 12  1  0
 10 27  1  0
 11 41  1  0
 11 42  1  0
 11 43  1  0
 12 13  1  0
 12 44  1  0
 12 45  1  0
 13 14  1  0
 13 46  1  0
 13 47  1  0
 14 15  1  6
 14 16  1  0
 15 48  1  0
 15 49  1  0
 15 50  1  0
 16 18  1  0
 16 17  1  6
 16 26  1  0
 17 18  1  0
 17 51  1  0
 17 52  1  0
 18 19  1  0
 18 53  1  6
 19 20  1  0
 19 54  1  6
 19 21  1  0
 20 55  1  0
 20 56  1  0
 20 57  1  0
 21 22  1  0
 21 26  2  0
 22 59  1  0
 22 58  1  0
 22 23  1  0
 23 60  1  0
 23 61  1  0
 23 24  1  0
 24 25  2  0
 24 26  1  0
 27 28  1  0
 27 29  1  0
 28 62  1  0
 28 63  1  0
 28 64  1  0
 29 65  1  0
 29 66  1  0
 29 67  1  0
M  END
>  <i_m_ct_stereo_status>  (50) 
1

>  <s_m_source_file>  (50) 
/var/tmp/pbs.5076255.sched01/tmp3_il56_a/09f63jmog.sdf

>  <i_m_source_file_index>  (50) 
20

>  <i_lp_mmshare_version>  (50) 
48012

>  <i_f3d_flags>  (50) 
0

>  <s_epik_input>  (50) 
W0NIM11PQyg9TylbQ0BASF0oQzEoW0NIM10pW0NIM10pW0NIMl1bQ0BASF0oW0NIM10pW0NAQEhdKFtDQEBdMTJbQ0gzXSlbQ0BdKFtDSDNdKShbQ0gyXVtDSDJdMilbQ0BAXTM0W0NAQEhdKFtDSDJdMylbQ0BASF0oW0NIM10pW0NAQEhdNVtDQEBIXTRDKD1PKVtDSF09W0NIXTU=

>  <s_epik_cmdline>  (50) 
J2VwaWtfcHl0aG9uJywgJy1waHQnLCAnMi4wJywgJy1waCcsICc3LjAnLCAnLXRuJywgJzgnLCAnLW1hJywgJzIwMCcsICctaW1hZScsICc8aW5maWxlLm1hZT4nLCAnLW9tYWUnLCAnPG91dGZpbGUubWFlPic=

>  <r_lp_tautomer_probability>  (50) 
0.499977

>  <r_epik_Ionization_Penalty>  (50) 
0

>  <r_epik_Ionization_Penalty_Charging>  (50) 
0

>  <r_epik_Ionization_Penalty_Neutral>  (50) 
0

>  <r_epik_State_Penalty>  (50) 
0.41068

>  <r_epik_Charging_Adjusted_Penalty>  (50) 
0.41068

>  <i_epik_Tot_Q>  (50) 
0

>  <i_epik_Tot_abs_Q>  (50) 
0

>  <s_epik_Chemistry_Notes>  (50) 
This compound has an ester and may undergo hydrolysis at high or low pH.

>  <s_lp_Force_Field>  (50) 
OPLS3e

>  <r_lp_Energy>  (50) 
42.1528

>  <b_lp_Chiralities_Consistent>  (50) 
1

>  <s_lp_Variant>  (50) 
12:0-3

>  <s_i_glide_gridfile>  (50) 
pfpi4k_grid

>  <i_i_glide_lignum>  (50) 
20

>  <i_i_glide_rotatable_bonds>  (50) 
3

>  <r_i_docking_score>  (50) 
-2.09339

>  <r_i_glide_ligand_efficiency>  (50) 
-0.072186

>  <r_i_glide_ligand_efficiency_sa>  (50) 
-0.221778

>  <r_i_glide_ligand_efficiency_ln>  (50) 
-0.479334

>  <r_i_glide_gscore>  (50) 
-2.09339

>  <r_i_glide_lipo>  (50) 
-0.249843

>  <r_i_glide_hbond>  (50) 
0

>  <r_i_glide_metal>  (50) 
-0

>  <r_i_glide_rewards>  (50) 
-0.691513

>  <r_i_glide_evdw>  (50) 
-25.4961

>  <r_i_glide_ecoul>  (50) 
-0.773249

>  <r_i_glide_erotb>  (50) 
0.246575

>  <r_i_glide_esite>  (50) 
-0.00781786

>  <r_i_glide_emodel>  (50) 
-28.1303

>  <r_i_glide_energy>  (50) 
-26.2694

>  <r_i_glide_einternal>  (50) 
2.07134

>  <r_i_glide_intrahb_reward>  (50) 
-0

>  <i_i_glide_confnum>  (50) 
2

>  <i_i_glide_posenum>  (50) 
16

>  <r_i_glide_eff_state_penalty>  (50) 
0

>  <ligand_id>  (50) 
12

>  <original_smiles>  (50) 
COC(=O)C1CC(C)C2C(C)(CCC2(C)C23CC2C(C)C2C=CC(=O)C23)C1(C)C

>  <smiles>  (50) 
[H]C([H])([H])OC(=O)C1([H])C([H])([H])C([H])(C([H])([H])[H])C2([H])C(C([H])([H])[H])(C34C5=C(C([H])([H])C([H])([H])C5=O)C([H])(C([H])([H])[H])C3([H])C4([H])[H])C([H])([H])C([H])([H])C2(C([H])([H])[H])C1(C([H])([H])[H])C([H])([H])[H]

$$$$
12:2:1
     RDKit          3D

 67 71  0  0  1  0  0  0  0  0999 V2000
    1.0474  -11.7727    4.0964 C   0  0  0  0  0  0  0  0  0  0  0  0
    1.2926  -10.3771    4.0662 O   0  0  0  0  0  0  0  0  0  0  0  0
    2.5769   -9.9687    3.9797 C   0  0  0  0  0  0  0  0  0  0  0  0
    3.5175  -10.7272    4.0175 O   0  0  0  0  0  0  0  0  0  0  0  0
    2.7468   -8.4400    3.8678 C   0  0  2  0  0  0  0  0  0  0  0  0
    1.7410   -7.8172    2.8470 C   0  0  0  0  0  0  0  0  0  0  0  0
    2.3902   -6.9191    1.7838 C   0  0  1  0  0  0  0  0  0  0  0  0
    1.3085   -6.2718    0.9035 C   0  0  0  0  0  0  0  0  0  0  0  0
    3.3298   -5.8590    2.4401 C   0  0  1  0  0  0  0  0  0  0  0  0
    4.2901   -6.4072    3.5634 C   0  0  2  0  0  0  0  0  0  0  0  0
    3.8913   -5.7060    4.9054 C   0  0  0  0  0  0  0  0  0  0  0  0
    5.6831   -5.8412    3.1991 C   0  0  0  0  0  0  0  0  0  0  0  0
    5.4231   -4.6213    2.3174 C   0  0  0  0  0  0  0  0  0  0  0  0
    4.1984   -5.0085    1.4587 C   0  0  1  0  0  0  0  0  0  0  0  0
    4.7058   -5.8952    0.2773 C   0  0  0  0  0  0  0  0  0  0  0  0
    3.4702   -3.7468    0.9202 C   0  0  2  0  0  0  0  0  0  0  0  0
    2.8454   -3.6591   -0.4695 C   0  0  0  0  0  0  0  0  0  0  0  0
    4.1619   -2.9719   -0.2086 C   0  0  1  0  0  0  0  0  0  0  0  0
    4.2311   -1.4729    0.0766 C   0  0  2  0  0  0  0  0  0  0  0  0
    5.6677   -0.9812    0.2156 C   0  0  0  0  0  0  0  0  0  0  0  0
    3.4996   -1.4359    1.3993 C   0  0  0  0  0  0  0  0  0  0  0  0
    2.9894   -0.2457    2.1669 C   0  0  0  0  0  0  0  0  0  0  0  0
    2.1482   -0.9234    3.2837 C   0  0  0  0  0  0  0  0  0  0  0  0
    2.1729   -2.4155    2.9448 C   0  0  0  0  0  0  0  0  0  0  0  0
    1.4702   -3.2421    3.5096 O   0  0  0  0  0  0  0  0  0  0  0  0
    3.1249   -2.5964    1.8424 C   0  0  0  0  0  0  0  0  0  0  0  0
    4.2512   -7.9919    3.6890 C   0  0  0  0  0  0  0  0  0  0  0  0
    5.0691   -8.3915    4.9561 C   0  0  0  0  0  0  0  0  0  0  0  0
    4.9150   -8.7406    2.4687 C   0  0  0  0  0  0  0  0  0  0  0  0
   -0.0228  -11.9762    4.1871 H   0  0  0  0  0  0  0  0  0  0  0  0
    1.5881  -12.2082    4.9383 H   0  0  0  0  0  0  0  0  0  0  0  0
    1.4416  -12.2185    3.1790 H   0  0  0  0  0  0  0  0  0  0  0  0
    2.4080   -8.0875    4.8372 H   0  0  0  0  0  0  0  0  0  0  0  0
    1.2099   -8.5818    2.2901 H   0  0  0  0  0  0  0  0  0  0  0  0
    0.9710   -7.2628    3.4008 H   0  0  0  0  0  0  0  0  0  0  0  0
    2.8982   -7.5641    1.1285 H   0  0  0  0  0  0  0  0  0  0  0  0
    0.7677   -5.4884    1.4475 H   0  0  0  0  0  0  0  0  0  0  0  0
    0.5862   -7.0157    0.5658 H   0  0  0  0  0  0  0  0  0  0  0  0
    1.7606   -5.8573    0.0055 H   0  0  0  0  0  0  0  0  0  0  0  0
    2.6552   -5.1685    2.9542 H   0  0  0  0  0  0  0  0  0  0  0  0
    4.5549   -5.9323    5.7415 H   0  0  0  0  0  0  0  0  0  0  0  0
    2.8805   -5.9441    5.2435 H   0  0  0  0  0  0  0  0  0  0  0  0
    3.9238   -4.6095    4.8449 H   0  0  0  0  0  0  0  0  0  0  0  0
    6.3027   -5.6064    4.0669 H   0  0  0  0  0  0  0  0  0  0  0  0
    6.2745   -6.5196    2.5961 H   0  0  0  0  0  0  0  0  0  0  0  0
    5.2471   -3.7497    2.9550 H   0  0  0  0  0  0  0  0  0  0  0  0
    6.2989   -4.3967    1.7046 H   0  0  0  0  0  0  0  0  0  0  0  0
    5.4694   -5.4112   -0.3429 H   0  0  0  0  0  0  0  0  0  0  0  0
    3.8929   -6.2201   -0.3830 H   0  0  0  0  0  0  0  0  0  0  0  0
    5.2032   -6.7990    0.6296 H   0  0  0  0  0  0  0  0  0  0  0  0
    2.9051   -4.5015   -1.1384 H   0  0  0  0  0  0  0  0  0  0  0  0
    1.9556   -3.0325   -0.6128 H   0  0  0  0  0  0  0  0  0  0  0  0
    5.0377   -3.3815   -0.7054 H   0  0  0  0  0  0  0  0  0  0  0  0
    3.6926   -0.9482   -0.7122 H   0  0  0  0  0  0  0  0  0  0  0  0
    5.6762    0.0790    0.4661 H   0  0  0  0  0  0  0  0  0  0  0  0
    6.2151   -1.1177   -0.7147 H   0  0  0  0  0  0  0  0  0  0  0  0
    6.2086   -1.5146    1.0021 H   0  0  0  0  0  0  0  0  0  0  0  0
    3.8281    0.3163    2.5652 H   0  0  0  0  0  0  0  0  0  0  0  0
    2.3758    0.3951    1.5368 H   0  0  0  0  0  0  0  0  0  0  0  0
    2.6001   -0.7702    4.2629 H   0  0  0  0  0  0  0  0  0  0  0  0
    1.1236   -0.5528    3.3118 H   0  0  0  0  0  0  0  0  0  0  0  0
    6.0363   -7.8992    4.9815 H   0  0  0  0  0  0  0  0  0  0  0  0
    5.2777   -9.4602    4.9955 H   0  0  0  0  0  0  0  0  0  0  0  0
    4.5614   -8.1525    5.8943 H   0  0  0  0  0  0  0  0  0  0  0  0
    6.0051   -8.5332    2.4398 H   0  0  0  0  0  0  0  0  0  0  0  0
    4.4985   -8.4639    1.5473 H   0  0  0  0  0  0  0  0  0  0  0  0
    4.8214   -9.8125    2.5498 H   0  0  0  0  0  0  0  0  0  0  0  0
  1  2  1  0
  1 30  1  0
  1 31  1  0
  1 32  1  0
  2  3  1  0
  3  4  2  0
  3  5  1  0
  5 27  1  0
  5  6  1  0
  5 33  1  1
  6  7  1  0
  6 34  1  0
  6 35  1  0
  7  8  1  0
  7  9  1  0
  7 36  1  6
  8 37  1  0
  8 38  1  0
  8 39  1  0
  9 14  1  0
  9 10  1  0
  9 40  1  1
 10 11  1  1
 10 12  1  0
 10 27  1  0
 11 41  1  0
 11 42  1  0
 11 43  1  0
 12 13  1  0
 12 44  1  0
 12 45  1  0
 13 14  1  0
 13 46  1  0
 13 47  1  0
 14 15  1  6
 14 16  1  0
 15 48  1  0
 15 49  1  0
 15 50  1  0
 16 18  1  0
 16 17  1  6
 16 26  1  0
 17 18  1  0
 17 51  1  0
 17 52  1  0
 18 19  1  0
 18 53  1  6
 19 20  1  0
 19 54  1  6
 19 21  1  0
 20 55  1  0
 20 56  1  0
 20 57  1  0
 21 22  1  0
 21 26  2  0
 22 59  1  0
 22 58  1  0
 22 23  1  0
 23 60  1  0
 23 61  1  0
 23 24  1  0
 24 25  2  0
 24 26  1  0
 27 28  1  0
 27 29  1  0
 28 62  1  0
 28 63  1  0
 28 64  1  0
 29 65  1  0
 29 66  1  0
 29 67  1  0
M  END
>  <i_m_ct_stereo_status>  (51) 
1

>  <s_m_source_file>  (51) 
/var/tmp/pbs.5076255.sched01/tmp3_il56_a/09f63jmog.sdf

>  <i_m_source_file_index>  (51) 
20

>  <i_lp_mmshare_version>  (51) 
48012

>  <i_f3d_flags>  (51) 
0

>  <s_epik_input>  (51) 
W0NIM11PQyg9TylbQ0BASF0oQzEoW0NIM10pW0NIM10pW0NIMl1bQ0BASF0oW0NIM10pW0NAQEhdKFtDQEBdMTJbQ0gzXSlbQ0BdKFtDSDNdKShbQ0gyXVtDSDJdMilbQ0BAXTM0W0NAQEhdKFtDSDJdMylbQ0BASF0oW0NIM10pW0NAQEhdNVtDQEBIXTRDKD1PKVtDSF09W0NIXTU=

>  <s_epik_cmdline>  (51) 
J2VwaWtfcHl0aG9uJywgJy1waHQnLCAnMi4wJywgJy1waCcsICc3LjAnLCAnLXRuJywgJzgnLCAnLW1hJywgJzIwMCcsICctaW1hZScsICc8aW5maWxlLm1hZT4nLCAnLW9tYWUnLCAnPG91dGZpbGUubWFlPic=

>  <r_lp_tautomer_probability>  (51) 
0.499977

>  <r_epik_Ionization_Penalty>  (51) 
0

>  <r_epik_Ionization_Penalty_Charging>  (51) 
0

>  <r_epik_Ionization_Penalty_Neutral>  (51) 
0

>  <r_epik_State_Penalty>  (51) 
0.41068

>  <r_epik_Charging_Adjusted_Penalty>  (51) 
0.41068

>  <i_epik_Tot_Q>  (51) 
0

>  <i_epik_Tot_abs_Q>  (51) 
0

>  <s_epik_Chemistry_Notes>  (51) 
This compound has an ester and may undergo hydrolysis at high or low pH.

>  <s_lp_Force_Field>  (51) 
OPLS3e

>  <r_lp_Energy>  (51) 
42.1528

>  <b_lp_Chiralities_Consistent>  (51) 
1

>  <s_lp_Variant>  (51) 
12:0-3

>  <s_i_glide_gridfile>  (51) 
pfpi4k_grid

>  <i_i_glide_lignum>  (51) 
20

>  <i_i_glide_rotatable_bonds>  (51) 
3

>  <r_i_docking_score>  (51) 
-2.0581

>  <r_i_glide_ligand_efficiency>  (51) 
-0.070969

>  <r_i_glide_ligand_efficiency_sa>  (51) 
-0.218039

>  <r_i_glide_ligand_efficiency_ln>  (51) 
-0.471253

>  <r_i_glide_gscore>  (51) 
-2.0581

>  <r_i_glide_lipo>  (51) 
-0.253152

>  <r_i_glide_hbond>  (51) 
0

>  <r_i_glide_metal>  (51) 
-0

>  <r_i_glide_rewards>  (51) 
-0.691513

>  <r_i_glide_evdw>  (51) 
-28.486

>  <r_i_glide_ecoul>  (51) 
0.523408

>  <r_i_glide_erotb>  (51) 
0.246575

>  <r_i_glide_esite>  (51) 
-0.0142231

>  <r_i_glide_emodel>  (51) 
-29.6569

>  <r_i_glide_energy>  (51) 
-27.9626

>  <r_i_glide_einternal>  (51) 
1.85289

>  <r_i_glide_intrahb_reward>  (51) 
-0

>  <i_i_glide_confnum>  (51) 
2

>  <i_i_glide_posenum>  (51) 
27

>  <r_i_glide_eff_state_penalty>  (51) 
0

>  <ligand_id>  (51) 
12

>  <original_smiles>  (51) 
COC(=O)C1CC(C)C2C(C)(CCC2(C)C23CC2C(C)C2C=CC(=O)C23)C1(C)C

>  <smiles>  (51) 
[H]C([H])([H])OC(=O)C1([H])C([H])([H])C([H])(C([H])([H])[H])C2([H])C(C([H])([H])[H])(C34C5=C(C([H])([H])C([H])([H])C5=O)C([H])(C([H])([H])[H])C3([H])C4([H])[H])C([H])([H])C([H])([H])C2(C([H])([H])[H])C1(C([H])([H])[H])C([H])([H])[H]

$$$$
12:2:2
     RDKit          3D

 67 71  0  0  1  0  0  0  0  0999 V2000
    3.0019  -11.8985    4.8939 C   0  0  0  0  0  0  0  0  0  0  0  0
    3.0029  -10.4856    4.7808 O   0  0  0  0  0  0  0  0  0  0  0  0
    2.7828   -9.9502    3.5722 C   0  0  0  0  0  0  0  0  0  0  0  0
    2.4967  -10.5937    2.5657 O   0  0  0  0  0  0  0  0  0  0  0  0
    2.9307   -8.4161    3.5658 C   0  0  2  0  0  0  0  0  0  0  0  0
    1.9069   -7.7406    2.5928 C   0  0  0  0  0  0  0  0  0  0  0  0
    2.5562   -6.8107    1.5612 C   0  0  1  0  0  0  0  0  0  0  0  0
    1.4574   -6.1213    0.7292 C   0  0  0  0  0  0  0  0  0  0  0  0
    3.5090   -5.7879    2.2510 C   0  0  1  0  0  0  0  0  0  0  0  0
    4.4819   -6.3854    3.3409 C   0  0  2  0  0  0  0  0  0  0  0  0
    4.0994   -5.7499    4.7230 C   0  0  0  0  0  0  0  0  0  0  0  0
    5.8716   -5.7934    2.9818 C   0  0  0  0  0  0  0  0  0  0  0  0
    5.5846   -4.5268    2.1737 C   0  0  0  0  0  0  0  0  0  0  0  0
    4.3578   -4.8814    1.3071 C   0  0  1  0  0  0  0  0  0  0  0  0
    4.8679   -5.7012    0.0761 C   0  0  0  0  0  0  0  0  0  0  0  0
    3.6058   -3.6011    0.8476 C   0  0  2  0  0  0  0  0  0  0  0  0
    3.0597   -3.4029   -0.5741 C   0  0  0  0  0  0  0  0  0  0  0  0
    4.3290   -2.6998   -0.1582 C   0  0  1  0  0  0  0  0  0  0  0  0
    4.3257   -1.2300    0.2784 C   0  0  2  0  0  0  0  0  0  0  0  0
    5.7292   -0.6988    0.5588 C   0  0  0  0  0  0  0  0  0  0  0  0
    3.5265   -1.3410    1.5532 C   0  0  0  0  0  0  0  0  0  0  0  0
    2.9146   -0.2462    2.3901 C   0  0  0  0  0  0  0  0  0  0  0  0
    2.0303   -1.0491    3.3834 C   0  0  0  0  0  0  0  0  0  0  0  0
    2.1345   -2.5005    2.9027 C   0  0  0  0  0  0  0  0  0  0  0  0
    1.4174   -3.3952    3.3303 O   0  0  0  0  0  0  0  0  0  0  0  0
    3.1699   -2.5537    1.8618 C   0  0  0  0  0  0  0  0  0  0  0  0
    4.4361   -7.9689    3.3865 C   0  0  0  0  0  0  0  0  0  0  0  0
    5.2777   -8.4508    4.6181 C   0  0  0  0  0  0  0  0  0  0  0  0
    5.1002   -8.6699    2.1413 C   0  0  0  0  0  0  0  0  0  0  0  0
    3.2339  -12.1769    5.9227 H   0  0  0  0  0  0  0  0  0  0  0  0
    3.7358  -12.3615    4.2289 H   0  0  0  0  0  0  0  0  0  0  0  0
    2.0097  -12.2716    4.6408 H   0  0  0  0  0  0  0  0  0  0  0  0
    2.5956   -8.1087    4.5549 H   0  0  0  0  0  0  0  0  0  0  0  0
    1.3469   -8.4700    2.0037 H   0  0  0  0  0  0  0  0  0  0  0  0
    1.1373   -7.2095    3.1881 H   0  0  0  0  0  0  0  0  0  0  0  0
    3.0766   -7.4472    0.8884 H   0  0  0  0  0  0  0  0  0  0  0  0
    0.9376   -5.3690    1.3402 H   0  0  0  0  0  0  0  0  0  0  0  0
    0.7391   -6.8489    0.3453 H   0  0  0  0  0  0  0  0  0  0  0  0
    1.8845   -5.6348   -0.1417 H   0  0  0  0  0  0  0  0  0  0  0  0
    2.8418   -5.1352    2.8286 H   0  0  0  0  0  0  0  0  0  0  0  0
    4.7724   -6.0158    5.5403 H   0  0  0  0  0  0  0  0  0  0  0  0
    3.0945   -6.0128    5.0621 H   0  0  0  0  0  0  0  0  0  0  0  0
    4.1226   -4.6537    4.7174 H   0  0  0  0  0  0  0  0  0  0  0  0
    6.4986   -5.5954    3.8562 H   0  0  0  0  0  0  0  0  0  0  0  0
    6.4518   -6.4477    2.3379 H   0  0  0  0  0  0  0  0  0  0  0  0
    5.4069   -3.6884    2.8579 H   0  0  0  0  0  0  0  0  0  0  0  0
    6.4518   -4.2624    1.5670 H   0  0  0  0  0  0  0  0  0  0  0  0
    5.6038   -5.1545   -0.5326 H   0  0  0  0  0  0  0  0  0  0  0  0
    4.0571   -6.0085   -0.5999 H   0  0  0  0  0  0  0  0  0  0  0  0
    5.3715   -6.6198    0.3825 H   0  0  0  0  0  0  0  0  0  0  0  0
    3.1891   -4.1758   -1.3257 H   0  0  0  0  0  0  0  0  0  0  0  0
    2.1602   -2.7855   -0.7101 H   0  0  0  0  0  0  0  0  0  0  0  0
    5.2576   -3.0346   -0.6075 H   0  0  0  0  0  0  0  0  0  0  0  0
    3.8155   -0.6358   -0.4839 H   0  0  0  0  0  0  0  0  0  0  0  0
    5.6778    0.3359    0.8967 H   0  0  0  0  0  0  0  0  0  0  0  0
    6.3437   -0.7247   -0.3371 H   0  0  0  0  0  0  0  0  0  0  0  0
    6.2437   -1.2809    1.3302 H   0  0  0  0  0  0  0  0  0  0  0  0
    3.7039    0.3003    2.8919 H   0  0  0  0  0  0  0  0  0  0  0  0
    2.3163    0.4256    1.7812 H   0  0  0  0  0  0  0  0  0  0  0  0
    2.4145   -0.9879    4.3969 H   0  0  0  0  0  0  0  0  0  0  0  0
    0.9931   -0.7285    3.3789 H   0  0  0  0  0  0  0  0  0  0  0  0
    6.2529   -7.9688    4.6493 H   0  0  0  0  0  0  0  0  0  0  0  0
    5.4711   -9.5187    4.5799 H   0  0  0  0  0  0  0  0  0  0  0  0
    4.7934   -8.2630    5.5805 H   0  0  0  0  0  0  0  0  0  0  0  0
    6.1947   -8.5040    2.1221 H   0  0  0  0  0  0  0  0  0  0  0  0
    4.6471   -8.4012    1.2150 H   0  0  0  0  0  0  0  0  0  0  0  0
    5.0214   -9.7734    2.2088 H   0  0  0  0  0  0  0  0  0  0  0  0
  1  2  1  0
  1 30  1  0
  1 31  1  0
  1 32  1  0
  2  3  1  0
  3  4  2  0
  3  5  1  0
  5 27  1  0
  5  6  1  0
  5 33  1  1
  6  7  1  0
  6 34  1  0
  6 35  1  0
  7  8  1  0
  7  9  1  0
  7 36  1  6
  8 37  1  0
  8 38  1  0
  8 39  1  0
  9 14  1  0
  9 10  1  0
  9 40  1  1
 10 11  1  1
 10 12  1  0
 10 27  1  0
 11 41  1  0
 11 42  1  0
 11 43  1  0
 12 13  1  0
 12 44  1  0
 12 45  1  0
 13 14  1  0
 13 46  1  0
 13 47  1  0
 14 15  1  6
 14 16  1  0
 15 48  1  0
 15 49  1  0
 15 50  1  0
 16 18  1  0
 16 17  1  6
 16 26  1  0
 17 18  1  0
 17 51  1  0
 17 52  1  0
 18 19  1  0
 18 53  1  6
 19 20  1  0
 19 54  1  6
 19 21  1  0
 20 55  1  0
 20 56  1  0
 20 57  1  0
 21 22  1  0
 21 26  2  0
 22 59  1  0
 22 58  1  0
 22 23  1  0
 23 60  1  0
 23 61  1  0
 23 24  1  0
 24 25  2  0
 24 26  1  0
 27 28  1  0
 27 29  1  0
 28 62  1  0
 28 63  1  0
 28 64  1  0
 29 65  1  0
 29 66  1  0
 29 67  1  0
M  END
>  <i_m_ct_stereo_status>  (52) 
1

>  <s_m_source_file>  (52) 
/var/tmp/pbs.5076255.sched01/tmp3_il56_a/09f63jmog.sdf

>  <i_m_source_file_index>  (52) 
20

>  <i_lp_mmshare_version>  (52) 
48012

>  <i_f3d_flags>  (52) 
0

>  <s_epik_input>  (52) 
W0NIM11PQyg9TylbQ0BASF0oQzEoW0NIM10pW0NIM10pW0NIMl1bQ0BASF0oW0NIM10pW0NAQEhdKFtDQEBdMTJbQ0gzXSlbQ0BdKFtDSDNdKShbQ0gyXVtDSDJdMilbQ0BAXTM0W0NAQEhdKFtDSDJdMylbQ0BASF0oW0NIM10pW0NAQEhdNVtDQEBIXTRDKD1PKVtDSF09W0NIXTU=

>  <s_epik_cmdline>  (52) 
J2VwaWtfcHl0aG9uJywgJy1waHQnLCAnMi4wJywgJy1waCcsICc3LjAnLCAnLXRuJywgJzgnLCAnLW1hJywgJzIwMCcsICctaW1hZScsICc8aW5maWxlLm1hZT4nLCAnLW9tYWUnLCAnPG91dGZpbGUubWFlPic=

>  <r_lp_tautomer_probability>  (52) 
0.499977

>  <r_epik_Ionization_Penalty>  (52) 
0

>  <r_epik_Ionization_Penalty_Charging>  (52) 
0

>  <r_epik_Ionization_Penalty_Neutral>  (52) 
0

>  <r_epik_State_Penalty>  (52) 
0.41068

>  <r_epik_Charging_Adjusted_Penalty>  (52) 
0.41068

>  <i_epik_Tot_Q>  (52) 
0

>  <i_epik_Tot_abs_Q>  (52) 
0

>  <s_epik_Chemistry_Notes>  (52) 
This compound has an ester and may undergo hydrolysis at high or low pH.

>  <s_lp_Force_Field>  (52) 
OPLS3e

>  <r_lp_Energy>  (52) 
42.1528

>  <b_lp_Chiralities_Consistent>  (52) 
1

>  <s_lp_Variant>  (52) 
12:0-3

>  <s_i_glide_gridfile>  (52) 
pfpi4k_grid

>  <i_i_glide_lignum>  (52) 
20

>  <i_i_glide_rotatable_bonds>  (52) 
3

>  <r_i_docking_score>  (52) 
-1.99542

>  <r_i_glide_ligand_efficiency>  (52) 
-0.0688074

>  <r_i_glide_ligand_efficiency_sa>  (52) 
-0.211398

>  <r_i_glide_ligand_efficiency_ln>  (52) 
-0.4569

>  <r_i_glide_gscore>  (52) 
-1.99542

>  <r_i_glide_lipo>  (52) 
-0.295799

>  <r_i_glide_hbond>  (52) 
0

>  <r_i_glide_metal>  (52) 
-0

>  <r_i_glide_rewards>  (52) 
-0.691513

>  <r_i_glide_evdw>  (52) 
-27.2244

>  <r_i_glide_ecoul>  (52) 
0.797636

>  <r_i_glide_erotb>  (52) 
0.246575

>  <r_i_glide_esite>  (52) 
-0.0131036

>  <r_i_glide_emodel>  (52) 
-29.0456

>  <r_i_glide_energy>  (52) 
-26.4268

>  <r_i_glide_einternal>  (52) 
0.381611

>  <r_i_glide_intrahb_reward>  (52) 
-0

>  <i_i_glide_confnum>  (52) 
2

>  <i_i_glide_posenum>  (52) 
9

>  <r_i_glide_eff_state_penalty>  (52) 
0

>  <ligand_id>  (52) 
12

>  <original_smiles>  (52) 
COC(=O)C1CC(C)C2C(C)(CCC2(C)C23CC2C(C)C2C=CC(=O)C23)C1(C)C

>  <smiles>  (52) 
[H]C([H])([H])OC(=O)C1([H])C([H])([H])C([H])(C([H])([H])[H])C2([H])C(C([H])([H])[H])(C34C5=C(C([H])([H])C([H])([H])C5=O)C([H])(C([H])([H])[H])C3([H])C4([H])[H])C([H])([H])C([H])([H])C2(C([H])([H])[H])C1(C([H])([H])[H])C([H])([H])[H]

$$$$
13:0:0
     RDKit          3D

 44 46  0  0  1  0  0  0  0  0999 V2000
    0.6478  -10.2938    5.8325 C   0  0  0  0  0  0  0  0  0  0  0  0
    0.9248   -9.4924    4.6191 N   0  0  2  0  0  0  0  0  0  0  0  0
   -0.1785   -9.5393    3.6255 C   0  0  0  0  0  0  0  0  0  0  0  0
   -0.0147   -8.4500    2.5581 C   0  0  0  0  0  0  0  0  0  0  0  0
    1.4473   -8.2335    2.1246 C   0  0  2  0  0  0  0  0  0  0  0  0
    2.3327   -9.4328    2.5213 C   0  0  2  0  0  0  0  0  0  0  0  0
    2.2566   -9.7888    4.0226 C   0  0  0  0  0  0  0  0  0  0  0  0
    3.7961   -9.2654    2.0723 C   0  0  1  0  0  0  0  0  0  0  0  0
    3.9510   -9.4519    0.6820 O   0  0  0  0  0  0  0  0  0  0  0  0
    4.4645   -7.9467    2.5126 C   0  0  0  0  0  0  0  0  0  0  0  0
    3.6939   -6.7395    2.1042 N   0  0  0  0  0  0  0  0  0  0  0  0
    3.8764   -6.2290    0.7241 C   0  0  0  0  0  0  0  0  0  0  0  0
    5.1323   -5.3717    0.4958 C   0  0  0  0  0  0  0  0  0  0  0  0
    5.0599   -4.2185   -0.3189 C   0  0  0  0  0  0  0  0  0  0  0  0
    6.2116   -3.4132   -0.5245 C   0  0  0  0  0  0  0  0  0  0  0  0
    7.4425   -3.7721    0.0790 C   0  0  0  0  0  0  0  0  0  0  0  0
    7.5145   -4.9176    0.8785 C   0  0  0  0  0  0  0  0  0  0  0  0
    6.3822   -5.7051    1.0828 C   0  0  0  0  0  0  0  0  0  0  0  0
    2.1218   -6.6646    2.7916 S   0  0  0  0  0  0  0  0  0  0  0  0
    1.3858   -5.5313    2.2215 O   0  0  0  0  0  0  0  0  0  0  0  0
    2.2680   -6.8010    4.2512 O   0  0  0  0  0  0  0  0  0  0  0  0
    0.5390  -11.3422    5.5753 H   0  0  0  0  0  0  0  0  0  0  0  0
   -0.2630   -9.9684    6.3149 H   0  0  0  0  0  0  0  0  0  0  0  0
    1.4575  -10.2042    6.5437 H   0  0  0  0  0  0  0  0  0  0  0  0
   -0.1934  -10.5307    3.1772 H   0  0  0  0  0  0  0  0  0  0  0  0
   -1.1308   -9.3997    4.1135 H   0  0  0  0  0  0  0  0  0  0  0  0
   -0.6088   -8.7369    1.6883 H   0  0  0  0  0  0  0  0  0  0  0  0
   -0.4397   -7.5067    2.9086 H   0  0  0  0  0  0  0  0  0  0  0  0
    1.4791   -8.1120    1.0439 H   0  0  0  0  0  0  0  0  0  0  0  0
    1.9572  -10.2954    1.9687 H   0  0  0  0  0  0  0  0  0  0  0  0
    3.0055   -9.2760    4.6146 H   0  0  0  0  0  0  0  0  0  0  0  0
    2.4734  -10.8474    4.1303 H   0  0  0  0  0  0  0  0  0  0  0  0
    4.4045  -10.0612    2.5089 H   0  0  0  0  0  0  0  0  0  0  0  0
    4.0025  -10.3639    0.4910 H   0  0  0  0  0  0  0  0  0  0  0  0
    4.5748   -7.9169    3.6019 H   0  0  0  0  0  0  0  0  0  0  0  0
    5.4487   -8.0388    2.1079 H   0  0  0  0  0  0  0  0  0  0  0  0
    3.8828   -7.0502    0.0144 H   0  0  0  0  0  0  0  0  0  0  0  0
    3.0195   -5.6374    0.4297 H   0  0  0  0  0  0  0  0  0  0  0  0
    4.1211   -3.9305   -0.7907 H   0  0  0  0  0  0  0  0  0  0  0  0
    6.1522   -2.5353   -1.1293 H   0  0  0  0  0  0  0  0  0  0  0  0
    8.3341   -3.1743   -0.0603 H   0  0  0  0  0  0  0  0  0  0  0  0
    8.4357   -5.2410    1.3582 H   0  0  0  0  0  0  0  0  0  0  0  0
    6.5630   -6.5396    1.7221 H   0  0  0  0  0  0  0  0  0  0  0  0
    0.9817   -8.5174    4.9206 H   0  0  0  0  0  0  0  0  0  0  0  0
  1  2  1  0
  1 22  1  0
  1 23  1  0
  1 24  1  0
  2  7  1  0
  2  3  1  0
  2 44  1  1
  3  4  1  0
  3 25  1  0
  3 26  1  0
  4  5  1  0
  4 27  1  0
  4 28  1  0
  5 19  1  0
  5  6  1  0
  5 29  1  6
  6  7  1  0
  6  8  1  0
  6 30  1  6
  7 31  1  0
  7 32  1  0
  8  9  1  0
  8 10  1  0
  8 33  1  1
  9 34  1  0
 10 11  1  0
 10 35  1  0
 10 36  1  0
 11 12  1  0
 11 19  1  0
 12 13  1  0
 12 37  1  0
 12 38  1  0
 13 18  1  0
 13 14  2  0
 14 15  1  0
 14 39  1  0
 15 16  2  0
 15 40  1  0
 16 17  1  0
 16 41  1  0
 17 18  2  0
 17 42  1  0
 18 43  1  0
 19 20  2  0
 19 21  2  0
M  CHG  1   2   1
M  END
>  <i_m_ct_stereo_status>  (53) 
1

>  <s_m_source_file>  (53) 
/var/tmp/pbs.5076255.sched01/tmp3_il56_a/09f63jmog.sdf

>  <i_m_source_file_index>  (53) 
21

>  <i_lp_mmshare_version>  (53) 
48012

>  <i_f3d_flags>  (53) 
0

>  <s_epik_input>  (53) 
W0NIMl0xW0NIMl1OKFtDSDNdKVtDSDJdW0NAQEhdKFtDQEBIXTEyKVtDQEBIXShbT0hdKVtDSDJdTihTMig9Tyk9TylbQ0gyXWMzW2NIXVtjSF1bY0hdW2NIXVtjSF0z

>  <s_epik_cmdline>  (53) 
J2VwaWtfcHl0aG9uJywgJy1waHQnLCAnMi4wJywgJy1waCcsICc3LjAnLCAnLXRuJywgJzgnLCAnLW1hJywgJzIwMCcsICctaW1hZScsICc8aW5maWxlLm1hZT4nLCAnLW9tYWUnLCAnPG91dGZpbGUubWFlPic=

>  <r_epik_Ionization_Penalty>  (53) 
0.0317795

>  <r_epik_Ionization_Penalty_Charging>  (53) 
0.0317769

>  <r_epik_Ionization_Penalty_Neutral>  (53) 
2.66943e-06

>  <r_epik_State_Penalty>  (53) 
0.0262842

>  <r_epik_Charging_Adjusted_Penalty>  (53) 
0.0580611

>  <i_epik_Tot_Q>  (53) 
1

>  <i_epik_Tot_abs_Q>  (53) 
1

>  <s_lp_Force_Field>  (53) 
OPLS3e

>  <r_lp_Energy>  (53) 
45.7845

>  <b_lp_Chiralities_Consistent>  (53) 
1

>  <s_lp_Variant>  (53) 
13:0-1

>  <s_i_glide_gridfile>  (53) 
pfpi4k_grid

>  <i_i_glide_lignum>  (53) 
21

>  <i_i_glide_rotatable_bonds>  (53) 
3

>  <r_i_docking_score>  (53) 
-4.66018

>  <r_i_glide_ligand_efficiency>  (53) 
-0.221913

>  <r_i_glide_ligand_efficiency_sa>  (53) 
-0.612242

>  <r_i_glide_ligand_efficiency_ln>  (53) 
-1.15222

>  <r_i_glide_gscore>  (53) 
-4.66018

>  <r_i_glide_lipo>  (53) 
-0.713404

>  <r_i_glide_hbond>  (53) 
-0.16

>  <r_i_glide_metal>  (53) 
-0

>  <r_i_glide_rewards>  (53) 
-1.81154

>  <r_i_glide_evdw>  (53) 
-20.0702

>  <r_i_glide_ecoul>  (53) 
-8.33355

>  <r_i_glide_erotb>  (53) 
0.382439

>  <r_i_glide_esite>  (53) 
-0.104128

>  <r_i_glide_emodel>  (53) 
-44.325

>  <r_i_glide_energy>  (53) 
-28.4037

>  <r_i_glide_einternal>  (53) 
2.17165

>  <r_i_glide_intrahb_reward>  (53) 
-0.5

>  <i_i_glide_confnum>  (53) 
3

>  <i_i_glide_posenum>  (53) 
21

>  <r_i_glide_eff_state_penalty>  (53) 
0

>  <ligand_id>  (53) 
13

>  <original_smiles>  (53) 
CN1CCC2C(C1)C(O)CN(Cc1ccccc1)S2(=O)=O

>  <smiles>  (53) 
[H]OC1([H])C([H])([H])N(C([H])([H])c2c([H])c([H])c([H])c([H])c2[H])S(=O)(=O)C2([H])C([H])([H])C([H])([H])[N+]([H])(C([H])([H])[H])C([H])([H])C12[H]

$$$$
13:0:1
     RDKit          3D

 44 46  0  0  1  0  0  0  0  0999 V2000
    1.7348  -10.2269    6.0921 C   0  0  0  0  0  0  0  0  0  0  0  0
    1.7315   -9.5874    4.7598 N   0  0  2  0  0  0  0  0  0  0  0  0
    0.9142  -10.3372    3.7766 C   0  0  0  0  0  0  0  0  0  0  0  0
    0.6702   -9.4945    2.5106 C   0  0  0  0  0  0  0  0  0  0  0  0
    1.8898   -8.6504    2.0820 C   0  0  2  0  0  0  0  0  0  0  0  0
    3.2010   -9.1639    2.7284 C   0  0  2  0  0  0  0  0  0  0  0  0
    3.1040   -9.2841    4.2737 C   0  0  0  0  0  0  0  0  0  0  0  0
    4.4444   -8.3492    2.2933 C   0  0  1  0  0  0  0  0  0  0  0  0
    4.8058   -8.6848    0.9635 O   0  0  0  0  0  0  0  0  0  0  0  0
    4.3342   -6.8077    2.4703 C   0  0  0  0  0  0  0  0  0  0  0  0
    3.1201   -6.2515    1.8344 N   0  0  0  0  0  0  0  0  0  0  0  0
    3.2108   -5.9611    0.3877 C   0  0  0  0  0  0  0  0  0  0  0  0
    3.9190   -4.6654    0.0526 C   0  0  0  0  0  0  0  0  0  0  0  0
    3.1684   -3.5348   -0.3314 C   0  0  0  0  0  0  0  0  0  0  0  0
    3.8225   -2.3315   -0.6585 C   0  0  0  0  0  0  0  0  0  0  0  0
    5.2291   -2.2553   -0.5946 C   0  0  0  0  0  0  0  0  0  0  0  0
    5.9807   -3.3894   -0.2313 C   0  0  0  0  0  0  0  0  0  0  0  0
    5.3285   -4.5964    0.0731 C   0  0  0  0  0  0  0  0  0  0  0  0
    1.6464   -6.8689    2.4549 S   0  0  0  0  0  0  0  0  0  0  0  0
    0.5278   -6.3333    1.6621 O   0  0  0  0  0  0  0  0  0  0  0  0
    1.6636   -6.6918    3.9141 O   0  0  0  0  0  0  0  0  0  0  0  0
    2.2072  -11.2064    6.0377 H   0  0  0  0  0  0  0  0  0  0  0  0
    0.7159  -10.3295    6.4700 H   0  0  0  0  0  0  0  0  0  0  0  0
    2.2970   -9.6311    6.8106 H   0  0  0  0  0  0  0  0  0  0  0  0
    1.4224  -11.2706    3.5231 H   0  0  0  0  0  0  0  0  0  0  0  0
   -0.0506  -10.6104    4.2088 H   0  0  0  0  0  0  0  0  0  0  0  0
    0.4134  -10.1857    1.7109 H   0  0  0  0  0  0  0  0  0  0  0  0
   -0.1979   -8.8454    2.6508 H   0  0  0  0  0  0  0  0  0  0  0  0
    1.9787   -8.7054    0.9956 H   0  0  0  0  0  0  0  0  0  0  0  0
    3.3458  -10.1827    2.3603 H   0  0  0  0  0  0  0  0  0  0  0  0
    3.4433   -8.3784    4.7779 H   0  0  0  0  0  0  0  0  0  0  0  0
    3.7891  -10.0736    4.5895 H   0  0  0  0  0  0  0  0  0  0  0  0
    5.2939   -8.6765    2.8990 H   0  0  0  0  0  0  0  0  0  0  0  0
    4.8698   -9.6296    0.8925 H   0  0  0  0  0  0  0  0  0  0  0  0
    4.2937   -6.5717    3.5339 H   0  0  0  0  0  0  0  0  0  0  0  0
    5.2322   -6.3129    2.1221 H   0  0  0  0  0  0  0  0  0  0  0  0
    3.7315   -6.7618   -0.1246 H   0  0  0  0  0  0  0  0  0  0  0  0
    2.2136   -5.9334   -0.0552 H   0  0  0  0  0  0  0  0  0  0  0  0
    2.0922   -3.5899   -0.3965 H   0  0  0  0  0  0  0  0  0  0  0  0
    3.2347   -1.4730   -0.9478 H   0  0  0  0  0  0  0  0  0  0  0  0
    5.7250   -1.3291   -0.8284 H   0  0  0  0  0  0  0  0  0  0  0  0
    7.0565   -3.3451   -0.1822 H   0  0  0  0  0  0  0  0  0  0  0  0
    5.9173   -5.4684    0.3078 H   0  0  0  0  0  0  0  0  0  0  0  0
    1.2719   -8.6877    4.8665 H   0  0  0  0  0  0  0  0  0  0  0  0
  1  2  1  0
  1 22  1  0
  1 23  1  0
  1 24  1  0
  2  7  1  0
  2  3  1  0
  2 44  1  1
  3  4  1  0
  3 25  1  0
  3 26  1  0
  4  5  1  0
  4 27  1  0
  4 28  1  0
  5 19  1  0
  5  6  1  0
  5 29  1  6
  6  7  1  0
  6  8  1  0
  6 30  1  6
  7 31  1  0
  7 32  1  0
  8  9  1  0
  8 10  1  0
  8 33  1  1
  9 34  1  0
 10 11  1  0
 10 35  1  0
 10 36  1  0
 11 12  1  0
 11 19  1  0
 12 13  1  0
 12 37  1  0
 12 38  1  0
 13 18  1  0
 13 14  2  0
 14 15  1  0
 14 39  1  0
 15 16  2  0
 15 40  1  0
 16 17  1  0
 16 41  1  0
 17 18  2  0
 17 42  1  0
 18 43  1  0
 19 20  2  0
 19 21  2  0
M  CHG  1   2   1
M  END
>  <i_m_ct_stereo_status>  (54) 
1

>  <s_m_source_file>  (54) 
/var/tmp/pbs.5076255.sched01/tmp3_il56_a/09f63jmog.sdf

>  <i_m_source_file_index>  (54) 
21

>  <i_lp_mmshare_version>  (54) 
48012

>  <i_f3d_flags>  (54) 
0

>  <s_epik_input>  (54) 
W0NIMl0xW0NIMl1OKFtDSDNdKVtDSDJdW0NAQEhdKFtDQEBIXTEyKVtDQEBIXShbT0hdKVtDSDJdTihTMig9Tyk9TylbQ0gyXWMzW2NIXVtjSF1bY0hdW2NIXVtjSF0z

>  <s_epik_cmdline>  (54) 
J2VwaWtfcHl0aG9uJywgJy1waHQnLCAnMi4wJywgJy1waCcsICc3LjAnLCAnLXRuJywgJzgnLCAnLW1hJywgJzIwMCcsICctaW1hZScsICc8aW5maWxlLm1hZT4nLCAnLW9tYWUnLCAnPG91dGZpbGUubWFlPic=

>  <r_epik_Ionization_Penalty>  (54) 
0.0317795

>  <r_epik_Ionization_Penalty_Charging>  (54) 
0.0317769

>  <r_epik_Ionization_Penalty_Neutral>  (54) 
2.66943e-06

>  <r_epik_State_Penalty>  (54) 
0.0262842

>  <r_epik_Charging_Adjusted_Penalty>  (54) 
0.0580611

>  <i_epik_Tot_Q>  (54) 
1

>  <i_epik_Tot_abs_Q>  (54) 
1

>  <s_lp_Force_Field>  (54) 
OPLS3e

>  <r_lp_Energy>  (54) 
45.7845

>  <b_lp_Chiralities_Consistent>  (54) 
1

>  <s_lp_Variant>  (54) 
13:0-1

>  <s_i_glide_gridfile>  (54) 
pfpi4k_grid

>  <i_i_glide_lignum>  (54) 
21

>  <i_i_glide_rotatable_bonds>  (54) 
3

>  <r_i_docking_score>  (54) 
-3.89148

>  <r_i_glide_ligand_efficiency>  (54) 
-0.185309

>  <r_i_glide_ligand_efficiency_sa>  (54) 
-0.511253

>  <r_i_glide_ligand_efficiency_ln>  (54) 
-0.962161

>  <r_i_glide_gscore>  (54) 
-3.89148

>  <r_i_glide_lipo>  (54) 
-0.16958

>  <r_i_glide_hbond>  (54) 
0

>  <r_i_glide_metal>  (54) 
-0

>  <r_i_glide_rewards>  (54) 
-1.82176

>  <r_i_glide_evdw>  (54) 
-19.9305

>  <r_i_glide_ecoul>  (54) 
-7.53343

>  <r_i_glide_erotb>  (54) 
0.382439

>  <r_i_glide_esite>  (54) 
-0.156044

>  <r_i_glide_emodel>  (54) 
-42.3337

>  <r_i_glide_energy>  (54) 
-27.464

>  <r_i_glide_einternal>  (54) 
1.44841

>  <r_i_glide_intrahb_reward>  (54) 
-0.5

>  <i_i_glide_confnum>  (54) 
4

>  <i_i_glide_posenum>  (54) 
34

>  <r_i_glide_eff_state_penalty>  (54) 
0

>  <ligand_id>  (54) 
13

>  <original_smiles>  (54) 
CN1CCC2C(C1)C(O)CN(Cc1ccccc1)S2(=O)=O

>  <smiles>  (54) 
[H]OC1([H])C([H])([H])N(C([H])([H])c2c([H])c([H])c([H])c([H])c2[H])S(=O)(=O)C2([H])C([H])([H])C([H])([H])[N+]([H])(C([H])([H])[H])C([H])([H])C12[H]

$$$$
13:0:2
     RDKit          3D

 44 46  0  0  1  0  0  0  0  0999 V2000
    5.0628   -3.7814    5.2425 C   0  0  0  0  0  0  0  0  0  0  0  0
    4.8823   -4.0147    3.7938 N   0  0  2  0  0  0  0  0  0  0  0  0
    5.4762   -5.2928    3.3442 C   0  0  0  0  0  0  0  0  0  0  0  0
    5.0077   -5.6571    1.9234 C   0  0  0  0  0  0  0  0  0  0  0  0
    4.8814   -4.4437    0.9886 C   0  0  2  0  0  0  0  0  0  0  0  0
    5.6818   -3.2222    1.5100 C   0  0  2  0  0  0  0  0  0  0  0  0
    5.3064   -2.8529    2.9697 C   0  0  0  0  0  0  0  0  0  0  0  0
    5.5976   -1.9936    0.5666 C   0  0  1  0  0  0  0  0  0  0  0  0
    6.4254   -2.1821   -0.5752 O   0  0  0  0  0  0  0  0  0  0  0  0
    4.1316   -1.5803    0.2386 C   0  0  0  0  0  0  0  0  0  0  0  0
    3.3518   -2.6790   -0.3835 N   0  0  0  0  0  0  0  0  0  0  0  0
    3.5865   -2.9865   -1.8261 C   0  0  0  0  0  0  0  0  0  0  0  0
    3.5250   -1.8049   -2.7883 C   0  0  0  0  0  0  0  0  0  0  0  0
    2.6325   -1.7922   -3.8818 C   0  0  0  0  0  0  0  0  0  0  0  0
    2.5984   -0.6569   -4.7181 C   0  0  0  0  0  0  0  0  0  0  0  0
    3.3504    0.4975   -4.4789 C   0  0  0  0  0  0  0  0  0  0  0  0
    4.2122    0.4601   -3.4068 C   0  0  0  0  0  0  0  0  0  0  0  0
    4.3781   -0.6912   -2.6426 C   0  0  0  0  0  0  0  0  0  0  0  0
    3.1104   -3.9971    0.6940 S   0  0  0  0  0  0  0  0  0  0  0  0
    2.4052   -5.0796   -0.0042 O   0  0  0  0  0  0  0  0  0  0  0  0
    2.5572   -3.4449    1.9381 O   0  0  0  0  0  0  0  0  0  0  0  0
    6.1168   -3.7115    5.4945 H   0  0  0  0  0  0  0  0  0  0  0  0
    4.6313   -4.5896    5.8291 H   0  0  0  0  0  0  0  0  0  0  0  0
    4.5809   -2.8571    5.5527 H   0  0  0  0  0  0  0  0  0  0  0  0
    6.5589   -5.2064    3.3866 H   0  0  0  0  0  0  0  0  0  0  0  0
    5.2173   -6.0956    4.0294 H   0  0  0  0  0  0  0  0  0  0  0  0
    5.7087   -6.3715    1.4936 H   0  0  0  0  0  0  0  0  0  0  0  0
    4.0566   -6.1827    1.9684 H   0  0  0  0  0  0  0  0  0  0  0  0
    5.2667   -4.7210    0.0128 H   0  0  0  0  0  0  0  0  0  0  0  0
    6.7321   -3.5173    1.5309 H   0  0  0  0  0  0  0  0  0  0  0  0
    4.5211   -2.1023    3.0236 H   0  0  0  0  0  0  0  0  0  0  0  0
    6.1639   -2.3756    3.4248 H   0  0  0  0  0  0  0  0  0  0  0  0
    6.0664   -1.1357    1.0524 H   0  0  0  0  0  0  0  0  0  0  0  0
    6.1103   -2.9160   -1.0840 H   0  0  0  0  0  0  0  0  0  0  0  0
    3.6310   -1.2707    1.1496 H   0  0  0  0  0  0  0  0  0  0  0  0
    4.0058   -0.6230   -0.2509 H   0  0  0  0  0  0  0  0  0  0  0  0
    4.5413   -3.4858   -1.9696 H   0  0  0  0  0  0  0  0  0  0  0  0
    2.8371   -3.7124   -2.1547 H   0  0  0  0  0  0  0  0  0  0  0  0
    1.9793   -2.6391   -4.0696 H   0  0  0  0  0  0  0  0  0  0  0  0
    1.8802   -0.5990   -5.5167 H   0  0  0  0  0  0  0  0  0  0  0  0
    3.2620    1.3800   -5.0871 H   0  0  0  0  0  0  0  0  0  0  0  0
    4.7969    1.3395   -3.1540 H   0  0  0  0  0  0  0  0  0  0  0  0
    5.1663   -0.6358   -1.9306 H   0  0  0  0  0  0  0  0  0  0  0  0
    3.8920   -4.1062    3.6386 H   0  0  0  0  0  0  0  0  0  0  0  0
  1  2  1  0
  1 22  1  0
  1 23  1  0
  1 24  1  0
  2  7  1  0
  2  3  1  0
  2 44  1  1
  3  4  1  0
  3 25  1  0
  3 26  1  0
  4  5  1  0
  4 27  1  0
  4 28  1  0
  5 19  1  0
  5  6  1  0
  5 29  1  6
  6  7  1  0
  6  8  1  0
  6 30  1  1
  7 31  1  0
  7 32  1  0
  8  9  1  0
  8 10  1  0
  8 33  1  1
  9 34  1  0
 10 11  1  0
 10 35  1  0
 10 36  1  0
 11 12  1  0
 11 19  1  0
 12 13  1  0
 12 37  1  0
 12 38  1  0
 13 18  1  0
 13 14  2  0
 14 15  1  0
 14 39  1  0
 15 16  2  0
 15 40  1  0
 16 17  1  0
 16 41  1  0
 17 18  2  0
 17 42  1  0
 18 43  1  0
 19 20  2  0
 19 21  2  0
M  CHG  1   2   1
M  END
>  <i_m_ct_stereo_status>  (55) 
1

>  <s_m_source_file>  (55) 
/var/tmp/pbs.5076255.sched01/tmp3_il56_a/09f63jmog.sdf

>  <i_m_source_file_index>  (55) 
21

>  <i_lp_mmshare_version>  (55) 
48012

>  <i_f3d_flags>  (55) 
0

>  <s_epik_input>  (55) 
W0NIMl0xW0NIMl1OKFtDSDNdKVtDSDJdW0NAQEhdKFtDQEBIXTEyKVtDQEBIXShbT0hdKVtDSDJdTihTMig9Tyk9TylbQ0gyXWMzW2NIXVtjSF1bY0hdW2NIXVtjSF0z

>  <s_epik_cmdline>  (55) 
J2VwaWtfcHl0aG9uJywgJy1waHQnLCAnMi4wJywgJy1waCcsICc3LjAnLCAnLXRuJywgJzgnLCAnLW1hJywgJzIwMCcsICctaW1hZScsICc8aW5maWxlLm1hZT4nLCAnLW9tYWUnLCAnPG91dGZpbGUubWFlPic=

>  <r_epik_Ionization_Penalty>  (55) 
0.0317795

>  <r_epik_Ionization_Penalty_Charging>  (55) 
0.0317769

>  <r_epik_Ionization_Penalty_Neutral>  (55) 
2.66943e-06

>  <r_epik_State_Penalty>  (55) 
0.0262842

>  <r_epik_Charging_Adjusted_Penalty>  (55) 
0.0580611

>  <i_epik_Tot_Q>  (55) 
1

>  <i_epik_Tot_abs_Q>  (55) 
1

>  <s_lp_Force_Field>  (55) 
OPLS3e

>  <r_lp_Energy>  (55) 
45.7845

>  <b_lp_Chiralities_Consistent>  (55) 
1

>  <s_lp_Variant>  (55) 
13:0-1

>  <s_i_glide_gridfile>  (55) 
pfpi4k_grid

>  <i_i_glide_lignum>  (55) 
21

>  <i_i_glide_rotatable_bonds>  (55) 
3

>  <r_i_docking_score>  (55) 
-2.82857

>  <r_i_glide_ligand_efficiency>  (55) 
-0.134694

>  <r_i_glide_ligand_efficiency_sa>  (55) 
-0.37161

>  <r_i_glide_ligand_efficiency_ln>  (55) 
-0.699358

>  <r_i_glide_gscore>  (55) 
-2.82857

>  <r_i_glide_lipo>  (55) 
-0.482162

>  <r_i_glide_hbond>  (55) 
-0.0368013

>  <r_i_glide_metal>  (55) 
-0

>  <r_i_glide_rewards>  (55) 
-1.78577

>  <r_i_glide_evdw>  (55) 
-7.05131

>  <r_i_glide_ecoul>  (55) 
-2.9061

>  <r_i_glide_erotb>  (55) 
0.382439

>  <r_i_glide_esite>  (55) 
-0.117796

>  <r_i_glide_emodel>  (55) 
-19.9047

>  <r_i_glide_energy>  (55) 
-9.95741

>  <r_i_glide_einternal>  (55) 
0.716485

>  <r_i_glide_intrahb_reward>  (55) 
-0.5

>  <i_i_glide_confnum>  (55) 
4

>  <i_i_glide_posenum>  (55) 
1

>  <r_i_glide_eff_state_penalty>  (55) 
0

>  <ligand_id>  (55) 
13

>  <original_smiles>  (55) 
CN1CCC2C(C1)C(O)CN(Cc1ccccc1)S2(=O)=O

>  <smiles>  (55) 
[H]OC1([H])C([H])([H])N(C([H])([H])c2c([H])c([H])c([H])c([H])c2[H])S(=O)(=O)C2([H])C([H])([H])C([H])([H])[N+]([H])(C([H])([H])[H])C([H])([H])C12[H]

$$$$
13:1:0
     RDKit          3D

 43 45  0  0  1  0  0  0  0  0999 V2000
    3.8466   -9.5482    1.7355 C   0  0  0  0  0  0  0  0  0  0  0  0
    4.0241   -8.1385    1.4073 N   0  0  0  0  0  0  0  0  0  0  0  0
    5.4595   -7.8458    1.3215 C   0  0  0  0  0  0  0  0  0  0  0  0
    5.7307   -6.3587    1.0159 C   0  0  0  0  0  0  0  0  0  0  0  0
    4.9896   -5.4580    2.0197 C   0  0  2  0  0  0  0  0  0  0  0  0
    3.4945   -5.8244    2.0888 C   0  0  2  0  0  0  0  0  0  0  0  0
    3.3693   -7.3240    2.4299 C   0  0  0  0  0  0  0  0  0  0  0  0
    2.7097   -5.4171    0.8087 C   0  0  1  0  0  0  0  0  0  0  0  0
    1.3657   -5.8639    0.9074 O   0  0  0  0  0  0  0  0  0  0  0  0
    2.7495   -3.8883    0.5559 C   0  0  0  0  0  0  0  0  0  0  0  0
    4.1359   -3.4547    0.3191 N   0  0  0  0  0  0  0  0  0  0  0  0
    4.6612   -3.6789   -1.0405 C   0  0  0  0  0  0  0  0  0  0  0  0
    4.1425   -2.6858   -2.0565 C   0  0  0  0  0  0  0  0  0  0  0  0
    4.6902   -1.3922   -2.1178 C   0  0  0  0  0  0  0  0  0  0  0  0
    4.2110   -0.4680   -3.0709 C   0  0  0  0  0  0  0  0  0  0  0  0
    3.1760   -0.8396   -3.9521 C   0  0  0  0  0  0  0  0  0  0  0  0
    2.6254   -2.1304   -3.8797 C   0  0  0  0  0  0  0  0  0  0  0  0
    3.1068   -3.0493   -2.9391 C   0  0  0  0  0  0  0  0  0  0  0  0
    5.1943   -3.6632    1.6615 S   0  0  0  0  0  0  0  0  0  0  0  0
    4.6036   -2.9184    2.7823 O   0  0  0  0  0  0  0  0  0  0  0  0
    6.5664   -3.3862    1.2207 O   0  0  0  0  0  0  0  0  0  0  0  0
    4.3174  -10.1622    0.9729 H   0  0  0  0  0  0  0  0  0  0  0  0
    2.7894   -9.8137    1.7719 H   0  0  0  0  0  0  0  0  0  0  0  0
    4.2972   -9.8121    2.6928 H   0  0  0  0  0  0  0  0  0  0  0  0
    5.9683   -8.1333    2.2439 H   0  0  0  0  0  0  0  0  0  0  0  0
    5.8692   -8.4661    0.5233 H   0  0  0  0  0  0  0  0  0  0  0  0
    6.8008   -6.1567    1.0405 H   0  0  0  0  0  0  0  0  0  0  0  0
    5.4112   -6.1480    0.0003 H   0  0  0  0  0  0  0  0  0  0  0  0
    5.4405   -5.6080    3.0020 H   0  0  0  0  0  0  0  0  0  0  0  0
    3.0483   -5.2685    2.9138 H   0  0  0  0  0  0  0  0  0  0  0  0
    2.3203   -7.6073    2.5145 H   0  0  0  0  0  0  0  0  0  0  0  0
    3.8193   -7.5163    3.4068 H   0  0  0  0  0  0  0  0  0  0  0  0
    3.1269   -5.9348   -0.0578 H   0  0  0  0  0  0  0  0  0  0  0  0
    1.3850   -6.8086    0.9454 H   0  0  0  0  0  0  0  0  0  0  0  0
    2.1358   -3.6019   -0.2950 H   0  0  0  0  0  0  0  0  0  0  0  0
    2.3482   -3.3503    1.4177 H   0  0  0  0  0  0  0  0  0  0  0  0
    5.7489   -3.6125   -1.0421 H   0  0  0  0  0  0  0  0  0  0  0  0
    4.4295   -4.6863   -1.3684 H   0  0  0  0  0  0  0  0  0  0  0  0
    5.4724   -1.1106   -1.4302 H   0  0  0  0  0  0  0  0  0  0  0  0
    4.6112    0.5295   -3.0985 H   0  0  0  0  0  0  0  0  0  0  0  0
    2.7820   -0.1234   -4.6565 H   0  0  0  0  0  0  0  0  0  0  0  0
    1.8028   -2.4299   -4.5066 H   0  0  0  0  0  0  0  0  0  0  0  0
    2.6510   -4.0209   -2.8967 H   0  0  0  0  0  0  0  0  0  0  0  0
  1  2  1  0
  1 22  1  0
  1 23  1  0
  1 24  1  0
  2  7  1  0
  2  3  1  0
  3  4  1  0
  3 25  1  0
  3 26  1  0
  4  5  1  0
  4 27  1  0
  4 28  1  0
  5 19  1  0
  5  6  1  0
  5 29  1  1
  6  7  1  0
  6  8  1  0
  6 30  1  1
  7 31  1  0
  7 32  1  0
  8  9  1  0
  8 10  1  0
  8 33  1  6
  9 34  1  0
 10 11  1  0
 10 35  1  0
 10 36  1  0
 11 12  1  0
 11 19  1  0
 12 13  1  0
 12 37  1  0
 12 38  1  0
 13 18  1  0
 13 14  2  0
 14 15  1  0
 14 39  1  0
 15 16  2  0
 15 40  1  0
 16 17  1  0
 16 41  1  0
 17 18  2  0
 17 42  1  0
 18 43  1  0
 19 20  2  0
 19 21  2  0
M  END
>  <i_m_ct_stereo_status>  (56) 
1

>  <s_m_source_file>  (56) 
/var/tmp/pbs.5076255.sched01/tmp3_il56_a/09f63jmog.sdf

>  <i_m_source_file_index>  (56) 
22

>  <i_lp_mmshare_version>  (56) 
48012

>  <i_f3d_flags>  (56) 
0

>  <s_epik_input>  (56) 
W0NIMl0xW0NIMl1OKFtDSDNdKVtDSDJdW0NAQEhdKFtDQEBIXTEyKVtDQEBIXShbT0hdKVtDSDJdTihTMig9Tyk9TylbQ0gyXWMzW2NIXVtjSF1bY0hdW2NIXVtjSF0z

>  <s_epik_cmdline>  (56) 
J2VwaWtfcHl0aG9uJywgJy1waHQnLCAnMi4wJywgJy1waCcsICc3LjAnLCAnLXRuJywgJzgnLCAnLW1hJywgJzIwMCcsICctaW1hZScsICc8aW5maWxlLm1hZT4nLCAnLW9tYWUnLCAnPG91dGZpbGUubWFlPic=

>  <r_epik_Ionization_Penalty>  (56) 
1.74919

>  <r_epik_Ionization_Penalty_Charging>  (56) 
0

>  <r_epik_Ionization_Penalty_Neutral>  (56) 
1.74919

>  <r_epik_State_Penalty>  (56) 
1.8589

>  <r_epik_Charging_Adjusted_Penalty>  (56) 
1.8589

>  <i_epik_Tot_Q>  (56) 
0

>  <i_epik_Tot_abs_Q>  (56) 
0

>  <s_lp_Force_Field>  (56) 
OPLS3e

>  <r_lp_Energy>  (56) 
33.6332

>  <b_lp_Chiralities_Consistent>  (56) 
1

>  <s_lp_Variant>  (56) 
13:0-2

>  <s_i_glide_gridfile>  (56) 
pfpi4k_grid

>  <i_i_glide_lignum>  (56) 
22

>  <i_i_glide_rotatable_bonds>  (56) 
3

>  <r_i_docking_score>  (56) 
-3.88929

>  <r_i_glide_ligand_efficiency>  (56) 
-0.185204

>  <r_i_glide_ligand_efficiency_sa>  (56) 
-0.510964

>  <r_i_glide_ligand_efficiency_ln>  (56) 
-0.961619

>  <r_i_glide_gscore>  (56) 
-3.88929

>  <r_i_glide_lipo>  (56) 
-0.741577

>  <r_i_glide_hbond>  (56) 
-0.157288

>  <r_i_glide_metal>  (56) 
-0

>  <r_i_glide_rewards>  (56) 
-1.37713

>  <r_i_glide_evdw>  (56) 
-21.6509

>  <r_i_glide_ecoul>  (56) 
-6.10246

>  <r_i_glide_erotb>  (56) 
0.384623

>  <r_i_glide_esite>  (56) 
0

>  <r_i_glide_emodel>  (56) 
-34.1917

>  <r_i_glide_energy>  (56) 
-27.7534

>  <r_i_glide_einternal>  (56) 
0.859673

>  <r_i_glide_intrahb_reward>  (56) 
-0

>  <i_i_glide_confnum>  (56) 
3

>  <i_i_glide_posenum>  (56) 
8

>  <r_i_glide_eff_state_penalty>  (56) 
0

>  <ligand_id>  (56) 
13

>  <original_smiles>  (56) 
CN1CCC2C(C1)C(O)CN(Cc1ccccc1)S2(=O)=O

>  <smiles>  (56) 
[H]OC1([H])C([H])([H])N(C([H])([H])c2c([H])c([H])c([H])c([H])c2[H])S(=O)(=O)C2([H])C([H])([H])C([H])([H])N(C([H])([H])[H])C([H])([H])C12[H]

$$$$
13:1:1
     RDKit          3D

 43 45  0  0  1  0  0  0  0  0999 V2000
    3.4995   -9.5367    2.0627 C   0  0  0  0  0  0  0  0  0  0  0  0
    3.8272   -8.1707    1.6696 N   0  0  0  0  0  0  0  0  0  0  0  0
    5.2570   -8.0801    1.3439 C   0  0  0  0  0  0  0  0  0  0  0  0
    5.6767   -6.6436    0.9705 C   0  0  0  0  0  0  0  0  0  0  0  0
    5.2457   -5.6502    2.0590 C   0  0  2  0  0  0  0  0  0  0  0  0
    3.7468   -5.7996    2.3771 C   0  0  2  0  0  0  0  0  0  0  0  0
    3.4698   -7.2661    2.7631 C   0  0  0  0  0  0  0  0  0  0  0  0
    2.8218   -5.2784    1.2347 C   0  0  1  0  0  0  0  0  0  0  0  0
    1.4580   -5.4912    1.5613 O   0  0  0  0  0  0  0  0  0  0  0  0
    3.0396   -3.7687    0.9404 C   0  0  0  0  0  0  0  0  0  0  0  0
    4.4136   -3.5416    0.4680 N   0  0  0  0  0  0  0  0  0  0  0  0
    4.6637   -3.8400   -0.9521 C   0  0  0  0  0  0  0  0  0  0  0  0
    4.1483   -2.7659   -1.8918 C   0  0  0  0  0  0  0  0  0  0  0  0
    3.0926   -3.0469   -2.7838 C   0  0  0  0  0  0  0  0  0  0  0  0
    2.6230   -2.0630   -3.6644 C   0  0  0  0  0  0  0  0  0  0  0  0
    3.1918   -0.7780   -3.6476 C   0  0  0  0  0  0  0  0  0  0  0  0
    4.2324   -0.4893   -2.7487 C   0  0  0  0  0  0  0  0  0  0  0  0
    4.7196   -1.4801   -1.8757 C   0  0  0  0  0  0  0  0  0  0  0  0
    5.6341   -3.9050    1.6229 S   0  0  0  0  0  0  0  0  0  0  0  0
    5.3498   -3.0848    2.8057 O   0  0  0  0  0  0  0  0  0  0  0  0
    6.9409   -3.8261    0.9582 O   0  0  0  0  0  0  0  0  0  0  0  0
    3.7209  -10.2270    1.2543 H   0  0  0  0  0  0  0  0  0  0  0  0
    2.4371   -9.6306    2.2903 H   0  0  0  0  0  0  0  0  0  0  0  0
    4.0657   -9.8560    2.9382 H   0  0  0  0  0  0  0  0  0  0  0  0
    5.8618   -8.4369    2.1817 H   0  0  0  0  0  0  0  0  0  0  0  0
    5.4451   -8.7437    0.4960 H   0  0  0  0  0  0  0  0  0  0  0  0
    6.7549   -6.5968    0.8130 H   0  0  0  0  0  0  0  0  0  0  0  0
    5.2221   -6.3855    0.0192 H   0  0  0  0  0  0  0  0  0  0  0  0
    5.8309   -5.8609    2.9550 H   0  0  0  0  0  0  0  0  0  0  0  0
    3.5261   -5.1875    3.2529 H   0  0  0  0  0  0  0  0  0  0  0  0
    2.4168   -7.3906    3.0231 H   0  0  0  0  0  0  0  0  0  0  0  0
    4.0432   -7.5171    3.6591 H   0  0  0  0  0  0  0  0  0  0  0  0
    3.0084   -5.8516    0.3235 H   0  0  0  0  0  0  0  0  0  0  0  0
    1.3396   -5.2572    2.4716 H   0  0  0  0  0  0  0  0  0  0  0  0
    2.3399   -3.3977    0.1932 H   0  0  0  0  0  0  0  0  0  0  0  0
    2.8654   -3.1736    1.8427 H   0  0  0  0  0  0  0  0  0  0  0  0
    5.7317   -3.9432   -1.1349 H   0  0  0  0  0  0  0  0  0  0  0  0
    4.2236   -4.7982   -1.2003 H   0  0  0  0  0  0  0  0  0  0  0  0
    2.6168   -4.0093   -2.7997 H   0  0  0  0  0  0  0  0  0  0  0  0
    1.8042   -2.2946   -4.3223 H   0  0  0  0  0  0  0  0  0  0  0  0
    2.8022   -0.0075   -4.2945 H   0  0  0  0  0  0  0  0  0  0  0  0
    4.6456    0.5075   -2.7236 H   0  0  0  0  0  0  0  0  0  0  0  0
    5.5235   -1.2620   -1.1893 H   0  0  0  0  0  0  0  0  0  0  0  0
  1  2  1  0
  1 22  1  0
  1 23  1  0
  1 24  1  0
  2  7  1  0
  2  3  1  0
  3  4  1  0
  3 25  1  0
  3 26  1  0
  4  5  1  0
  4 27  1  0
  4 28  1  0
  5 19  1  0
  5  6  1  0
  5 29  1  1
  6  7  1  0
  6  8  1  0
  6 30  1  1
  7 31  1  0
  7 32  1  0
  8  9  1  0
  8 10  1  0
  8 33  1  6
  9 34  1  0
 10 11  1  0
 10 35  1  0
 10 36  1  0
 11 12  1  0
 11 19  1  0
 12 13  1  0
 12 37  1  0
 12 38  1  0
 13 18  1  0
 13 14  2  0
 14 15  1  0
 14 39  1  0
 15 16  2  0
 15 40  1  0
 16 17  1  0
 16 41  1  0
 17 18  2  0
 17 42  1  0
 18 43  1  0
 19 20  2  0
 19 21  2  0
M  END
>  <i_m_ct_stereo_status>  (57) 
1

>  <s_m_source_file>  (57) 
/var/tmp/pbs.5076255.sched01/tmp3_il56_a/09f63jmog.sdf

>  <i_m_source_file_index>  (57) 
22

>  <i_lp_mmshare_version>  (57) 
48012

>  <i_f3d_flags>  (57) 
0

>  <s_epik_input>  (57) 
W0NIMl0xW0NIMl1OKFtDSDNdKVtDSDJdW0NAQEhdKFtDQEBIXTEyKVtDQEBIXShbT0hdKVtDSDJdTihTMig9Tyk9TylbQ0gyXWMzW2NIXVtjSF1bY0hdW2NIXVtjSF0z

>  <s_epik_cmdline>  (57) 
J2VwaWtfcHl0aG9uJywgJy1waHQnLCAnMi4wJywgJy1waCcsICc3LjAnLCAnLXRuJywgJzgnLCAnLW1hJywgJzIwMCcsICctaW1hZScsICc8aW5maWxlLm1hZT4nLCAnLW9tYWUnLCAnPG91dGZpbGUubWFlPic=

>  <r_epik_Ionization_Penalty>  (57) 
1.74919

>  <r_epik_Ionization_Penalty_Charging>  (57) 
0

>  <r_epik_Ionization_Penalty_Neutral>  (57) 
1.74919

>  <r_epik_State_Penalty>  (57) 
1.8589

>  <r_epik_Charging_Adjusted_Penalty>  (57) 
1.8589

>  <i_epik_Tot_Q>  (57) 
0

>  <i_epik_Tot_abs_Q>  (57) 
0

>  <s_lp_Force_Field>  (57) 
OPLS3e

>  <r_lp_Energy>  (57) 
33.6332

>  <b_lp_Chiralities_Consistent>  (57) 
1

>  <s_lp_Variant>  (57) 
13:0-2

>  <s_i_glide_gridfile>  (57) 
pfpi4k_grid

>  <i_i_glide_lignum>  (57) 
22

>  <i_i_glide_rotatable_bonds>  (57) 
3

>  <r_i_docking_score>  (57) 
-3.80672

>  <r_i_glide_ligand_efficiency>  (57) 
-0.181273

>  <r_i_glide_ligand_efficiency_sa>  (57) 
-0.500117

>  <r_i_glide_ligand_efficiency_ln>  (57) 
-0.941205

>  <r_i_glide_gscore>  (57) 
-3.80672

>  <r_i_glide_lipo>  (57) 
-0.796532

>  <r_i_glide_hbond>  (57) 
-0.102736

>  <r_i_glide_metal>  (57) 
-0

>  <r_i_glide_rewards>  (57) 
-1.39959

>  <r_i_glide_evdw>  (57) 
-21.0333

>  <r_i_glide_ecoul>  (57) 
-5.60551

>  <r_i_glide_erotb>  (57) 
0.384623

>  <r_i_glide_esite>  (57) 
0

>  <r_i_glide_emodel>  (57) 
-32.7901

>  <r_i_glide_energy>  (57) 
-26.6388

>  <r_i_glide_einternal>  (57) 
1.00083

>  <r_i_glide_intrahb_reward>  (57) 
-0

>  <i_i_glide_confnum>  (57) 
1

>  <i_i_glide_posenum>  (57) 
2

>  <r_i_glide_eff_state_penalty>  (57) 
0

>  <ligand_id>  (57) 
13

>  <original_smiles>  (57) 
CN1CCC2C(C1)C(O)CN(Cc1ccccc1)S2(=O)=O

>  <smiles>  (57) 
[H]OC1([H])C([H])([H])N(C([H])([H])c2c([H])c([H])c([H])c([H])c2[H])S(=O)(=O)C2([H])C([H])([H])C([H])([H])N(C([H])([H])[H])C([H])([H])C12[H]

$$$$
13:1:2
     RDKit          3D

 43 45  0  0  1  0  0  0  0  0999 V2000
    2.7333    0.3592    2.4968 C   0  0  0  0  0  0  0  0  0  0  0  0
    3.6366   -0.6707    2.0012 N   0  0  0  0  0  0  0  0  0  0  0  0
    4.9742   -0.4591    2.5447 C   0  0  0  0  0  0  0  0  0  0  0  0
    5.9937   -1.4738    2.0120 C   0  0  0  0  0  0  0  0  0  0  0  0
    5.9750   -1.5555    0.4739 C   0  0  2  0  0  0  0  0  0  0  0  0
    4.5305   -1.7732   -0.0421 C   0  0  2  0  0  0  0  0  0  0  0  0
    3.6545   -0.6443    0.5379 C   0  0  0  0  0  0  0  0  0  0  0  0
    3.9994   -3.2071    0.2285 C   0  0  1  0  0  0  0  0  0  0  0  0
    2.6578   -3.3464   -0.2187 O   0  0  0  0  0  0  0  0  0  0  0  0
    4.8321   -4.2784   -0.5076 C   0  0  0  0  0  0  0  0  0  0  0  0
    6.1924   -4.3107    0.0737 N   0  0  0  0  0  0  0  0  0  0  0  0
    6.3803   -4.9789    1.3939 C   0  0  0  0  0  0  0  0  0  0  0  0
    5.9658   -6.4391    1.4303 C   0  0  0  0  0  0  0  0  0  0  0  0
    6.9302   -7.4381    1.6789 C   0  0  0  0  0  0  0  0  0  0  0  0
    6.5520   -8.7926    1.6700 C   0  0  0  0  0  0  0  0  0  0  0  0
    5.2211   -9.1542    1.3799 C   0  0  0  0  0  0  0  0  0  0  0  0
    4.2579   -8.1489    1.1653 C   0  0  0  0  0  0  0  0  0  0  0  0
    4.6189   -6.7978    1.2343 C   0  0  0  0  0  0  0  0  0  0  0  0
    7.0968   -2.8575   -0.2384 S   0  0  0  0  0  0  0  0  0  0  0  0
    7.1061   -2.6400   -1.6944 O   0  0  0  0  0  0  0  0  0  0  0  0
    8.3711   -2.8972    0.4907 O   0  0  0  0  0  0  0  0  0  0  0  0
    2.6920    0.3350    3.5841 H   0  0  0  0  0  0  0  0  0  0  0  0
    1.7190    0.2009    2.1295 H   0  0  0  0  0  0  0  0  0  0  0  0
    3.0450    1.3619    2.1952 H   0  0  0  0  0  0  0  0  0  0  0  0
    5.3241    0.5408    2.3035 H   0  0  0  0  0  0  0  0  0  0  0  0
    4.9289   -0.5322    3.6261 H   0  0  0  0  0  0  0  0  0  0  0  0
    6.9947   -1.1946    2.3351 H   0  0  0  0  0  0  0  0  0  0  0  0
    5.7589   -2.4342    2.4683 H   0  0  0  0  0  0  0  0  0  0  0  0
    6.3362   -0.5960    0.0934 H   0  0  0  0  0  0  0  0  0  0  0  0
    4.5361   -1.6445   -1.1223 H   0  0  0  0  0  0  0  0  0  0  0  0
    2.6594   -0.7675    0.1490 H   0  0  0  0  0  0  0  0  0  0  0  0
    4.0035    0.3311    0.1730 H   0  0  0  0  0  0  0  0  0  0  0  0
    3.9869   -3.3818    1.3070 H   0  0  0  0  0  0  0  0  0  0  0  0
    2.2541   -2.4880   -0.3040 H   0  0  0  0  0  0  0  0  0  0  0  0
    4.3820   -5.2454   -0.4939 H   0  0  0  0  0  0  0  0  0  0  0  0
    4.9306   -3.9783   -1.5663 H   0  0  0  0  0  0  0  0  0  0  0  0
    7.4263   -4.8905    1.6926 H   0  0  0  0  0  0  0  0  0  0  0  0
    5.8120   -4.4662    2.1640 H   0  0  0  0  0  0  0  0  0  0  0  0
    7.9632   -7.1664    1.8790 H   0  0  0  0  0  0  0  0  0  0  0  0
    7.2901   -9.5558    1.8834 H   0  0  0  0  0  0  0  0  0  0  0  0
    4.9371  -10.2008    1.3410 H   0  0  0  0  0  0  0  0  0  0  0  0
    3.2427   -8.4286    0.9155 H   0  0  0  0  0  0  0  0  0  0  0  0
    3.8735   -6.0283    1.0852 H   0  0  0  0  0  0  0  0  0  0  0  0
  1  2  1  0
  1 22  1  0
  1 23  1  0
  1 24  1  0
  2  7  1  0
  2  3  1  0
  3  4  1  0
  3 25  1  0
  3 26  1  0
  4  5  1  0
  4 27  1  0
  4 28  1  0
  5 19  1  0
  5  6  1  0
  5 29  1  6
  6  7  1  0
  6  8  1  0
  6 30  1  6
  7 31  1  0
  7 32  1  0
  8  9  1  0
  8 10  1  0
  8 33  1  1
  9 34  1  0
 10 11  1  0
 10 35  1  0
 10 36  1  0
 11 12  1  0
 11 19  1  0
 12 13  1  0
 12 37  1  0
 12 38  1  0
 13 18  1  0
 13 14  2  0
 14 15  1  0
 14 39  1  0
 15 16  2  0
 15 40  1  0
 16 17  1  0
 16 41  1  0
 17 18  2  0
 17 42  1  0
 18 43  1  0
 19 20  2  0
 19 21  2  0
M  END
>  <i_m_ct_stereo_status>  (58) 
1

>  <s_m_source_file>  (58) 
/var/tmp/pbs.5076255.sched01/tmp3_il56_a/09f63jmog.sdf

>  <i_m_source_file_index>  (58) 
22

>  <i_lp_mmshare_version>  (58) 
48012

>  <i_f3d_flags>  (58) 
0

>  <s_epik_input>  (58) 
W0NIMl0xW0NIMl1OKFtDSDNdKVtDSDJdW0NAQEhdKFtDQEBIXTEyKVtDQEBIXShbT0hdKVtDSDJdTihTMig9Tyk9TylbQ0gyXWMzW2NIXVtjSF1bY0hdW2NIXVtjSF0z

>  <s_epik_cmdline>  (58) 
J2VwaWtfcHl0aG9uJywgJy1waHQnLCAnMi4wJywgJy1waCcsICc3LjAnLCAnLXRuJywgJzgnLCAnLW1hJywgJzIwMCcsICctaW1hZScsICc8aW5maWxlLm1hZT4nLCAnLW9tYWUnLCAnPG91dGZpbGUubWFlPic=

>  <r_epik_Ionization_Penalty>  (58) 
1.74919

>  <r_epik_Ionization_Penalty_Charging>  (58) 
0

>  <r_epik_Ionization_Penalty_Neutral>  (58) 
1.74919

>  <r_epik_State_Penalty>  (58) 
1.8589

>  <r_epik_Charging_Adjusted_Penalty>  (58) 
1.8589

>  <i_epik_Tot_Q>  (58) 
0

>  <i_epik_Tot_abs_Q>  (58) 
0

>  <s_lp_Force_Field>  (58) 
OPLS3e

>  <r_lp_Energy>  (58) 
33.6332

>  <b_lp_Chiralities_Consistent>  (58) 
1

>  <s_lp_Variant>  (58) 
13:0-2

>  <s_i_glide_gridfile>  (58) 
pfpi4k_grid

>  <i_i_glide_lignum>  (58) 
22

>  <i_i_glide_rotatable_bonds>  (58) 
3

>  <r_i_docking_score>  (58) 
-3.7662

>  <r_i_glide_ligand_efficiency>  (58) 
-0.179343

>  <r_i_glide_ligand_efficiency_sa>  (58) 
-0.494794

>  <r_i_glide_ligand_efficiency_ln>  (58) 
-0.931186

>  <r_i_glide_gscore>  (58) 
-3.7662

>  <r_i_glide_lipo>  (58) 
-0.88018

>  <r_i_glide_hbond>  (58) 
-0.0980365

>  <r_i_glide_metal>  (58) 
-0

>  <r_i_glide_rewards>  (58) 
-1.46508

>  <r_i_glide_evdw>  (58) 
-23.8936

>  <r_i_glide_ecoul>  (58) 
-3.03425

>  <r_i_glide_erotb>  (58) 
0.384623

>  <r_i_glide_esite>  (58) 
-0.0577111

>  <r_i_glide_emodel>  (58) 
-30.6257

>  <r_i_glide_energy>  (58) 
-26.9278

>  <r_i_glide_einternal>  (58) 
1.5601

>  <r_i_glide_intrahb_reward>  (58) 
-0

>  <i_i_glide_confnum>  (58) 
3

>  <i_i_glide_posenum>  (58) 
7

>  <r_i_glide_eff_state_penalty>  (58) 
0

>  <ligand_id>  (58) 
13

>  <original_smiles>  (58) 
CN1CCC2C(C1)C(O)CN(Cc1ccccc1)S2(=O)=O

>  <smiles>  (58) 
[H]OC1([H])C([H])([H])N(C([H])([H])c2c([H])c([H])c([H])c([H])c2[H])S(=O)(=O)C2([H])C([H])([H])C([H])([H])N(C([H])([H])[H])C([H])([H])C12[H]

$$$$
14:0:0
     RDKit          3D

 70 77  0  0  1  0  0  0  0  0999 V2000
    5.1094   -3.9305    4.7682 C   0  0  0  0  0  0  0  0  0  0  0  0
    4.2709   -3.4660    3.5519 C   0  0  1  0  0  0  0  0  0  0  0  0
    4.2424   -1.8831    3.7192 C   0  0  0  0  0  0  0  0  0  0  0  0
    3.7393   -0.7488    2.7506 C   0  0  1  0  0  0  0  0  0  0  0  0
    4.0136    0.4862    3.3878 O   0  0  0  0  0  0  0  0  0  0  0  0
    4.4169   -0.7059    1.3839 C   0  0  1  0  0  0  0  0  0  0  0  0
    5.9226   -1.0023    1.3312 C   0  0  0  0  0  0  0  0  0  0  0  0
    6.3237   -2.4812    1.1909 C   0  0  0  0  0  0  0  0  0  0  0  0
    5.2110   -3.5314    0.8552 C   0  0  1  0  0  0  0  0  0  0  0  0
    5.9800   -4.6538    0.0732 C   0  0  0  0  0  0  0  0  0  0  0  0
    4.8130   -4.2193    2.2420 C   0  0  2  0  0  0  0  0  0  0  0  0
    4.0815   -5.6224    2.1642 C   0  0  0  0  0  0  0  0  0  0  0  0
    3.0882   -5.6201    3.3295 C   0  0  2  0  0  0  0  0  0  0  0  0
    1.6201   -6.0919    3.3296 C   0  0  1  0  0  0  0  0  0  0  0  0
    1.4804   -7.4775    3.5010 O   0  0  0  0  0  0  0  0  0  0  0  0
    1.0710   -5.3475    4.5516 C   0  0  1  0  0  0  0  0  0  0  0  0
    1.8846   -5.4104    5.7378 O   0  0  0  0  0  0  0  0  0  0  0  0
    2.0351   -4.2317    4.9344 C   0  0  1  0  0  0  0  0  0  0  0  0
    2.9322   -4.1744    3.7065 C   0  0  1  0  0  0  0  0  0  0  0  0
    4.0911   -2.8699   -0.1002 C   0  0  2  0  0  0  0  0  0  0  0  0
    2.9621   -3.8979   -0.4226 C   0  0  1  0  0  0  0  0  0  0  0  0
    2.2682   -4.2034    0.7272 O   0  0  0  0  0  0  0  0  0  0  0  0
    2.0287   -3.4279   -1.3288 O   0  0  0  0  0  0  0  0  0  0  0  0
    2.5301   -3.2593   -2.6354 C   0  0  0  0  0  0  0  0  0  0  0  0
    3.6189   -2.2026   -2.6053 C   0  0  1  0  0  0  0  0  0  0  0  0
    3.0053   -0.9690   -2.4415 O   0  0  0  0  0  0  0  0  0  0  0  0
    4.6691   -2.5228   -1.5297 C   0  0  1  0  0  0  0  0  0  0  0  0
    5.5775   -1.4477   -1.5538 O   0  0  0  0  0  0  0  0  0  0  0  0
    3.4760   -1.5786    0.5476 C   0  0  1  0  0  0  0  0  0  0  0  0
    2.3129   -1.7763    1.3336 O   0  0  0  0  0  0  0  0  0  0  0  0
    2.2842   -0.7669    2.2568 C   0  0  1  0  0  0  0  0  0  0  0  0
    1.1560   -1.0094    3.2070 N   0  0  0  0  0  0  0  0  0  0  0  0
    0.2347   -0.1783    3.7023 C   0  0  0  0  0  0  0  0  0  0  0  0
   -0.6207   -0.8033    4.4834 N   0  0  0  0  0  0  0  0  0  0  0  0
   -0.2428   -2.0984    4.4028 N   0  0  0  0  0  0  0  0  0  0  0  0
    0.7059   -2.2274    3.5410 N   0  0  0  0  0  0  0  0  0  0  0  0
    4.6156   -3.6619    5.7029 H   0  0  0  0  0  0  0  0  0  0  0  0
    6.0973   -3.4738    4.7758 H   0  0  0  0  0  0  0  0  0  0  0  0
    5.2740   -5.0070    4.7877 H   0  0  0  0  0  0  0  0  0  0  0  0
    3.7488   -1.6848    4.6646 H   0  0  0  0  0  0  0  0  0  0  0  0
    5.2855   -1.6038    3.9036 H   0  0  0  0  0  0  0  0  0  0  0  0
    3.7598    1.1929    2.8131 H   0  0  0  0  0  0  0  0  0  0  0  0
    4.3120    0.3072    0.9718 H   0  0  0  0  0  0  0  0  0  0  0  0
    6.3600   -0.4502    0.4971 H   0  0  0  0  0  0  0  0  0  0  0  0
    6.4185   -0.5380    2.1855 H   0  0  0  0  0  0  0  0  0  0  0  0
    7.0932   -2.4921    0.4203 H   0  0  0  0  0  0  0  0  0  0  0  0
    6.8712   -2.7794    2.0770 H   0  0  0  0  0  0  0  0  0  0  0  0
    5.3300   -5.3835   -0.4089 H   0  0  0  0  0  0  0  0  0  0  0  0
    6.6598   -5.2313    0.6992 H   0  0  0  0  0  0  0  0  0  0  0  0
    6.6224   -4.2578   -0.7157 H   0  0  0  0  0  0  0  0  0  0  0  0
    5.7926   -4.5509    2.5775 H   0  0  0  0  0  0  0  0  0  0  0  0
    3.6299   -5.9085    1.2176 H   0  0  0  0  0  0  0  0  0  0  0  0
    4.7924   -6.4249    2.3217 H   0  0  0  0  0  0  0  0  0  0  0  0
    3.5833   -6.1230    4.1539 H   0  0  0  0  0  0  0  0  0  0  0  0
    1.0832   -5.7849    2.4309 H   0  0  0  0  0  0  0  0  0  0  0  0
    1.9416   -7.7204    4.2897 H   0  0  0  0  0  0  0  0  0  0  0  0
   -0.0086   -5.2474    4.6984 H   0  0  0  0  0  0  0  0  0  0  0  0
    1.7515   -3.3222    5.4650 H   0  0  0  0  0  0  0  0  0  0  0  0
    2.3616   -3.7315    2.9227 H   0  0  0  0  0  0  0  0  0  0  0  0
    3.3206   -4.8631   -0.7437 H   0  0  0  0  0  0  0  0  0  0  0  0
    2.1549   -3.3751    1.1985 H   0  0  0  0  0  0  0  0  0  0  0  0
    2.9330   -4.2001   -2.9980 H   0  0  0  0  0  0  0  0  0  0  0  0
    1.6997   -2.9923   -3.2857 H   0  0  0  0  0  0  0  0  0  0  0  0
    4.0844   -2.1325   -3.5834 H   0  0  0  0  0  0  0  0  0  0  0  0
    2.3583   -1.0616   -1.7231 H   0  0  0  0  0  0  0  0  0  0  0  0
    5.2105   -3.3642   -1.9479 H   0  0  0  0  0  0  0  0  0  0  0  0
    5.1261   -0.7192   -1.1488 H   0  0  0  0  0  0  0  0  0  0  0  0
    3.0749   -0.9014   -0.1886 H   0  0  0  0  0  0  0  0  0  0  0  0
    1.9983    0.1638    1.7666 H   0  0  0  0  0  0  0  0  0  0  0  0
    0.1507    0.8492    3.3927 H   0  0  0  0  0  0  0  0  0  0  0  0
  2  1  1  1
  1 37  1  0
  1 38  1  0
  1 39  1  0
  2 11  1  0
  2 19  1  0
  2  3  1  0
  3  4  1  0
  3 40  1  0
  3 41  1  0
  4 31  1  0
  4  5  1  1
  4  6  1  0
  5 42  1  0
  6 29  1  0
  6  7  1  0
  6 43  1  6
  7  8  1  0
  7 44  1  0
  7 45  1  0
  8  9  1  0
  8 46  1  0
  8 47  1  0
  9 10  1  6
  9 11  1  0
 20  9  1  1
 10 48  1  0
 10 49  1  0
 10 50  1  0
 11 12  1  0
 11 51  1  1
 12 13  1  0
 12 52  1  0
 12 53  1  0
 13 19  1  0
 13 14  1  0
 13 54  1  1
 14 15  1  0
 14 16  1  0
 14 55  1  6
 15 56  1  0
 16 18  1  0
 16 17  1  0
 16 57  1  1
 17 18  1  0
 18 19  1  0
 18 58  1  1
 19 59  1  6
 20 27  1  0
 20 21  1  0
 20 29  1  0
 21 22  1  0
 21 23  1  0
 21 60  1  6
 22 61  1  0
 23 24  1  0
 24 25  1  0
 24 62  1  0
 24 63  1  0
 25 26  1  0
 25 27  1  0
 25 64  1  6
 26 65  1  0
 27 28  1  0
 27 66  1  6
 28 67  1  0
 29 30  1  0
 29 68  1  6
 30 31  1  0
 31 32  1  0
 31 69  1  6
 32 36  1  0
 32 33  1  0
 33 34  2  0
 33 70  1  0
 34 35  1  0
 35 36  2  0
M  END
>  <i_m_ct_stereo_status>  (59) 
1

>  <s_m_source_file>  (59) 
/var/tmp/pbs.5076255.sched01/tmp3_il56_a/09f63jmog.sdf

>  <i_m_source_file_index>  (59) 
23

>  <i_lp_mmshare_version>  (59) 
48012

>  <i_f3d_flags>  (59) 
0

>  <s_epik_input>  (59) 
W09IXVtDQEBIXTFbQ0BIXShbT0hdKVtDSDJdT1tDQEhdKFtPSF0pW0NAQF0xMltDQF0zKFtDSDNdKVtDQEhdNFtDQF0oW0NIM10pKFtDQEhdNVtDQEhdKFtDSDJdNClbQ0BASF0oW09IXSlbQ0BASF02W0NASF01TzYpW0NIMl1bQ0BAXTcoW09IXSlbQ0BASF0oW0NIMl1bQ0gyXTMpW0NAQEhdMk9bQ0BIXTduOFtjSF1ubm44

>  <s_epik_cmdline>  (59) 
J2VwaWtfcHl0aG9uJywgJy1waHQnLCAnMi4wJywgJy1waCcsICc3LjAnLCAnLXRuJywgJzgnLCAnLW1hJywgJzIwMCcsICctaW1hZScsICc8aW5maWxlLm1hZT4nLCAnLW9tYWUnLCAnPG91dGZpbGUubWFlPic=

>  <r_lp_tautomer_probability>  (59) 
1

>  <r_epik_Ionization_Penalty>  (59) 
1.27029e-06

>  <r_epik_Ionization_Penalty_Charging>  (59) 
0

>  <r_epik_Ionization_Penalty_Neutral>  (59) 
1.27029e-06

>  <r_epik_State_Penalty>  (59) 
-0

>  <r_epik_Charging_Adjusted_Penalty>  (59) 
0

>  <i_epik_Tot_Q>  (59) 
0

>  <i_epik_Tot_abs_Q>  (59) 
0

>  <s_epik_Chemistry_Notes>  (59) 
This compound contains an acetal/aminal-like group ( X-CH(R)-Y where X, Y are N, S, or O) that may be acid/base labile, releasing an aldehyde.

>  <s_lp_Force_Field>  (59) 
OPLS3e

>  <r_lp_Energy>  (59) 
116.142

>  <b_lp_Chiralities_Consistent>  (59) 
1

>  <s_lp_Variant>  (59) 
14:0-1

>  <s_i_glide_gridfile>  (59) 
pfpi4k_grid

>  <i_i_glide_lignum>  (59) 
23

>  <i_i_glide_rotatable_bonds>  (59) 
6

>  <r_i_docking_score>  (59) 
-2.86846

>  <r_i_glide_ligand_efficiency>  (59) 
-0.0796795

>  <r_i_glide_ligand_efficiency_sa>  (59) 
-0.263096

>  <r_i_glide_ligand_efficiency_ln>  (59) 
-0.625821

>  <r_i_glide_gscore>  (59) 
-2.86846

>  <r_i_glide_lipo>  (59) 
-0.593899

>  <r_i_glide_hbond>  (59) 
0

>  <r_i_glide_metal>  (59) 
-0

>  <r_i_glide_rewards>  (59) 
-0.5

>  <r_i_glide_evdw>  (59) 
-27.7064

>  <r_i_glide_ecoul>  (59) 
-7.44879

>  <r_i_glide_erotb>  (59) 
0.0797405

>  <r_i_glide_esite>  (59) 
-0.108692

>  <r_i_glide_emodel>  (59) 
-41.6672

>  <r_i_glide_energy>  (59) 
-35.1551

>  <r_i_glide_einternal>  (59) 
1.72167

>  <r_i_glide_intrahb_reward>  (59) 
-0.5

>  <i_i_glide_confnum>  (59) 
2

>  <i_i_glide_posenum>  (59) 
40

>  <r_i_glide_eff_state_penalty>  (59) 
0

>  <ligand_id>  (59) 
14

>  <original_smiles>  (59) 
CC12CC3(O)C4CCC(C)(C1CC1C(O)C5OC5C12)C1(C(O)OCC(O)C1O)C4OC3n1cnnn1

>  <smiles>  (59) 
[H]OC1([H])OC([H])([H])C([H])(O[H])C([H])(O[H])C12C1([H])OC([H])(n3nnnc3[H])C3(O[H])C([H])([H])C4(C([H])([H])[H])C5([H])C6([H])OC6([H])C([H])(O[H])C5([H])C([H])([H])C4([H])C2(C([H])([H])[H])C([H])([H])C([H])([H])C13[H]

$$$$
14:0:1
     RDKit          3D

 70 77  0  0  1  0  0  0  0  0999 V2000
    5.1122   -3.8858    4.7797 C   0  0  0  0  0  0  0  0  0  0  0  0
    4.2692   -3.4323    3.5613 C   0  0  1  0  0  0  0  0  0  0  0  0
    4.2352   -1.8478    3.7178 C   0  0  0  0  0  0  0  0  0  0  0  0
    3.7321   -0.7194    2.7392 C   0  0  1  0  0  0  0  0  0  0  0  0
    4.0211    0.5281    3.3621 O   0  0  0  0  0  0  0  0  0  0  0  0
    4.4178   -0.6915    1.3757 C   0  0  1  0  0  0  0  0  0  0  0  0
    5.9200   -0.9841    1.3218 C   0  0  0  0  0  0  0  0  0  0  0  0
    6.3244   -2.4658    1.1835 C   0  0  0  0  0  0  0  0  0  0  0  0
    5.2037   -3.5153    0.8563 C   0  0  1  0  0  0  0  0  0  0  0  0
    5.9818   -4.6455    0.0868 C   0  0  0  0  0  0  0  0  0  0  0  0
    4.8163   -4.1959    2.2571 C   0  0  2  0  0  0  0  0  0  0  0  0
    4.0844   -5.6007    2.1902 C   0  0  0  0  0  0  0  0  0  0  0  0
    3.0882   -5.5926    3.3548 C   0  0  2  0  0  0  0  0  0  0  0  0
    1.6190   -6.0583    3.3558 C   0  0  1  0  0  0  0  0  0  0  0  0
    1.4691   -7.4478    3.5180 O   0  0  0  0  0  0  0  0  0  0  0  0
    1.0728   -5.3066    4.5735 C   0  0  1  0  0  0  0  0  0  0  0  0
    1.8886   -5.3631    5.7639 O   0  0  0  0  0  0  0  0  0  0  0  0
    2.0430   -4.1859    4.9522 C   0  0  1  0  0  0  0  0  0  0  0  0
    2.9329   -4.1423    3.7213 C   0  0  1  0  0  0  0  0  0  0  0  0
    4.0959   -2.8659   -0.1104 C   0  0  2  0  0  0  0  0  0  0  0  0
    2.9703   -3.8900   -0.4302 C   0  0  1  0  0  0  0  0  0  0  0  0
    2.2866   -4.2023    0.7369 O   0  0  0  0  0  0  0  0  0  0  0  0
    2.0221   -3.4221   -1.3299 O   0  0  0  0  0  0  0  0  0  0  0  0
    2.5256   -3.2685   -2.6429 C   0  0  0  0  0  0  0  0  0  0  0  0
    3.6176   -2.2080   -2.6166 C   0  0  1  0  0  0  0  0  0  0  0  0
    3.0212   -0.9701   -2.4753 O   0  0  0  0  0  0  0  0  0  0  0  0
    4.6619   -2.5247   -1.5368 C   0  0  1  0  0  0  0  0  0  0  0  0
    5.5757   -1.4562   -1.5658 O   0  0  0  0  0  0  0  0  0  0  0  0
    3.4686   -1.5671    0.5368 C   0  0  1  0  0  0  0  0  0  0  0  0
    2.3128   -1.7609    1.3350 O   0  0  0  0  0  0  0  0  0  0  0  0
    2.2740   -0.7357    2.2394 C   0  0  1  0  0  0  0  0  0  0  0  0
    1.1450   -0.9678    3.1847 N   0  0  0  0  0  0  0  0  0  0  0  0
    0.2396   -0.1289    3.6906 C   0  0  0  0  0  0  0  0  0  0  0  0
   -0.6136   -0.7404    4.4759 N   0  0  0  0  0  0  0  0  0  0  0  0
   -0.2693   -2.0441    4.3857 N   0  0  0  0  0  0  0  0  0  0  0  0
    0.6712   -2.1796    3.5334 N   0  0  0  0  0  0  0  0  0  0  0  0
    4.6154   -3.6088    5.7119 H   0  0  0  0  0  0  0  0  0  0  0  0
    6.1024   -3.4266    4.7832 H   0  0  0  0  0  0  0  0  0  0  0  0
    5.2737   -4.9641    4.8060 H   0  0  0  0  0  0  0  0  0  0  0  0
    3.7431   -1.6403    4.6628 H   0  0  0  0  0  0  0  0  0  0  0  0
    5.2816   -1.5659    3.8969 H   0  0  0  0  0  0  0  0  0  0  0  0
    3.7758    1.2257    2.7798 H   0  0  0  0  0  0  0  0  0  0  0  0
    4.3138    0.3210    0.9575 H   0  0  0  0  0  0  0  0  0  0  0  0
    6.3592   -0.4363    0.4841 H   0  0  0  0  0  0  0  0  0  0  0  0
    6.4201   -0.5205    2.1777 H   0  0  0  0  0  0  0  0  0  0  0  0
    7.0967   -2.4832    0.4144 H   0  0  0  0  0  0  0  0  0  0  0  0
    6.8669   -2.7527    2.0724 H   0  0  0  0  0  0  0  0  0  0  0  0
    5.3280   -5.3789   -0.3841 H   0  0  0  0  0  0  0  0  0  0  0  0
    6.6600   -5.2205    0.7257 H   0  0  0  0  0  0  0  0  0  0  0  0
    6.6204   -4.2552   -0.7044 H   0  0  0  0  0  0  0  0  0  0  0  0
    5.7960   -4.5253    2.5966 H   0  0  0  0  0  0  0  0  0  0  0  0
    3.6320   -5.8933    1.2427 H   0  0  0  0  0  0  0  0  0  0  0  0
    4.7944   -6.4004    2.3536 H   0  0  0  0  0  0  0  0  0  0  0  0
    3.5819   -6.0995    4.1822 H   0  0  0  0  0  0  0  0  0  0  0  0
    1.0784   -5.7476    2.4589 H   0  0  0  0  0  0  0  0  0  0  0  0
    0.5593   -7.6576    3.6193 H   0  0  0  0  0  0  0  0  0  0  0  0
   -0.0026   -5.1944    4.7207 H   0  0  0  0  0  0  0  0  0  0  0  0
    1.7579   -3.2729    5.4691 H   0  0  0  0  0  0  0  0  0  0  0  0
    2.3645   -3.7011    2.9356 H   0  0  0  0  0  0  0  0  0  0  0  0
    3.3156   -4.8681   -0.7518 H   0  0  0  0  0  0  0  0  0  0  0  0
    2.1467   -3.3626    1.1898 H   0  0  0  0  0  0  0  0  0  0  0  0
    2.9336   -4.2140   -3.0049 H   0  0  0  0  0  0  0  0  0  0  0  0
    1.6954   -3.0028   -3.2924 H   0  0  0  0  0  0  0  0  0  0  0  0
    4.0940   -2.1633   -3.5975 H   0  0  0  0  0  0  0  0  0  0  0  0
    2.3490   -1.0578   -1.7424 H   0  0  0  0  0  0  0  0  0  0  0  0
    5.1996   -3.3735   -1.9457 H   0  0  0  0  0  0  0  0  0  0  0  0
    5.1299   -0.7161   -1.1720 H   0  0  0  0  0  0  0  0  0  0  0  0
    3.0780   -0.8955   -0.2051 H   0  0  0  0  0  0  0  0  0  0  0  0
    1.9986    0.1874    1.7403 H   0  0  0  0  0  0  0  0  0  0  0  0
    0.1713    0.9147    3.3907 H   0  0  0  0  0  0  0  0  0  0  0  0
  2  1  1  1
  1 37  1  0
  1 38  1  0
  1 39  1  0
  2 11  1  0
  2 19  1  0
  2  3  1  0
  3  4  1  0
  3 40  1  0
  3 41  1  0
  4 31  1  0
  4  5  1  1
  4  6  1  0
  5 42  1  0
  6 29  1  0
  6  7  1  0
  6 43  1  6
  7  8  1  0
  7 44  1  0
  7 45  1  0
  8  9  1  0
  8 46  1  0
  8 47  1  0
  9 10  1  6
  9 11  1  0
 20  9  1  1
 10 48  1  0
 10 49  1  0
 10 50  1  0
 11 12  1  0
 11 51  1  1
 12 13  1  0
 12 52  1  0
 12 53  1  0
 13 19  1  0
 13 14  1  0
 13 54  1  1
 14 15  1  0
 14 16  1  0
 14 55  1  6
 15 56  1  0
 16 18  1  0
 16 17  1  0
 16 57  1  1
 17 18  1  0
 18 19  1  0
 18 58  1  1
 19 59  1  6
 20 27  1  0
 20 21  1  0
 20 29  1  0
 21 22  1  0
 21 23  1  0
 21 60  1  6
 22 61  1  0
 23 24  1  0
 24 25  1  0
 24 62  1  0
 24 63  1  0
 25 26  1  0
 25 27  1  0
 25 64  1  6
 26 65  1  0
 27 28  1  0
 27 66  1  6
 28 67  1  0
 29 30  1  0
 29 68  1  6
 30 31  1  0
 31 32  1  0
 31 69  1  6
 32 36  1  0
 32 33  1  0
 33 34  2  0
 33 70  1  0
 34 35  1  0
 35 36  2  0
M  END
>  <i_m_ct_stereo_status>  (60) 
1

>  <s_m_source_file>  (60) 
/var/tmp/pbs.5076255.sched01/tmp3_il56_a/09f63jmog.sdf

>  <i_m_source_file_index>  (60) 
23

>  <i_lp_mmshare_version>  (60) 
48012

>  <i_f3d_flags>  (60) 
0

>  <s_epik_input>  (60) 
W09IXVtDQEBIXTFbQ0BIXShbT0hdKVtDSDJdT1tDQEhdKFtPSF0pW0NAQF0xMltDQF0zKFtDSDNdKVtDQEhdNFtDQF0oW0NIM10pKFtDQEhdNVtDQEhdKFtDSDJdNClbQ0BASF0oW09IXSlbQ0BASF02W0NASF01TzYpW0NIMl1bQ0BAXTcoW09IXSlbQ0BASF0oW0NIMl1bQ0gyXTMpW0NAQEhdMk9bQ0BIXTduOFtjSF1ubm44

>  <s_epik_cmdline>  (60) 
J2VwaWtfcHl0aG9uJywgJy1waHQnLCAnMi4wJywgJy1waCcsICc3LjAnLCAnLXRuJywgJzgnLCAnLW1hJywgJzIwMCcsICctaW1hZScsICc8aW5maWxlLm1hZT4nLCAnLW9tYWUnLCAnPG91dGZpbGUubWFlPic=

>  <r_lp_tautomer_probability>  (60) 
1

>  <r_epik_Ionization_Penalty>  (60) 
1.27029e-06

>  <r_epik_Ionization_Penalty_Charging>  (60) 
0

>  <r_epik_Ionization_Penalty_Neutral>  (60) 
1.27029e-06

>  <r_epik_State_Penalty>  (60) 
-0

>  <r_epik_Charging_Adjusted_Penalty>  (60) 
0

>  <i_epik_Tot_Q>  (60) 
0

>  <i_epik_Tot_abs_Q>  (60) 
0

>  <s_epik_Chemistry_Notes>  (60) 
This compound contains an acetal/aminal-like group ( X-CH(R)-Y where X, Y are N, S, or O) that may be acid/base labile, releasing an aldehyde.

>  <s_lp_Force_Field>  (60) 
OPLS3e

>  <r_lp_Energy>  (60) 
116.142

>  <b_lp_Chiralities_Consistent>  (60) 
1

>  <s_lp_Variant>  (60) 
14:0-1

>  <s_i_glide_gridfile>  (60) 
pfpi4k_grid

>  <i_i_glide_lignum>  (60) 
23

>  <i_i_glide_rotatable_bonds>  (60) 
6

>  <r_i_docking_score>  (60) 
-2.74113

>  <r_i_glide_ligand_efficiency>  (60) 
-0.0761426

>  <r_i_glide_ligand_efficiency_sa>  (60) 
-0.251417

>  <r_i_glide_ligand_efficiency_ln>  (60) 
-0.598042

>  <r_i_glide_gscore>  (60) 
-2.74113

>  <r_i_glide_lipo>  (60) 
-0.599687

>  <r_i_glide_hbond>  (60) 
-0.0253718

>  <r_i_glide_metal>  (60) 
-0

>  <r_i_glide_rewards>  (60) 
-0.5

>  <r_i_glide_evdw>  (60) 
-27.6141

>  <r_i_glide_ecoul>  (60) 
-7.42998

>  <r_i_glide_erotb>  (60) 
0.0797405

>  <r_i_glide_esite>  (60) 
-0.110245

>  <r_i_glide_emodel>  (60) 
-40.8484

>  <r_i_glide_energy>  (60) 
-35.0441

>  <r_i_glide_einternal>  (60) 
2.04739

>  <r_i_glide_intrahb_reward>  (60) 
-0.5

>  <i_i_glide_confnum>  (60) 
2

>  <i_i_glide_posenum>  (60) 
7

>  <r_i_glide_eff_state_penalty>  (60) 
0

>  <ligand_id>  (60) 
14

>  <original_smiles>  (60) 
CC12CC3(O)C4CCC(C)(C1CC1C(O)C5OC5C12)C1(C(O)OCC(O)C1O)C4OC3n1cnnn1

>  <smiles>  (60) 
[H]OC1([H])OC([H])([H])C([H])(O[H])C([H])(O[H])C12C1([H])OC([H])(n3nnnc3[H])C3(O[H])C([H])([H])C4(C([H])([H])[H])C5([H])C6([H])OC6([H])C([H])(O[H])C5([H])C([H])([H])C4([H])C2(C([H])([H])[H])C([H])([H])C([H])([H])C13[H]

$$$$
14:0:2
     RDKit          3D

 70 77  0  0  1  0  0  0  0  0999 V2000
    5.1122   -3.9397    4.7669 C   0  0  0  0  0  0  0  0  0  0  0  0
    4.2727   -3.4739    3.5516 C   0  0  1  0  0  0  0  0  0  0  0  0
    4.2447   -1.8918    3.7222 C   0  0  0  0  0  0  0  0  0  0  0  0
    3.7384   -0.7569    2.7544 C   0  0  1  0  0  0  0  0  0  0  0  0
    3.9888    0.4807    3.3949 O   0  0  0  0  0  0  0  0  0  0  0  0
    4.4184   -0.7099    1.3886 C   0  0  1  0  0  0  0  0  0  0  0  0
    5.9240   -1.0057    1.3337 C   0  0  0  0  0  0  0  0  0  0  0  0
    6.3241   -2.4842    1.1887 C   0  0  0  0  0  0  0  0  0  0  0  0
    5.2116   -3.5333    0.8540 C   0  0  1  0  0  0  0  0  0  0  0  0
    5.9811   -4.6534    0.0705 C   0  0  0  0  0  0  0  0  0  0  0  0
    4.8148   -4.2250    2.2403 C   0  0  2  0  0  0  0  0  0  0  0  0
    4.0829   -5.6277    2.1603 C   0  0  0  0  0  0  0  0  0  0  0  0
    3.0889   -5.6277    3.3258 C   0  0  2  0  0  0  0  0  0  0  0  0
    1.6189   -6.0985    3.3242 C   0  0  1  0  0  0  0  0  0  0  0  0
    1.4771   -7.4880    3.4813 O   0  0  0  0  0  0  0  0  0  0  0  0
    1.0724   -5.3555    4.5499 C   0  0  1  0  0  0  0  0  0  0  0  0
    1.8853   -5.4180    5.7372 O   0  0  0  0  0  0  0  0  0  0  0  0
    2.0376   -4.2405    4.9337 C   0  0  1  0  0  0  0  0  0  0  0  0
    2.9345   -4.1826    3.7059 C   0  0  1  0  0  0  0  0  0  0  0  0
    4.0921   -2.8714   -0.0998 C   0  0  2  0  0  0  0  0  0  0  0  0
    2.9630   -3.8990   -0.4246 C   0  0  1  0  0  0  0  0  0  0  0  0
    2.2703   -4.2070    0.7256 O   0  0  0  0  0  0  0  0  0  0  0  0
    2.0285   -3.4280   -1.3296 O   0  0  0  0  0  0  0  0  0  0  0  0
    2.5301   -3.2573   -2.6361 C   0  0  0  0  0  0  0  0  0  0  0  0
    3.6187   -2.2005   -2.6047 C   0  0  1  0  0  0  0  0  0  0  0  0
    3.0055   -0.9672   -2.4400 O   0  0  0  0  0  0  0  0  0  0  0  0
    4.6687   -2.5219   -1.5296 C   0  0  1  0  0  0  0  0  0  0  0  0
    5.5774   -1.4470   -1.5523 O   0  0  0  0  0  0  0  0  0  0  0  0
    3.4766   -1.5804    0.5498 C   0  0  1  0  0  0  0  0  0  0  0  0
    2.3142   -1.7813    1.3358 O   0  0  0  0  0  0  0  0  0  0  0  0
    2.2862   -0.7740    2.2602 C   0  0  1  0  0  0  0  0  0  0  0  0
    1.1575   -1.0155    3.2105 N   0  0  0  0  0  0  0  0  0  0  0  0
    0.2377   -0.1834    3.7053 C   0  0  0  0  0  0  0  0  0  0  0  0
   -0.6203   -0.8113    4.4828 N   0  0  0  0  0  0  0  0  0  0  0  0
   -0.2412   -2.1052    4.4044 N   0  0  0  0  0  0  0  0  0  0  0  0
    0.7072   -2.2339    3.5434 N   0  0  0  0  0  0  0  0  0  0  0  0
    4.6180   -3.6723    5.7017 H   0  0  0  0  0  0  0  0  0  0  0  0
    6.1001   -3.4830    4.7745 H   0  0  0  0  0  0  0  0  0  0  0  0
    5.2758   -5.0166    4.7841 H   0  0  0  0  0  0  0  0  0  0  0  0
    3.7499   -1.6957    4.6674 H   0  0  0  0  0  0  0  0  0  0  0  0
    5.2887   -1.6152    3.9065 H   0  0  0  0  0  0  0  0  0  0  0  0
    4.9109    0.5597    3.5820 H   0  0  0  0  0  0  0  0  0  0  0  0
    4.3107    0.3053    0.9811 H   0  0  0  0  0  0  0  0  0  0  0  0
    6.3602   -0.4522    0.4997 H   0  0  0  0  0  0  0  0  0  0  0  0
    6.4225   -0.5433    2.1877 H   0  0  0  0  0  0  0  0  0  0  0  0
    7.0939   -2.4940    0.4196 H   0  0  0  0  0  0  0  0  0  0  0  0
    6.8736   -2.7845    2.0766 H   0  0  0  0  0  0  0  0  0  0  0  0
    5.3307   -5.3840   -0.4128 H   0  0  0  0  0  0  0  0  0  0  0  0
    6.6609   -5.2333    0.6952 H   0  0  0  0  0  0  0  0  0  0  0  0
    6.6228   -4.2568   -0.7169 H   0  0  0  0  0  0  0  0  0  0  0  0
    5.7944   -4.5565    2.5746 H   0  0  0  0  0  0  0  0  0  0  0  0
    3.6315   -5.9123    1.2131 H   0  0  0  0  0  0  0  0  0  0  0  0
    4.7937   -6.4300    2.3169 H   0  0  0  0  0  0  0  0  0  0  0  0
    3.5817   -6.1348    4.1491 H   0  0  0  0  0  0  0  0  0  0  0  0
    1.0839   -5.7849    2.4264 H   0  0  0  0  0  0  0  0  0  0  0  0
    0.5637   -7.7025    3.5744 H   0  0  0  0  0  0  0  0  0  0  0  0
   -0.0068   -5.2539    4.6975 H   0  0  0  0  0  0  0  0  0  0  0  0
    1.7555   -3.3312    5.4653 H   0  0  0  0  0  0  0  0  0  0  0  0
    2.3642   -3.7382    2.9226 H   0  0  0  0  0  0  0  0  0  0  0  0
    3.3209   -4.8640   -0.7470 H   0  0  0  0  0  0  0  0  0  0  0  0
    2.1580   -3.3787    1.1984 H   0  0  0  0  0  0  0  0  0  0  0  0
    2.9331   -4.1976   -3.0005 H   0  0  0  0  0  0  0  0  0  0  0  0
    1.6991   -2.9892   -3.2855 H   0  0  0  0  0  0  0  0  0  0  0  0
    4.0845   -2.1298   -3.5826 H   0  0  0  0  0  0  0  0  0  0  0  0
    2.3579   -1.0596   -1.7211 H   0  0  0  0  0  0  0  0  0  0  0  0
    5.2097   -3.3627   -1.9492 H   0  0  0  0  0  0  0  0  0  0  0  0
    5.1259   -0.7189   -1.1464 H   0  0  0  0  0  0  0  0  0  0  0  0
    3.0755   -0.9022   -0.1850 H   0  0  0  0  0  0  0  0  0  0  0  0
    2.0060    0.1623    1.7752 H   0  0  0  0  0  0  0  0  0  0  0  0
    0.1514    0.8441    3.3975 H   0  0  0  0  0  0  0  0  0  0  0  0
  2  1  1  1
  1 37  1  0
  1 38  1  0
  1 39  1  0
  2 11  1  0
  2 19  1  0
  2  3  1  0
  3  4  1  0
  3 40  1  0
  3 41  1  0
  4 31  1  0
  4  5  1  1
  4  6  1  0
  5 42  1  0
  6 29  1  0
  6  7  1  0
  6 43  1  6
  7  8  1  0
  7 44  1  0
  7 45  1  0
  8  9  1  0
  8 46  1  0
  8 47  1  0
  9 10  1  6
  9 11  1  0
 20  9  1  1
 10 48  1  0
 10 49  1  0
 10 50  1  0
 11 12  1  0
 11 51  1  1
 12 13  1  0
 12 52  1  0
 12 53  1  0
 13 19  1  0
 13 14  1  0
 13 54  1  1
 14 15  1  0
 14 16  1  0
 14 55  1  6
 15 56  1  0
 16 18  1  0
 16 17  1  0
 16 57  1  1
 17 18  1  0
 18 19  1  0
 18 58  1  1
 19 59  1  6
 20 27  1  0
 20 21  1  0
 20 29  1  0
 21 22  1  0
 21 23  1  0
 21 60  1  6
 22 61  1  0
 23 24  1  0
 24 25  1  0
 24 62  1  0
 24 63  1  0
 25 26  1  0
 25 27  1  0
 25 64  1  6
 26 65  1  0
 27 28  1  0
 27 66  1  6
 28 67  1  0
 29 30  1  0
 29 68  1  6
 30 31  1  0
 31 32  1  0
 31 69  1  6
 32 36  1  0
 32 33  1  0
 33 34  2  0
 33 70  1  0
 34 35  1  0
 35 36  2  0
M  END
>  <i_m_ct_stereo_status>  (61) 
1

>  <s_m_source_file>  (61) 
/var/tmp/pbs.5076255.sched01/tmp3_il56_a/09f63jmog.sdf

>  <i_m_source_file_index>  (61) 
23

>  <i_lp_mmshare_version>  (61) 
48012

>  <i_f3d_flags>  (61) 
0

>  <s_epik_input>  (61) 
W09IXVtDQEBIXTFbQ0BIXShbT0hdKVtDSDJdT1tDQEhdKFtPSF0pW0NAQF0xMltDQF0zKFtDSDNdKVtDQEhdNFtDQF0oW0NIM10pKFtDQEhdNVtDQEhdKFtDSDJdNClbQ0BASF0oW09IXSlbQ0BASF02W0NASF01TzYpW0NIMl1bQ0BAXTcoW09IXSlbQ0BASF0oW0NIMl1bQ0gyXTMpW0NAQEhdMk9bQ0BIXTduOFtjSF1ubm44

>  <s_epik_cmdline>  (61) 
J2VwaWtfcHl0aG9uJywgJy1waHQnLCAnMi4wJywgJy1waCcsICc3LjAnLCAnLXRuJywgJzgnLCAnLW1hJywgJzIwMCcsICctaW1hZScsICc8aW5maWxlLm1hZT4nLCAnLW9tYWUnLCAnPG91dGZpbGUubWFlPic=

>  <r_lp_tautomer_probability>  (61) 
1

>  <r_epik_Ionization_Penalty>  (61) 
1.27029e-06

>  <r_epik_Ionization_Penalty_Charging>  (61) 
0

>  <r_epik_Ionization_Penalty_Neutral>  (61) 
1.27029e-06

>  <r_epik_State_Penalty>  (61) 
-0

>  <r_epik_Charging_Adjusted_Penalty>  (61) 
0

>  <i_epik_Tot_Q>  (61) 
0

>  <i_epik_Tot_abs_Q>  (61) 
0

>  <s_epik_Chemistry_Notes>  (61) 
This compound contains an acetal/aminal-like group ( X-CH(R)-Y where X, Y are N, S, or O) that may be acid/base labile, releasing an aldehyde.

>  <s_lp_Force_Field>  (61) 
OPLS3e

>  <r_lp_Energy>  (61) 
116.142

>  <b_lp_Chiralities_Consistent>  (61) 
1

>  <s_lp_Variant>  (61) 
14:0-1

>  <s_i_glide_gridfile>  (61) 
pfpi4k_grid

>  <i_i_glide_lignum>  (61) 
23

>  <i_i_glide_rotatable_bonds>  (61) 
6

>  <r_i_docking_score>  (61) 
-2.62177

>  <r_i_glide_ligand_efficiency>  (61) 
-0.0728269

>  <r_i_glide_ligand_efficiency_sa>  (61) 
-0.240469

>  <r_i_glide_ligand_efficiency_ln>  (61) 
-0.571999

>  <r_i_glide_gscore>  (61) 
-2.62177

>  <r_i_glide_lipo>  (61) 
-0.593054

>  <r_i_glide_hbond>  (61) 
0

>  <r_i_glide_metal>  (61) 
-0

>  <r_i_glide_rewards>  (61) 
-0.5

>  <r_i_glide_evdw>  (61) 
-27.7697

>  <r_i_glide_ecoul>  (61) 
-5.37565

>  <r_i_glide_erotb>  (61) 
0.0797405

>  <r_i_glide_esite>  (61) 
-0.108209

>  <r_i_glide_emodel>  (61) 
-38.9787

>  <r_i_glide_energy>  (61) 
-33.1453

>  <r_i_glide_einternal>  (61) 
1.97543

>  <r_i_glide_intrahb_reward>  (61) 
-0.5

>  <i_i_glide_confnum>  (61) 
2

>  <i_i_glide_posenum>  (61) 
20

>  <r_i_glide_eff_state_penalty>  (61) 
0

>  <ligand_id>  (61) 
14

>  <original_smiles>  (61) 
CC12CC3(O)C4CCC(C)(C1CC1C(O)C5OC5C12)C1(C(O)OCC(O)C1O)C4OC3n1cnnn1

>  <smiles>  (61) 
[H]OC1([H])OC([H])([H])C([H])(O[H])C([H])(O[H])C12C1([H])OC([H])(n3nnnc3[H])C3(O[H])C([H])([H])C4(C([H])([H])[H])C5([H])C6([H])OC6([H])C([H])(O[H])C5([H])C([H])([H])C4([H])C2(C([H])([H])[H])C([H])([H])C([H])([H])C13[H]

$$$$
15:0:0
     RDKit          3D

 21 22  0  0  1  0  0  0  0  0999 V2000
   -8.4566   -9.9588   -7.4084 C   0  0  0  0  0  0  0  0  0  0  0  0
   -9.3578   -9.2449   -8.1482 N   0  0  0  0  0  0  0  0  0  0  0  0
   -8.8782   -8.0210   -7.9580 C   0  0  0  0  0  0  0  0  0  0  0  0
   -7.8142   -7.9735   -7.1565 N   0  0  0  0  0  0  0  0  0  0  0  0
   -7.0319   -6.8400   -6.6916 C   0  0  0  0  0  0  0  0  0  0  0  0
   -6.3982   -7.0521   -5.3136 C   0  0  0  0  0  0  0  0  0  0  0  0
   -6.1669   -5.6533   -4.7482 C   0  0  0  0  0  0  0  0  0  0  0  0
   -7.2545   -4.7734   -5.3708 C   0  0  0  0  0  0  0  0  0  0  0  0
   -7.8841   -5.5742   -6.5134 C   0  0  0  0  0  0  0  0  0  0  0  0
   -7.4753   -9.2517   -6.8407 N   0  0  0  0  0  0  0  0  0  0  0  0
   -8.5266  -11.0301   -7.2806 H   0  0  0  0  0  0  0  0  0  0  0  0
   -9.3279   -7.1375   -8.3803 H   0  0  0  0  0  0  0  0  0  0  0  0
   -6.2361   -6.6559   -7.4063 H   0  0  0  0  0  0  0  0  0  0  0  0
   -7.1158   -7.5670   -4.6782 H   0  0  0  0  0  0  0  0  0  0  0  0
   -5.4846   -7.6500   -5.3491 H   0  0  0  0  0  0  0  0  0  0  0  0
   -6.2101   -5.6494   -3.6586 H   0  0  0  0  0  0  0  0  0  0  0  0
   -5.1839   -5.2873   -5.0467 H   0  0  0  0  0  0  0  0  0  0  0  0
   -8.0197   -4.5047   -4.6395 H   0  0  0  0  0  0  0  0  0  0  0  0
   -6.8145   -3.8520   -5.7456 H   0  0  0  0  0  0  0  0  0  0  0  0
   -7.9599   -4.9955   -7.4365 H   0  0  0  0  0  0  0  0  0  0  0  0
   -8.9005   -5.8253   -6.2096 H   0  0  0  0  0  0  0  0  0  0  0  0
  1 10  2  0
  1  2  1  0
  1 11  1  0
  2  3  2  0
  3  4  1  0
  3 12  1  0
  4  5  1  0
  4 10  1  0
  5  9  1  0
  5  6  1  0
  5 13  1  0
  6  7  1  0
  6 14  1  0
  6 15  1  0
  7  8  1  0
  7 16  1  0
  7 17  1  0
  8  9  1  0
  8 18  1  0
  8 19  1  0
  9 20  1  0
  9 21  1  0
M  END
>  <i_m_ct_stereo_status>  (62) 
1

>  <s_m_source_file>  (62) 
/var/tmp/pbs.5076255.sched01/tmp3_il56_a/09f63jmog.sdf

>  <i_m_source_file_index>  (62) 
24

>  <i_lp_mmshare_version>  (62) 
48012

>  <i_f3d_flags>  (62) 
0

>  <s_epik_input>  (62) 
bjFbY0hdbltjSF1uMVtDSF0yW0NIMl1bQ0gyXVtDSDJdW0NIMl0y

>  <s_epik_cmdline>  (62) 
J2VwaWtfcHl0aG9uJywgJy1waHQnLCAnMi4wJywgJy1waCcsICc3LjAnLCAnLXRuJywgJzgnLCAnLW1hJywgJzIwMCcsICctaW1hZScsICc8aW5maWxlLm1hZT4nLCAnLW9tYWUnLCAnPG91dGZpbGUubWFlPic=

>  <r_lp_tautomer_probability>  (62) 
1

>  <r_epik_Ionization_Penalty>  (62) 
7.6757e-05

>  <r_epik_Ionization_Penalty_Charging>  (62) 
0

>  <r_epik_Ionization_Penalty_Neutral>  (62) 
7.6757e-05

>  <r_epik_State_Penalty>  (62) 
-0

>  <r_epik_Charging_Adjusted_Penalty>  (62) 
0

>  <i_epik_Tot_Q>  (62) 
0

>  <i_epik_Tot_abs_Q>  (62) 
0

>  <s_lp_Force_Field>  (62) 
OPLS3e

>  <r_lp_Energy>  (62) 
15.196

>  <b_lp_Chiralities_Consistent>  (62) 
1

>  <s_lp_Variant>  (62) 
15:0-1

>  <s_i_glide_gridfile>  (62) 
pfpi4k_grid

>  <i_i_glide_lignum>  (62) 
24

>  <i_i_glide_rotatable_bonds>  (62) 
1

>  <r_i_docking_score>  (62) 
-4.23283

>  <r_i_glide_ligand_efficiency>  (62) 
-0.423283

>  <r_i_glide_ligand_efficiency_sa>  (62) 
-0.911936

>  <r_i_glide_ligand_efficiency_ln>  (62) 
-1.28167

>  <r_i_glide_gscore>  (62) 
-4.23283

>  <r_i_glide_lipo>  (62) 
-1.40894

>  <r_i_glide_hbond>  (62) 
0

>  <r_i_glide_metal>  (62) 
-0

>  <r_i_glide_rewards>  (62) 
-2.87732

>  <r_i_glide_evdw>  (62) 
-15.9062

>  <r_i_glide_ecoul>  (62) 
0.638363

>  <r_i_glide_erotb>  (62) 
0.752984

>  <r_i_glide_esite>  (62) 
0

>  <r_i_glide_emodel>  (62) 
-20.9221

>  <r_i_glide_energy>  (62) 
-15.2678

>  <r_i_glide_einternal>  (62) 
0.853258

>  <r_i_glide_intrahb_reward>  (62) 
-0

>  <i_i_glide_confnum>  (62) 
3

>  <i_i_glide_posenum>  (62) 
4

>  <r_i_glide_eff_state_penalty>  (62) 
0

>  <ligand_id>  (62) 
15

>  <original_smiles>  (62) 
c1ncn(C2CCCC2)n1

>  <smiles>  (62) 
[H]c1nc([H])n(C2([H])C([H])([H])C([H])([H])C([H])([H])C2([H])[H])n1

$$$$
15:0:1
     RDKit          3D

 21 22  0  0  1  0  0  0  0  0999 V2000
    5.9925   -1.0495    0.8468 C   0  0  0  0  0  0  0  0  0  0  0  0
    4.7007   -0.7501    1.1653 N   0  0  0  0  0  0  0  0  0  0  0  0
    4.1111   -1.0244    0.0071 C   0  0  0  0  0  0  0  0  0  0  0  0
    4.9583   -1.4548   -0.9369 N   0  0  0  0  0  0  0  0  0  0  0  0
    4.7254   -1.8548   -2.3198 C   0  0  0  0  0  0  0  0  0  0  0  0
    3.2732   -2.2642   -2.5723 C   0  0  0  0  0  0  0  0  0  0  0  0
    3.3075   -3.1703   -3.7978 C   0  0  0  0  0  0  0  0  0  0  0  0
    4.6814   -3.8528   -3.7580 C   0  0  0  0  0  0  0  0  0  0  0  0
    5.5320   -3.0967   -2.7277 C   0  0  0  0  0  0  0  0  0  0  0  0
    6.2085   -1.4460   -0.4076 N   0  0  0  0  0  0  0  0  0  0  0  0
    6.7932   -0.9531    1.5669 H   0  0  0  0  0  0  0  0  0  0  0  0
    3.0526   -0.9197   -0.1661 H   0  0  0  0  0  0  0  0  0  0  0  0
    4.9776   -1.0311   -2.9906 H   0  0  0  0  0  0  0  0  0  0  0  0
    2.8907   -2.8557   -1.7379 H   0  0  0  0  0  0  0  0  0  0  0  0
    2.6097   -1.4078   -2.7101 H   0  0  0  0  0  0  0  0  0  0  0  0
    2.4863   -3.8907   -3.7672 H   0  0  0  0  0  0  0  0  0  0  0  0
    3.1978   -2.5807   -4.7110 H   0  0  0  0  0  0  0  0  0  0  0  0
    4.6178   -4.8984   -3.4441 H   0  0  0  0  0  0  0  0  0  0  0  0
    5.1451   -3.8701   -4.7430 H   0  0  0  0  0  0  0  0  0  0  0  0
    6.5222   -2.8515   -3.1149 H   0  0  0  0  0  0  0  0  0  0  0  0
    5.6822   -3.7544   -1.8646 H   0  0  0  0  0  0  0  0  0  0  0  0
  1 10  2  0
  1  2  1  0
  1 11  1  0
  2  3  2  0
  3  4  1  0
  3 12  1  0
  4  5  1  0
  4 10  1  0
  5  9  1  0
  5  6  1  0
  5 13  1  0
  6  7  1  0
  6 14  1  0
  6 15  1  0
  7  8  1  0
  7 16  1  0
  7 17  1  0
  8  9  1  0
  8 18  1  0
  8 19  1  0
  9 20  1  0
  9 21  1  0
M  END
>  <i_m_ct_stereo_status>  (63) 
1

>  <s_m_source_file>  (63) 
/var/tmp/pbs.5076255.sched01/tmp3_il56_a/09f63jmog.sdf

>  <i_m_source_file_index>  (63) 
24

>  <i_lp_mmshare_version>  (63) 
48012

>  <i_f3d_flags>  (63) 
0

>  <s_epik_input>  (63) 
bjFbY0hdbltjSF1uMVtDSF0yW0NIMl1bQ0gyXVtDSDJdW0NIMl0y

>  <s_epik_cmdline>  (63) 
J2VwaWtfcHl0aG9uJywgJy1waHQnLCAnMi4wJywgJy1waCcsICc3LjAnLCAnLXRuJywgJzgnLCAnLW1hJywgJzIwMCcsICctaW1hZScsICc8aW5maWxlLm1hZT4nLCAnLW9tYWUnLCAnPG91dGZpbGUubWFlPic=

>  <r_lp_tautomer_probability>  (63) 
1

>  <r_epik_Ionization_Penalty>  (63) 
7.6757e-05

>  <r_epik_Ionization_Penalty_Charging>  (63) 
0

>  <r_epik_Ionization_Penalty_Neutral>  (63) 
7.6757e-05

>  <r_epik_State_Penalty>  (63) 
-0

>  <r_epik_Charging_Adjusted_Penalty>  (63) 
0

>  <i_epik_Tot_Q>  (63) 
0

>  <i_epik_Tot_abs_Q>  (63) 
0

>  <s_lp_Force_Field>  (63) 
OPLS3e

>  <r_lp_Energy>  (63) 
15.196

>  <b_lp_Chiralities_Consistent>  (63) 
1

>  <s_lp_Variant>  (63) 
15:0-1

>  <s_i_glide_gridfile>  (63) 
pfpi4k_grid

>  <i_i_glide_lignum>  (63) 
24

>  <i_i_glide_rotatable_bonds>  (63) 
1

>  <r_i_docking_score>  (63) 
-3.54754

>  <r_i_glide_ligand_efficiency>  (63) 
-0.354754

>  <r_i_glide_ligand_efficiency_sa>  (63) 
-0.764293

>  <r_i_glide_ligand_efficiency_ln>  (63) 
-1.07417

>  <r_i_glide_gscore>  (63) 
-3.54754

>  <r_i_glide_lipo>  (63) 
-0.361242

>  <r_i_glide_hbond>  (63) 
-0.0703099

>  <r_i_glide_metal>  (63) 
-0

>  <r_i_glide_rewards>  (63) 
-2.42239

>  <r_i_glide_evdw>  (63) 
-19.4859

>  <r_i_glide_ecoul>  (63) 
-2.79504

>  <r_i_glide_erotb>  (63) 
0.752984

>  <r_i_glide_esite>  (63) 
-0.0530288

>  <r_i_glide_emodel>  (63) 
-26.912

>  <r_i_glide_energy>  (63) 
-22.2809

>  <r_i_glide_einternal>  (63) 
0.86111

>  <r_i_glide_intrahb_reward>  (63) 
-0

>  <i_i_glide_confnum>  (63) 
2

>  <i_i_glide_posenum>  (63) 
1

>  <r_i_glide_eff_state_penalty>  (63) 
0

>  <ligand_id>  (63) 
15

>  <original_smiles>  (63) 
c1ncn(C2CCCC2)n1

>  <smiles>  (63) 
[H]c1nc([H])n(C2([H])C([H])([H])C([H])([H])C([H])([H])C2([H])[H])n1

$$$$
15:0:2
     RDKit          3D

 21 22  0  0  1  0  0  0  0  0999 V2000
    1.8512   -0.2714    2.0997 C   0  0  0  0  0  0  0  0  0  0  0  0
    2.2617    0.9603    1.6786 N   0  0  0  0  0  0  0  0  0  0  0  0
    1.2845    1.7055    2.1806 C   0  0  0  0  0  0  0  0  0  0  0  0
    0.3829    1.0090    2.8784 N   0  0  0  0  0  0  0  0  0  0  0  0
   -0.7867    1.4584    3.6143 C   0  0  0  0  0  0  0  0  0  0  0  0
   -1.7059    2.3226    2.7549 C   0  0  0  0  0  0  0  0  0  0  0  0
   -2.4807    3.1917    3.7394 C   0  0  0  0  0  0  0  0  0  0  0  0
   -1.5579    3.3701    4.9563 C   0  0  0  0  0  0  0  0  0  0  0  0
   -0.4117    2.3588    4.7984 C   0  0  0  0  0  0  0  0  0  0  0  0
    0.7467   -0.2965    2.8500 N   0  0  0  0  0  0  0  0  0  0  0  0
    2.3998   -1.1672    1.8486 H   0  0  0  0  0  0  0  0  0  0  0  0
    1.2264    2.7761    2.0685 H   0  0  0  0  0  0  0  0  0  0  0  0
   -1.3628    0.6064    3.9842 H   0  0  0  0  0  0  0  0  0  0  0  0
   -1.1227    2.9759    2.1045 H   0  0  0  0  0  0  0  0  0  0  0  0
   -2.3565    1.7460    2.0974 H   0  0  0  0  0  0  0  0  0  0  0  0
   -2.7576    4.1434    3.2827 H   0  0  0  0  0  0  0  0  0  0  0  0
   -3.3988    2.6809    4.0375 H   0  0  0  0  0  0  0  0  0  0  0  0
   -1.1461    4.3806    4.9919 H   0  0  0  0  0  0  0  0  0  0  0  0
   -2.1084    3.2063    5.8850 H   0  0  0  0  0  0  0  0  0  0  0  0
   -0.2293    1.7868    5.7096 H   0  0  0  0  0  0  0  0  0  0  0  0
    0.5069    2.9146    4.5879 H   0  0  0  0  0  0  0  0  0  0  0  0
  1 10  2  0
  1  2  1  0
  1 11  1  0
  2  3  2  0
  3  4  1  0
  3 12  1  0
  4  5  1  0
  4 10  1  0
  5  9  1  0
  5  6  1  0
  5 13  1  0
  6  7  1  0
  6 14  1  0
  6 15  1  0
  7  8  1  0
  7 16  1  0
  7 17  1  0
  8  9  1  0
  8 18  1  0
  8 19  1  0
  9 20  1  0
  9 21  1  0
M  END
>  <i_m_ct_stereo_status>  (64) 
1

>  <s_m_source_file>  (64) 
/var/tmp/pbs.5076255.sched01/tmp3_il56_a/09f63jmog.sdf

>  <i_m_source_file_index>  (64) 
24

>  <i_lp_mmshare_version>  (64) 
48012

>  <i_f3d_flags>  (64) 
0

>  <s_epik_input>  (64) 
bjFbY0hdbltjSF1uMVtDSF0yW0NIMl1bQ0gyXVtDSDJdW0NIMl0y

>  <s_epik_cmdline>  (64) 
J2VwaWtfcHl0aG9uJywgJy1waHQnLCAnMi4wJywgJy1waCcsICc3LjAnLCAnLXRuJywgJzgnLCAnLW1hJywgJzIwMCcsICctaW1hZScsICc8aW5maWxlLm1hZT4nLCAnLW9tYWUnLCAnPG91dGZpbGUubWFlPic=

>  <r_lp_tautomer_probability>  (64) 
1

>  <r_epik_Ionization_Penalty>  (64) 
7.6757e-05

>  <r_epik_Ionization_Penalty_Charging>  (64) 
0

>  <r_epik_Ionization_Penalty_Neutral>  (64) 
7.6757e-05

>  <r_epik_State_Penalty>  (64) 
-0

>  <r_epik_Charging_Adjusted_Penalty>  (64) 
0

>  <i_epik_Tot_Q>  (64) 
0

>  <i_epik_Tot_abs_Q>  (64) 
0

>  <s_lp_Force_Field>  (64) 
OPLS3e

>  <r_lp_Energy>  (64) 
15.196

>  <b_lp_Chiralities_Consistent>  (64) 
1

>  <s_lp_Variant>  (64) 
15:0-1

>  <s_i_glide_gridfile>  (64) 
pfpi4k_grid

>  <i_i_glide_lignum>  (64) 
24

>  <i_i_glide_rotatable_bonds>  (64) 
1

>  <r_i_docking_score>  (64) 
-2.42386

>  <r_i_glide_ligand_efficiency>  (64) 
-0.242386

>  <r_i_glide_ligand_efficiency_sa>  (64) 
-0.522204

>  <r_i_glide_ligand_efficiency_ln>  (64) 
-0.733928

>  <r_i_glide_gscore>  (64) 
-2.42386

>  <r_i_glide_lipo>  (64) 
0

>  <r_i_glide_hbond>  (64) 
0

>  <r_i_glide_metal>  (64) 
-0

>  <r_i_glide_rewards>  (64) 
-2.25

>  <r_i_glide_evdw>  (64) 
-14.0081

>  <r_i_glide_ecoul>  (64) 
-0.603396

>  <r_i_glide_erotb>  (64) 
0.752984

>  <r_i_glide_esite>  (64) 
-0.135926

>  <r_i_glide_emodel>  (64) 
-17.9343

>  <r_i_glide_energy>  (64) 
-14.6115

>  <r_i_glide_einternal>  (64) 
0.293517

>  <r_i_glide_intrahb_reward>  (64) 
-0

>  <i_i_glide_confnum>  (64) 
3

>  <i_i_glide_posenum>  (64) 
2

>  <r_i_glide_eff_state_penalty>  (64) 
0

>  <ligand_id>  (64) 
15

>  <original_smiles>  (64) 
c1ncn(C2CCCC2)n1

>  <smiles>  (64) 
[H]c1nc([H])n(C2([H])C([H])([H])C([H])([H])C([H])([H])C2([H])[H])n1

$$$$
17:0:0
     RDKit          3D

 83 91  0  0  1  0  0  0  0  0999 V2000
   -1.4135   -8.2614    2.8290 C   0  0  0  0  0  0  0  0  0  0  0  0
   -0.5272   -7.1499    2.6769 O   0  0  0  0  0  0  0  0  0  0  0  0
    0.8410   -7.4670    2.5820 C   0  0  2  0  0  0  0  0  0  0  0  0
    1.3743   -7.7803    3.8192 O   0  0  0  0  0  0  0  0  0  0  0  0
    2.2165   -8.8527    4.1694 C   0  0  1  0  0  0  0  0  0  0  0  0
    1.3089   -9.6878    5.2081 C   0  0  1  0  0  0  0  0  0  0  0  0
    0.0948   -9.0166    5.9461 C   0  0  0  0  0  0  0  0  0  0  0  0
    0.8975  -10.9985    4.4829 C   0  0  0  0  0  0  0  0  0  0  0  0
    1.4660  -10.9484    3.0717 C   0  0  0  0  0  0  0  0  0  0  0  0
    2.6067   -9.9495    3.1465 C   0  0  2  0  0  0  0  0  0  0  0  0
    3.7184  -10.5221    3.8208 O   0  0  0  0  0  0  0  0  0  0  0  0
    4.2587   -9.7072    4.7594 C   0  0  0  0  0  0  0  0  0  0  0  0
    5.1340  -10.0378    5.5626 O   0  0  0  0  0  0  0  0  0  0  0  0
    3.6596   -8.2809    4.5922 C   0  0  1  0  0  0  0  0  0  0  0  0
    4.6016   -7.7421    3.4303 C   0  0  0  0  0  0  0  0  0  0  0  0
    4.1677   -6.4574    2.7911 C   0  0  2  0  0  0  0  0  0  0  0  0
    3.0508   -6.6761    1.8167 C   0  0  2  0  0  0  0  0  0  0  0  0
    4.2670   -5.9396    1.3578 C   0  0  0  0  0  0  0  0  0  0  0  0
    4.1729   -4.4413    1.0619 C   0  0  0  0  0  0  0  0  0  0  0  0
    5.2359   -6.6127    0.4021 C   0  0  0  0  0  0  0  0  0  0  0  0
    1.6165   -6.2330    2.0540 C   0  0  1  0  0  0  0  0  0  0  0  0
    1.1255   -6.0206    0.7475 O   0  0  0  0  0  0  0  0  0  0  0  0
    1.4576   -5.0319    2.8223 O   0  0  0  0  0  0  0  0  0  0  0  0
    1.3899   -4.8939    4.2546 C   0  0  1  0  0  0  0  0  0  0  0  0
    0.5746   -5.7798    4.9581 O   0  0  0  0  0  0  0  0  0  0  0  0
    2.7948   -4.6571    4.9408 C   0  0  1  0  0  0  0  0  0  0  0  0
    2.6292   -3.3317    5.7392 C   0  0  0  0  0  0  0  0  0  0  0  0
    1.4347   -2.5982    5.2117 C   0  0  1  0  0  0  0  0  0  0  0  0
    0.6449   -3.5505    4.3655 C   0  0  2  0  0  0  0  0  0  0  0  0
    0.0109   -2.9317    5.6103 C   0  0  0  0  0  0  0  0  0  0  0  0
   -0.2685   -3.7266    6.8722 C   0  0  0  0  0  0  0  0  0  0  0  0
   -1.0590   -1.8661    5.4167 C   0  0  0  0  0  0  0  0  0  0  0  0
    3.6434   -5.7072    5.7878 C   0  0  0  0  0  0  0  0  0  0  0  0
    4.4629   -5.2359    6.7463 C   0  0  0  0  0  0  0  0  0  0  0  0
    5.1460   -6.2478    7.6161 C   0  0  2  0  0  0  0  0  0  0  0  0
    4.7132   -6.2076    8.9515 O   0  0  0  0  0  0  0  0  0  0  0  0
    6.5730   -6.3448    7.4278 O   0  0  0  0  0  0  0  0  0  0  0  0
    6.3720   -7.3434    6.4226 C   0  0  0  0  0  0  0  0  0  0  0  0
    4.8869   -7.5038    6.8165 C   0  0  2  0  0  0  0  0  0  0  0  0
    3.6730   -7.2874    5.8687 C   0  0  2  0  0  0  0  0  0  0  0  0
    2.6144   -7.6270    6.7246 O   0  0  0  0  0  0  0  0  0  0  0  0
   -2.3749   -7.9036    3.2133 H   0  0  0  0  0  0  0  0  0  0  0  0
   -1.0374   -9.0292    3.4720 H   0  0  0  0  0  0  0  0  0  0  0  0
   -1.5446   -8.8593    1.9274 H   0  0  0  0  0  0  0  0  0  0  0  0
    0.9317   -8.3105    1.8907 H   0  0  0  0  0  0  0  0  0  0  0  0
    1.9636  -10.0400    6.0238 H   0  0  0  0  0  0  0  0  0  0  0  0
   -0.7324   -8.6947    5.3570 H   0  0  0  0  0  0  0  0  0  0  0  0
    0.3527   -8.0913    6.4571 H   0  0  0  0  0  0  0  0  0  0  0  0
   -0.3600   -9.7403    6.6311 H   0  0  0  0  0  0  0  0  0  0  0  0
    1.3186  -11.8626    5.0070 H   0  0  0  0  0  0  0  0  0  0  0  0
   -0.1791  -11.1515    4.4525 H   0  0  0  0  0  0  0  0  0  0  0  0
    1.7888  -11.9304    2.7241 H   0  0  0  0  0  0  0  0  0  0  0  0
    0.7058  -10.5828    2.3793 H   0  0  0  0  0  0  0  0  0  0  0  0
    2.9121   -9.5757    2.1716 H   0  0  0  0  0  0  0  0  0  0  0  0
    5.6166   -7.6017    3.7872 H   0  0  0  0  0  0  0  0  0  0  0  0
    4.7393   -8.4693    2.6257 H   0  0  0  0  0  0  0  0  0  0  0  0
    4.5280   -5.5995    3.3341 H   0  0  0  0  0  0  0  0  0  0  0  0
    3.0334   -7.6388    1.3249 H   0  0  0  0  0  0  0  0  0  0  0  0
    3.8074   -4.2622    0.0467 H   0  0  0  0  0  0  0  0  0  0  0  0
    5.1427   -3.9551    1.1682 H   0  0  0  0  0  0  0  0  0  0  0  0
    3.4842   -3.9466    1.7472 H   0  0  0  0  0  0  0  0  0  0  0  0
    4.9188   -6.4722   -0.6327 H   0  0  0  0  0  0  0  0  0  0  0  0
    5.2716   -7.6899    0.5770 H   0  0  0  0  0  0  0  0  0  0  0  0
    6.2483   -6.2273    0.5141 H   0  0  0  0  0  0  0  0  0  0  0  0
    1.8299   -5.6070    0.2615 H   0  0  0  0  0  0  0  0  0  0  0  0
    1.0186   -6.6239    4.9663 H   0  0  0  0  0  0  0  0  0  0  0  0
    3.3874   -4.2660    4.1307 H   0  0  0  0  0  0  0  0  0  0  0  0
    2.4413   -3.5133    6.7945 H   0  0  0  0  0  0  0  0  0  0  0  0
    3.5141   -2.6959    5.6663 H   0  0  0  0  0  0  0  0  0  0  0  0
    1.6094   -1.5906    4.8398 H   0  0  0  0  0  0  0  0  0  0  0  0
    0.2639   -3.1576    3.4298 H   0  0  0  0  0  0  0  0  0  0  0  0
   -1.1966   -4.2885    6.7766 H   0  0  0  0  0  0  0  0  0  0  0  0
   -0.3141   -3.0769    7.7425 H   0  0  0  0  0  0  0  0  0  0  0  0
    0.5146   -4.4583    7.0737 H   0  0  0  0  0  0  0  0  0  0  0  0
   -2.0435   -2.3180    5.2925 H   0  0  0  0  0  0  0  0  0  0  0  0
   -0.8677   -1.2541    4.5298 H   0  0  0  0  0  0  0  0  0  0  0  0
   -1.0987   -1.1980    6.2809 H   0  0  0  0  0  0  0  0  0  0  0  0
    4.6673   -4.1995    6.9596 H   0  0  0  0  0  0  0  0  0  0  0  0
    5.1379   -6.9216    9.4058 H   0  0  0  0  0  0  0  0  0  0  0  0
    6.5652   -6.9049    5.4454 H   0  0  0  0  0  0  0  0  0  0  0  0
    6.9971   -8.2250    6.5776 H   0  0  0  0  0  0  0  0  0  0  0  0
    4.7865   -8.3717    7.4693 H   0  0  0  0  0  0  0  0  0  0  0  0
    2.6863   -8.5407    6.9633 H   0  0  0  0  0  0  0  0  0  0  0  0
  1  2  1  0
  1 42  1  0
  1 43  1  0
  1 44  1  0
  2  3  1  0
  3 21  1  0
  3  4  1  0
  3 45  1  6
  5  4  1  6
  5 10  1  0
  5 14  1  0
  5  6  1  0
  6  7  1  0
  6  8  1  0
  6 46  1  1
  7 47  1  0
  7 48  1  0
  7 49  1  0
  8  9  1  0
  8 50  1  0
  8 51  1  0
  9 10  1  0
  9 52  1  0
  9 53  1  0
 10 11  1  0
 10 54  1  6
 11 12  1  0
 12 13  2  0
 14 12  1  1
 14 40  1  0
 14 15  1  0
 15 16  1  0
 15 55  1  0
 15 56  1  0
 16 18  1  0
 16 17  1  0
 16 57  1  1
 17 18  1  0
 17 21  1  0
 17 58  1  6
 18 19  1  0
 18 20  1  0
 19 59  1  0
 19 60  1  0
 19 61  1  0
 20 62  1  0
 20 63  1  0
 20 64  1  0
 21 22  1  6
 21 23  1  0
 22 65  1  0
 23 24  1  0
 24 29  1  0
 24 25  1  1
 24 26  1  0
 25 66  1  0
 26 27  1  0
 26 33  1  0
 26 67  1  6
 27 28  1  0
 27 68  1  0
 27 69  1  0
 28 30  1  0
 28 29  1  0
 28 70  1  6
 29 30  1  0
 29 71  1  6
 30 31  1  0
 30 32  1  0
 31 72  1  0
 31 73  1  0
 31 74  1  0
 32 75  1  0
 32 76  1  0
 32 77  1  0
 33 40  1  0
 33 34  2  0
 34 35  1  0
 34 78  1  0
 35 39  1  0
 35 36  1  1
 35 37  1  0
 36 79  1  0
 37 38  1  0
 38 39  1  0
 38 80  1  0
 38 81  1  0
 39 40  1  0
 39 82  1  1
 40 41  1  1
 41 83  1  0
M  END
>  <i_m_ct_stereo_status>  (65) 
1

>  <s_m_source_file>  (65) 
/var/tmp/pbs.5076255.sched01/tmp3_il56_a/09f63jmog.sdf

>  <i_m_source_file_index>  (65) 
26

>  <i_lp_mmshare_version>  (65) 
48012

>  <i_f3d_flags>  (65) 
0

>  <s_epik_input>  (65) 
W0NIM11DMShbQ0gzXSlbQ0BIXShbQ0gyXTIpW0NASF0xW0NAQF0oW09IXSkoW0NAQEhdKE8zKU9bQ0gzXSlPW0NAXShbT0hdKShbQ0BASF00W0NASF0oW0NIMl01KUM0KFtDSDNdKVtDSDNdKVtDQEBIXTVDKD1bQ0hdW0NAQF02KFtPSF0pW0NAQEhdN1tDSDJdTzYpW0NAQF03KFtPSF0pW0NAXTIoW0NAXTM4OSlDKD1PKU9bQ0BIXTlbQ0gyXVtDSDJdW0NAQEhdOFtDSDNd

>  <s_epik_cmdline>  (65) 
J2VwaWtfcHl0aG9uJywgJy1waHQnLCAnMi4wJywgJy1waCcsICc3LjAnLCAnLXRuJywgJzgnLCAnLW1hJywgJzIwMCcsICctaW1hZScsICc8aW5maWxlLm1hZT4nLCAnLW9tYWUnLCAnPG91dGZpbGUubWFlPic=

>  <r_lp_tautomer_probability>  (65) 
1

>  <r_epik_Ionization_Penalty>  (65) 
2.10543e-05

>  <r_epik_Ionization_Penalty_Charging>  (65) 
0

>  <r_epik_Ionization_Penalty_Neutral>  (65) 
2.10543e-05

>  <r_epik_State_Penalty>  (65) 
-0

>  <r_epik_Charging_Adjusted_Penalty>  (65) 
0

>  <i_epik_Tot_Q>  (65) 
0

>  <i_epik_Tot_abs_Q>  (65) 
0

>  <s_epik_Chemistry_Notes>  (65) 
This compound has an ester and may undergo hydrolysis at high or low pH. This compound contains an acetal/aminal-like group ( X-CH(R)-Y where X, Y are N, S, or O) that may be acid/base labile, releasing an aldehyde.

>  <s_lp_Force_Field>  (65) 
OPLS3e

>  <r_lp_Energy>  (65) 
159.023

>  <b_lp_Chiralities_Consistent>  (65) 
1

>  <s_lp_Variant>  (65) 
17:0-1

>  <s_i_glide_gridfile>  (65) 
pfpi4k_grid

>  <i_i_glide_lignum>  (65) 
26

>  <i_i_glide_rotatable_bonds>  (65) 
5

>  <r_i_docking_score>  (65) 
-3.20335

>  <r_i_glide_ligand_efficiency>  (65) 
-0.0781305

>  <r_i_glide_ligand_efficiency_sa>  (65) 
-0.269411

>  <r_i_glide_ligand_efficiency_ln>  (65) 
-0.679602

>  <r_i_glide_gscore>  (65) 
-3.20335

>  <r_i_glide_lipo>  (65) 
-0.373882

>  <r_i_glide_hbond>  (65) 
-0.0955123

>  <r_i_glide_metal>  (65) 
-0

>  <r_i_glide_rewards>  (65) 
-0.5

>  <r_i_glide_evdw>  (65) 
-24.05

>  <r_i_glide_ecoul>  (65) 
-6.33376

>  <r_i_glide_erotb>  (65) 
0

>  <r_i_glide_esite>  (65) 
-0.0813908

>  <r_i_glide_emodel>  (65) 
-40.498

>  <r_i_glide_energy>  (65) 
-30.3838

>  <r_i_glide_einternal>  (65) 
0.692774

>  <r_i_glide_intrahb_reward>  (65) 
-0.5

>  <i_i_glide_confnum>  (65) 
2

>  <i_i_glide_posenum>  (65) 
19

>  <r_i_glide_eff_state_penalty>  (65) 
0

>  <ligand_id>  (65) 
17

>  <original_smiles>  (65) 
COC1OC23C(C)CCC2OC(=O)C32CC3C(C3(C)C)C1(O)OC1(O)C(CC3C1C3(C)C)C1=CC3(O)OCC3C12O

>  <smiles>  (65) 
[H]OC12OC([H])([H])C1([H])C1(O[H])C(=C2[H])C2([H])C([H])([H])C3([H])C([H])(C2(O[H])OC2(O[H])C([H])(OC([H])([H])[H])OC45C([H])(OC(=O)C14C([H])([H])C1([H])C2([H])C1(C([H])([H])[H])C([H])([H])[H])C([H])([H])C([H])([H])C5([H])C([H])([H])[H])C3(C([H])([H])[H])C([H])([H])[H]

$$$$
17:0:1
     RDKit          3D

 83 91  0  0  1  0  0  0  0  0999 V2000
   -1.6234   -8.6625    3.1462 C   0  0  0  0  0  0  0  0  0  0  0  0
   -0.7749   -7.5170    3.0387 O   0  0  0  0  0  0  0  0  0  0  0  0
    0.5696   -7.7971    2.7925 C   0  0  2  0  0  0  0  0  0  0  0  0
    1.2575   -8.1192    3.9432 O   0  0  0  0  0  0  0  0  0  0  0  0
    2.1418   -9.1943    4.1809 C   0  0  1  0  0  0  0  0  0  0  0  0
    1.3903  -10.0548    5.3051 C   0  0  1  0  0  0  0  0  0  0  0  0
    0.2446   -9.3949    6.1747 C   0  0  0  0  0  0  0  0  0  0  0  0
    0.8956  -11.3483    4.6212 C   0  0  0  0  0  0  0  0  0  0  0  0
    1.2878  -11.2789    3.1511 C   0  0  0  0  0  0  0  0  0  0  0  0
    2.4222  -10.2671    3.1029 C   0  0  2  0  0  0  0  0  0  0  0  0
    3.6156  -10.8313    3.6426 O   0  0  0  0  0  0  0  0  0  0  0  0
    4.2520  -10.0271    4.5058 C   0  0  0  0  0  0  0  0  0  0  0  0
    5.2154  -10.3575    5.1894 O   0  0  0  0  0  0  0  0  0  0  0  0
    3.6206   -8.6132    4.4355 C   0  0  1  0  0  0  0  0  0  0  0  0
    4.4111   -8.0522    3.1765 C   0  0  0  0  0  0  0  0  0  0  0  0
    3.8832   -6.7657    2.6129 C   0  0  2  0  0  0  0  0  0  0  0  0
    2.6666   -6.9738    1.7620 C   0  0  2  0  0  0  0  0  0  0  0  0
    3.8270   -6.2187    1.1968 C   0  0  0  0  0  0  0  0  0  0  0  0
    3.6877   -4.7260    0.9327 C   0  0  0  0  0  0  0  0  0  0  0  0
    4.6874   -6.8634    0.1308 C   0  0  0  0  0  0  0  0  0  0  0  0
    1.2661   -6.5480    2.1841 C   0  0  1  0  0  0  0  0  0  0  0  0
    0.6193   -6.2824    0.9540 O   0  0  0  0  0  0  0  0  0  0  0  0
    1.2313   -5.3441    2.9908 O   0  0  0  0  0  0  0  0  0  0  0  0
    1.3122   -5.2604    4.4352 C   0  0  1  0  0  0  0  0  0  0  0  0
    0.5632   -6.1490    5.2040 O   0  0  0  0  0  0  0  0  0  0  0  0
    2.7787   -5.0043    4.9570 C   0  0  1  0  0  0  0  0  0  0  0  0
    2.6953   -3.6894    5.7850 C   0  0  0  0  0  0  0  0  0  0  0  0
    1.4398   -2.9684    5.4287 C   0  0  1  0  0  0  0  0  0  0  0  0
    0.5775   -3.9271    4.6561 C   0  0  2  0  0  0  0  0  0  0  0  0
    0.0726   -3.3192    5.9779 C   0  0  0  0  0  0  0  0  0  0  0  0
   -0.0597   -4.1287    7.2487 C   0  0  0  0  0  0  0  0  0  0  0  0
   -1.0197   -2.2654    5.9141 C   0  0  0  0  0  0  0  0  0  0  0  0
    3.7272   -6.0536    5.6695 C   0  0  0  0  0  0  0  0  0  0  0  0
    4.6435   -5.5842    6.5287 C   0  0  0  0  0  0  0  0  0  0  0  0
    5.4368   -6.6069    7.3078 C   0  0  2  0  0  0  0  0  0  0  0  0
    5.1629   -6.5899    8.6847 O   0  0  0  0  0  0  0  0  0  0  0  0
    6.8327   -6.6674    6.9414 O   0  0  0  0  0  0  0  0  0  0  0  0
    6.5228   -7.6649    5.9503 C   0  0  0  0  0  0  0  0  0  0  0  0
    5.0972   -7.8445    6.5176 C   0  0  2  0  0  0  0  0  0  0  0  0
    3.7771   -7.6333    5.7193 C   0  0  2  0  0  0  0  0  0  0  0  0
    2.8305   -7.9893    6.6869 O   0  0  0  0  0  0  0  0  0  0  0  0
   -2.5435   -8.3361    3.6393 H   0  0  0  0  0  0  0  0  0  0  0  0
   -1.1924   -9.4599    3.7280 H   0  0  0  0  0  0  0  0  0  0  0  0
   -1.8828   -9.0791    2.1791 H   0  0  0  0  0  0  0  0  0  0  0  0
    0.5966   -8.6283    2.0990 H   0  0  0  0  0  0  0  0  0  0  0  0
    2.1188  -10.4121    6.0138 H   0  0  0  0  0  0  0  0  0  0  0  0
   -0.6412   -9.0773    5.6336 H   0  0  0  0  0  0  0  0  0  0  0  0
    0.5720   -8.5135    6.7210 H   0  0  0  0  0  0  0  0  0  0  0  0
   -0.0826  -10.1247    6.9225 H   0  0  0  0  0  0  0  0  0  0  0  0
    1.3843  -12.2166    5.0664 H   0  0  0  0  0  0  0  0  0  0  0  0
   -0.1729  -11.5184    4.7099 H   0  0  0  0  0  0  0  0  0  0  0  0
    1.5816  -12.2545    2.7544 H   0  0  0  0  0  0  0  0  0  0  0  0
    0.4457  -10.9175    2.5588 H   0  0  0  0  0  0  0  0  0  0  0  0
    2.6027   -9.8894    2.0923 H   0  0  0  0  0  0  0  0  0  0  0  0
    5.4602   -7.9021    3.4096 H   0  0  0  0  0  0  0  0  0  0  0  0
    4.4592   -8.7758    2.3586 H   0  0  0  0  0  0  0  0  0  0  0  0
    4.2773   -5.9159    3.1415 H   0  0  0  0  0  0  0  0  0  0  0  0
    2.6039   -7.9498    1.2732 H   0  0  0  0  0  0  0  0  0  0  0  0
    3.2046   -4.5457   -0.0266 H   0  0  0  0  0  0  0  0  0  0  0  0
    4.6618   -4.2412    0.9290 H   0  0  0  0  0  0  0  0  0  0  0  0
    3.0833   -4.2497    1.7040 H   0  0  0  0  0  0  0  0  0  0  0  0
    4.2469   -6.6970   -0.8459 H   0  0  0  0  0  0  0  0  0  0  0  0
    4.7487   -7.9394    0.2864 H   0  0  0  0  0  0  0  0  0  0  0  0
    5.6893   -6.4388    0.1438 H   0  0  0  0  0  0  0  0  0  0  0  0
    0.5627   -7.1244    0.4931 H   0  0  0  0  0  0  0  0  0  0  0  0
    0.9731   -7.0101    5.1184 H   0  0  0  0  0  0  0  0  0  0  0  0
    3.2806   -4.5921    4.0930 H   0  0  0  0  0  0  0  0  0  0  0  0
    2.6539   -3.8829    6.8522 H   0  0  0  0  0  0  0  0  0  0  0  0
    3.5547   -3.0331    5.6058 H   0  0  0  0  0  0  0  0  0  0  0  0
    1.5511   -1.9742    5.0118 H   0  0  0  0  0  0  0  0  0  0  0  0
    0.1141   -3.5063    3.7744 H   0  0  0  0  0  0  0  0  0  0  0  0
   -0.9994   -4.6875    7.2364 H   0  0  0  0  0  0  0  0  0  0  0  0
   -0.0133   -3.4727    8.1211 H   0  0  0  0  0  0  0  0  0  0  0  0
    0.7518   -4.8460    7.3267 H   0  0  0  0  0  0  0  0  0  0  0  0
   -2.0042   -2.7272    5.9061 H   0  0  0  0  0  0  0  0  0  0  0  0
   -0.9315   -1.6495    5.0236 H   0  0  0  0  0  0  0  0  0  0  0  0
   -0.9567   -1.6118    6.7804 H   0  0  0  0  0  0  0  0  0  0  0  0
    4.8342   -4.5392    6.7174 H   0  0  0  0  0  0  0  0  0  0  0  0
    5.6037   -7.3340    9.0736 H   0  0  0  0  0  0  0  0  0  0  0  0
    6.5871   -7.2281    4.9514 H   0  0  0  0  0  0  0  0  0  0  0  0
    7.1405   -8.5647    6.0259 H   0  0  0  0  0  0  0  0  0  0  0  0
    5.0913   -8.7196    7.1709 H   0  0  0  0  0  0  0  0  0  0  0  0
    2.8528   -8.9267    6.8217 H   0  0  0  0  0  0  0  0  0  0  0  0
  1  2  1  0
  1 42  1  0
  1 43  1  0
  1 44  1  0
  2  3  1  0
  3 21  1  0
  3  4  1  0
  3 45  1  6
  5  4  1  6
  5 10  1  0
  5 14  1  0
  5  6  1  0
  6  7  1  0
  6  8  1  0
  6 46  1  1
  7 47  1  0
  7 48  1  0
  7 49  1  0
  8  9  1  0
  8 50  1  0
  8 51  1  0
  9 10  1  0
  9 52  1  0
  9 53  1  0
 10 11  1  0
 10 54  1  6
 11 12  1  0
 12 13  2  0
 14 12  1  1
 14 40  1  0
 14 15  1  0
 15 16  1  0
 15 55  1  0
 15 56  1  0
 16 18  1  0
 16 17  1  0
 16 57  1  1
 17 18  1  0
 17 21  1  0
 17 58  1  6
 18 19  1  0
 18 20  1  0
 19 59  1  0
 19 60  1  0
 19 61  1  0
 20 62  1  0
 20 63  1  0
 20 64  1  0
 21 22  1  6
 21 23  1  0
 22 65  1  0
 23 24  1  0
 24 29  1  0
 24 25  1  1
 24 26  1  0
 25 66  1  0
 26 27  1  0
 26 33  1  0
 26 67  1  6
 27 28  1  0
 27 68  1  0
 27 69  1  0
 28 30  1  0
 28 29  1  0
 28 70  1  6
 29 30  1  0
 29 71  1  6
 30 31  1  0
 30 32  1  0
 31 72  1  0
 31 73  1  0
 31 74  1  0
 32 75  1  0
 32 76  1  0
 32 77  1  0
 33 40  1  0
 33 34  2  0
 34 35  1  0
 34 78  1  0
 35 39  1  0
 35 36  1  1
 35 37  1  0
 36 79  1  0
 37 38  1  0
 38 39  1  0
 38 80  1  0
 38 81  1  0
 39 40  1  0
 39 82  1  1
 40 41  1  1
 41 83  1  0
M  END
>  <i_m_ct_stereo_status>  (66) 
1

>  <s_m_source_file>  (66) 
/var/tmp/pbs.5076255.sched01/tmp3_il56_a/09f63jmog.sdf

>  <i_m_source_file_index>  (66) 
26

>  <i_lp_mmshare_version>  (66) 
48012

>  <i_f3d_flags>  (66) 
0

>  <s_epik_input>  (66) 
W0NIM11DMShbQ0gzXSlbQ0BIXShbQ0gyXTIpW0NASF0xW0NAQF0oW09IXSkoW0NAQEhdKE8zKU9bQ0gzXSlPW0NAXShbT0hdKShbQ0BASF00W0NASF0oW0NIMl01KUM0KFtDSDNdKVtDSDNdKVtDQEBIXTVDKD1bQ0hdW0NAQF02KFtPSF0pW0NAQEhdN1tDSDJdTzYpW0NAQF03KFtPSF0pW0NAXTIoW0NAXTM4OSlDKD1PKU9bQ0BIXTlbQ0gyXVtDSDJdW0NAQEhdOFtDSDNd

>  <s_epik_cmdline>  (66) 
J2VwaWtfcHl0aG9uJywgJy1waHQnLCAnMi4wJywgJy1waCcsICc3LjAnLCAnLXRuJywgJzgnLCAnLW1hJywgJzIwMCcsICctaW1hZScsICc8aW5maWxlLm1hZT4nLCAnLW9tYWUnLCAnPG91dGZpbGUubWFlPic=

>  <r_lp_tautomer_probability>  (66) 
1

>  <r_epik_Ionization_Penalty>  (66) 
2.10543e-05

>  <r_epik_Ionization_Penalty_Charging>  (66) 
0

>  <r_epik_Ionization_Penalty_Neutral>  (66) 
2.10543e-05

>  <r_epik_State_Penalty>  (66) 
-0

>  <r_epik_Charging_Adjusted_Penalty>  (66) 
0

>  <i_epik_Tot_Q>  (66) 
0

>  <i_epik_Tot_abs_Q>  (66) 
0

>  <s_epik_Chemistry_Notes>  (66) 
This compound has an ester and may undergo hydrolysis at high or low pH. This compound contains an acetal/aminal-like group ( X-CH(R)-Y where X, Y are N, S, or O) that may be acid/base labile, releasing an aldehyde.

>  <s_lp_Force_Field>  (66) 
OPLS3e

>  <r_lp_Energy>  (66) 
159.023

>  <b_lp_Chiralities_Consistent>  (66) 
1

>  <s_lp_Variant>  (66) 
17:0-1

>  <s_i_glide_gridfile>  (66) 
pfpi4k_grid

>  <i_i_glide_lignum>  (66) 
26

>  <i_i_glide_rotatable_bonds>  (66) 
5

>  <r_i_docking_score>  (66) 
-3.19389

>  <r_i_glide_ligand_efficiency>  (66) 
-0.0778997

>  <r_i_glide_ligand_efficiency_sa>  (66) 
-0.268615

>  <r_i_glide_ligand_efficiency_ln>  (66) 
-0.677594

>  <r_i_glide_gscore>  (66) 
-3.19389

>  <r_i_glide_lipo>  (66) 
-0.345345

>  <r_i_glide_hbond>  (66) 
0

>  <r_i_glide_metal>  (66) 
-0

>  <r_i_glide_rewards>  (66) 
-0.5

>  <r_i_glide_evdw>  (66) 
-25.8333

>  <r_i_glide_ecoul>  (66) 
-6.45783

>  <r_i_glide_erotb>  (66) 
0

>  <r_i_glide_esite>  (66) 
-0.0882028

>  <r_i_glide_emodel>  (66) 
-43.007

>  <r_i_glide_energy>  (66) 
-32.2912

>  <r_i_glide_einternal>  (66) 
2.00271

>  <r_i_glide_intrahb_reward>  (66) 
-0.5

>  <i_i_glide_confnum>  (66) 
1

>  <i_i_glide_posenum>  (66) 
36

>  <r_i_glide_eff_state_penalty>  (66) 
0

>  <ligand_id>  (66) 
17

>  <original_smiles>  (66) 
COC1OC23C(C)CCC2OC(=O)C32CC3C(C3(C)C)C1(O)OC1(O)C(CC3C1C3(C)C)C1=CC3(O)OCC3C12O

>  <smiles>  (66) 
[H]OC12OC([H])([H])C1([H])C1(O[H])C(=C2[H])C2([H])C([H])([H])C3([H])C([H])(C2(O[H])OC2(O[H])C([H])(OC([H])([H])[H])OC45C([H])(OC(=O)C14C([H])([H])C1([H])C2([H])C1(C([H])([H])[H])C([H])([H])[H])C([H])([H])C([H])([H])C5([H])C([H])([H])[H])C3(C([H])([H])[H])C([H])([H])[H]

$$$$
17:0:2
     RDKit          3D

 83 91  0  0  1  0  0  0  0  0999 V2000
   -1.2951   -8.2450    2.5500 C   0  0  0  0  0  0  0  0  0  0  0  0
   -0.4129   -7.1225    2.5710 O   0  0  0  0  0  0  0  0  0  0  0  0
    0.9576   -7.4249    2.5517 C   0  0  2  0  0  0  0  0  0  0  0  0
    1.4115   -7.8022    3.8076 O   0  0  0  0  0  0  0  0  0  0  0  0
    2.2226   -8.8964    4.1602 C   0  0  1  0  0  0  0  0  0  0  0  0
    1.2505   -9.7766    5.0946 C   0  0  1  0  0  0  0  0  0  0  0  0
   -0.0134   -9.1293    5.7705 C   0  0  0  0  0  0  0  0  0  0  0  0
    0.8990  -11.0437    4.2785 C   0  0  0  0  0  0  0  0  0  0  0  0
    1.5569  -10.9304    2.9092 C   0  0  0  0  0  0  0  0  0  0  0  0
    2.6880   -9.9406    3.1112 C   0  0  2  0  0  0  0  0  0  0  0  0
    3.7511  -10.5503    3.8326 O   0  0  0  0  0  0  0  0  0  0  0  0
    4.2268   -9.7775    4.8448 C   0  0  0  0  0  0  0  0  0  0  0  0
    5.0428  -10.1554    5.6819 O   0  0  0  0  0  0  0  0  0  0  0  0
    3.6334   -8.3432    4.7103 C   0  0  1  0  0  0  0  0  0  0  0  0
    4.6571   -7.7584    3.6384 C   0  0  0  0  0  0  0  0  0  0  0  0
    4.2666   -6.4424    3.0406 C   0  0  2  0  0  0  0  0  0  0  0  0
    3.2179   -6.6087    1.9724 C   0  0  2  0  0  0  0  0  0  0  0  0
    4.4711   -5.8507    1.6436 C   0  0  0  0  0  0  0  0  0  0  0  0
    4.3930   -4.3458    1.4184 C   0  0  0  0  0  0  0  0  0  0  0  0
    5.5006   -6.4772    0.7248 C   0  0  0  0  0  0  0  0  0  0  0  0
    1.7754   -6.1690    2.1409 C   0  0  1  0  0  0  0  0  0  0  0  0
    1.3897   -5.8726    0.8087 O   0  0  0  0  0  0  0  0  0  0  0  0
    1.5742   -5.0089    2.9619 O   0  0  0  0  0  0  0  0  0  0  0  0
    1.4017   -4.9436    4.3883 C   0  0  1  0  0  0  0  0  0  0  0  0
    0.5298   -5.8607    4.9766 O   0  0  0  0  0  0  0  0  0  0  0  0
    2.7530   -4.7494    5.1842 C   0  0  1  0  0  0  0  0  0  0  0  0
    2.5335   -3.4624    6.0284 C   0  0  0  0  0  0  0  0  0  0  0  0
    1.3694   -2.7046    5.4654 C   0  0  1  0  0  0  0  0  0  0  0  0
    0.6446   -3.6114    4.5263 C   0  0  2  0  0  0  0  0  0  0  0  0
   -0.0686   -3.0480    5.7412 C   0  0  0  0  0  0  0  0  0  0  0  0
   -0.4452   -3.9029    6.9438 C   0  0  0  0  0  0  0  0  0  0  0  0
   -1.1242   -1.9689    5.5322 C   0  0  0  0  0  0  0  0  0  0  0  0
    3.5368   -5.8428    6.0201 C   0  0  0  0  0  0  0  0  0  0  0  0
    4.2882   -5.4063    7.0665 C   0  0  0  0  0  0  0  0  0  0  0  0
    4.9152   -6.4663    7.9218 C   0  0  2  0  0  0  0  0  0  0  0  0
    4.3854   -6.4970    9.2398 O   0  0  0  0  0  0  0  0  0  0  0  0
    6.3490   -6.5617    7.8371 O   0  0  0  0  0  0  0  0  0  0  0  0
    6.2168   -7.5144    6.7594 C   0  0  0  0  0  0  0  0  0  0  0  0
    4.7133   -7.6797    7.0592 C   0  0  2  0  0  0  0  0  0  0  0  0
    3.5680   -7.4151    6.0377 C   0  0  2  0  0  0  0  0  0  0  0  0
    2.4549   -7.7996    6.8067 O   0  0  0  0  0  0  0  0  0  0  0  0
   -2.2796   -7.9080    2.8786 H   0  0  0  0  0  0  0  0  0  0  0  0
   -0.9761   -9.0641    3.1770 H   0  0  0  0  0  0  0  0  0  0  0  0
   -1.3685   -8.7167    1.5721 H   0  0  0  0  0  0  0  0  0  0  0  0
    1.0971   -8.2285    1.8378 H   0  0  0  0  0  0  0  0  0  0  0  0
    1.8501  -10.1758    5.9227 H   0  0  0  0  0  0  0  0  0  0  0  0
   -0.7928   -8.7794    5.1068 H   0  0  0  0  0  0  0  0  0  0  0  0
    0.2183   -8.2509    6.3643 H   0  0  0  0  0  0  0  0  0  0  0  0
   -0.4972   -9.8804    6.4004 H   0  0  0  0  0  0  0  0  0  0  0  0
    1.2731  -11.9381    4.7822 H   0  0  0  0  0  0  0  0  0  0  0  0
   -0.1698  -11.1910    4.1603 H   0  0  0  0  0  0  0  0  0  0  0  0
    1.9146  -11.8923    2.5370 H   0  0  0  0  0  0  0  0  0  0  0  0
    0.8434  -10.5302    2.1891 H   0  0  0  0  0  0  0  0  0  0  0  0
    3.0585   -9.5220    2.1738 H   0  0  0  0  0  0  0  0  0  0  0  0
    5.6472   -7.6374    4.0724 H   0  0  0  0  0  0  0  0  0  0  0  0
    4.8492   -8.4490    2.8139 H   0  0  0  0  0  0  0  0  0  0  0  0
    4.5758   -5.6169    3.6484 H   0  0  0  0  0  0  0  0  0  0  0  0
    3.2383   -7.5494    1.4412 H   0  0  0  0  0  0  0  0  0  0  0  0
    4.1005   -4.1139    0.3911 H   0  0  0  0  0  0  0  0  0  0  0  0
    5.3561   -3.8692    1.6153 H   0  0  0  0  0  0  0  0  0  0  0  0
    3.6605   -3.8828    2.0786 H   0  0  0  0  0  0  0  0  0  0  0  0
    5.2517   -6.2736   -0.3183 H   0  0  0  0  0  0  0  0  0  0  0  0
    5.5213   -7.5561    0.8543 H   0  0  0  0  0  0  0  0  0  0  0  0
    6.5019   -6.0947    0.9296 H   0  0  0  0  0  0  0  0  0  0  0  0
    2.0899   -5.3796    0.4214 H   0  0  0  0  0  0  0  0  0  0  0  0
    0.9468   -6.7167    4.9475 H   0  0  0  0  0  0  0  0  0  0  0  0
    3.4016   -4.3161    4.4374 H   0  0  0  0  0  0  0  0  0  0  0  0
    2.2750   -3.6914    7.0610 H   0  0  0  0  0  0  0  0  0  0  0  0
    3.4181   -2.8187    6.0465 H   0  0  0  0  0  0  0  0  0  0  0  0
    1.5711   -1.6835    5.1416 H   0  0  0  0  0  0  0  0  0  0  0  0
    0.3325   -3.1707    3.5782 H   0  0  0  0  0  0  0  0  0  0  0  0
   -1.3650   -4.4512    6.7465 H   0  0  0  0  0  0  0  0  0  0  0  0
   -0.5497   -3.2875    7.8357 H   0  0  0  0  0  0  0  0  0  0  0  0
    0.3247   -4.6377    7.1499 H   0  0  0  0  0  0  0  0  0  0  0  0
   -2.0976   -2.4083    5.3220 H   0  0  0  0  0  0  0  0  0  0  0  0
   -0.8722   -1.3176    4.6876 H   0  0  0  0  0  0  0  0  0  0  0  0
   -1.2211   -1.3436    6.4197 H   0  0  0  0  0  0  0  0  0  0  0  0
    4.4670   -4.3913    7.3252 H   0  0  0  0  0  0  0  0  0  0  0  0
    3.7161   -7.1560    9.2551 H   0  0  0  0  0  0  0  0  0  0  0  0
    6.4733   -7.0335    5.8216 H   0  0  0  0  0  0  0  0  0  0  0  0
    6.8183   -8.4104    6.9186 H   0  0  0  0  0  0  0  0  0  0  0  0
    4.5710   -8.5814    7.6528 H   0  0  0  0  0  0  0  0  0  0  0  0
    2.4440   -8.7425    6.8954 H   0  0  0  0  0  0  0  0  0  0  0  0
  1  2  1  0
  1 42  1  0
  1 43  1  0
  1 44  1  0
  2  3  1  0
  3 21  1  0
  3  4  1  0
  3 45  1  6
  5  4  1  6
  5 10  1  0
  5 14  1  0
  5  6  1  0
  6  7  1  0
  6  8  1  0
  6 46  1  1
  7 47  1  0
  7 48  1  0
  7 49  1  0
  8  9  1  0
  8 50  1  0
  8 51  1  0
  9 10  1  0
  9 52  1  0
  9 53  1  0
 10 11  1  0
 10 54  1  6
 11 12  1  0
 12 13  2  0
 14 12  1  1
 14 40  1  0
 14 15  1  0
 15 16  1  0
 15 55  1  0
 15 56  1  0
 16 18  1  0
 16 17  1  0
 16 57  1  1
 17 18  1  0
 17 21  1  0
 17 58  1  6
 18 19  1  0
 18 20  1  0
 19 59  1  0
 19 60  1  0
 19 61  1  0
 20 62  1  0
 20 63  1  0
 20 64  1  0
 21 22  1  6
 21 23  1  0
 22 65  1  0
 23 24  1  0
 24 29  1  0
 24 25  1  1
 24 26  1  0
 25 66  1  0
 26 27  1  0
 26 33  1  0
 26 67  1  6
 27 28  1  0
 27 68  1  0
 27 69  1  0
 28 30  1  0
 28 29  1  0
 28 70  1  6
 29 30  1  0
 29 71  1  6
 30 31  1  0
 30 32  1  0
 31 72  1  0
 31 73  1  0
 31 74  1  0
 32 75  1  0
 32 76  1  0
 32 77  1  0
 33 40  1  0
 33 34  2  0
 34 35  1  0
 34 78  1  0
 35 39  1  0
 35 36  1  1
 35 37  1  0
 36 79  1  0
 37 38  1  0
 38 39  1  0
 38 80  1  0
 38 81  1  0
 39 40  1  0
 39 82  1  1
 40 41  1  1
 41 83  1  0
M  END
>  <i_m_ct_stereo_status>  (67) 
1

>  <s_m_source_file>  (67) 
/var/tmp/pbs.5076255.sched01/tmp3_il56_a/09f63jmog.sdf

>  <i_m_source_file_index>  (67) 
26

>  <i_lp_mmshare_version>  (67) 
48012

>  <i_f3d_flags>  (67) 
0

>  <s_epik_input>  (67) 
W0NIM11DMShbQ0gzXSlbQ0BIXShbQ0gyXTIpW0NASF0xW0NAQF0oW09IXSkoW0NAQEhdKE8zKU9bQ0gzXSlPW0NAXShbT0hdKShbQ0BASF00W0NASF0oW0NIMl01KUM0KFtDSDNdKVtDSDNdKVtDQEBIXTVDKD1bQ0hdW0NAQF02KFtPSF0pW0NAQEhdN1tDSDJdTzYpW0NAQF03KFtPSF0pW0NAXTIoW0NAXTM4OSlDKD1PKU9bQ0BIXTlbQ0gyXVtDSDJdW0NAQEhdOFtDSDNd

>  <s_epik_cmdline>  (67) 
J2VwaWtfcHl0aG9uJywgJy1waHQnLCAnMi4wJywgJy1waCcsICc3LjAnLCAnLXRuJywgJzgnLCAnLW1hJywgJzIwMCcsICctaW1hZScsICc8aW5maWxlLm1hZT4nLCAnLW9tYWUnLCAnPG91dGZpbGUubWFlPic=

>  <r_lp_tautomer_probability>  (67) 
1

>  <r_epik_Ionization_Penalty>  (67) 
2.10543e-05

>  <r_epik_Ionization_Penalty_Charging>  (67) 
0

>  <r_epik_Ionization_Penalty_Neutral>  (67) 
2.10543e-05

>  <r_epik_State_Penalty>  (67) 
-0

>  <r_epik_Charging_Adjusted_Penalty>  (67) 
0

>  <i_epik_Tot_Q>  (67) 
0

>  <i_epik_Tot_abs_Q>  (67) 
0

>  <s_epik_Chemistry_Notes>  (67) 
This compound has an ester and may undergo hydrolysis at high or low pH. This compound contains an acetal/aminal-like group ( X-CH(R)-Y where X, Y are N, S, or O) that may be acid/base labile, releasing an aldehyde.

>  <s_lp_Force_Field>  (67) 
OPLS3e

>  <r_lp_Energy>  (67) 
159.023

>  <b_lp_Chiralities_Consistent>  (67) 
1

>  <s_lp_Variant>  (67) 
17:0-1

>  <s_i_glide_gridfile>  (67) 
pfpi4k_grid

>  <i_i_glide_lignum>  (67) 
26

>  <i_i_glide_rotatable_bonds>  (67) 
5

>  <r_i_docking_score>  (67) 
-3.0521

>  <r_i_glide_ligand_efficiency>  (67) 
-0.0744414

>  <r_i_glide_ligand_efficiency_sa>  (67) 
-0.25669

>  <r_i_glide_ligand_efficiency_ln>  (67) 
-0.647513

>  <r_i_glide_gscore>  (67) 
-3.0521

>  <r_i_glide_lipo>  (67) 
-0.318438

>  <r_i_glide_hbond>  (67) 
-0.0886643

>  <r_i_glide_metal>  (67) 
-0

>  <r_i_glide_rewards>  (67) 
-0.5

>  <r_i_glide_evdw>  (67) 
-24.241

>  <r_i_glide_ecoul>  (67) 
-5.75195

>  <r_i_glide_erotb>  (67) 
0

>  <r_i_glide_esite>  (67) 
-0.070155

>  <r_i_glide_emodel>  (67) 
-39.4745

>  <r_i_glide_energy>  (67) 
-29.993

>  <r_i_glide_einternal>  (67) 
1.8869

>  <r_i_glide_intrahb_reward>  (67) 
-0.5

>  <i_i_glide_confnum>  (67) 
2

>  <i_i_glide_posenum>  (67) 
22

>  <r_i_glide_eff_state_penalty>  (67) 
0

>  <ligand_id>  (67) 
17

>  <original_smiles>  (67) 
COC1OC23C(C)CCC2OC(=O)C32CC3C(C3(C)C)C1(O)OC1(O)C(CC3C1C3(C)C)C1=CC3(O)OCC3C12O

>  <smiles>  (67) 
[H]OC12OC([H])([H])C1([H])C1(O[H])C(=C2[H])C2([H])C([H])([H])C3([H])C([H])(C2(O[H])OC2(O[H])C([H])(OC([H])([H])[H])OC45C([H])(OC(=O)C14C([H])([H])C1([H])C2([H])C1(C([H])([H])[H])C([H])([H])[H])C([H])([H])C([H])([H])C5([H])C([H])([H])[H])C3(C([H])([H])[H])C([H])([H])[H]

$$$$
18:0:0
     RDKit          3D

 34 38  0  0  1  0  0  0  0  0999 V2000
    5.7786   -3.0137   -2.5280 C   0  0  0  0  0  0  0  0  0  0  0  0
    5.1414   -3.6201   -1.2700 C   0  0  2  0  0  0  0  0  0  0  0  0
    4.2387   -2.7283   -0.5941 O   0  0  0  0  0  0  0  0  0  0  0  0
    4.2841   -2.9203    0.8049 C   0  0  1  0  0  0  0  0  0  0  0  0
    3.2462   -3.9181    1.2277 N   0  0  0  0  0  0  0  0  0  0  0  0
    2.6590   -4.8807    0.4851 C   0  0  0  0  0  0  0  0  0  0  0  0
    1.8047   -5.6983    1.0952 N   0  0  0  0  0  0  0  0  0  0  0  0
    1.8200   -5.2050    2.3899 C   0  0  0  0  0  0  0  0  0  0  0  0
    1.1353   -5.5988    3.5750 C   0  0  0  0  0  0  0  0  0  0  0  0
    0.2028   -6.6790    3.5777 N   0  0  0  0  0  0  0  0  0  0  0  0
   -0.5181   -7.0549    2.4779 N   0  0  0  0  0  0  0  0  0  0  0  0
   -1.2189   -8.0688    2.9111 C   0  0  0  0  0  0  0  0  0  0  0  0
   -0.9575   -8.2727    4.2874 C   0  0  0  0  0  0  0  0  0  0  0  0
   -0.0824   -7.3882    4.7060 N   0  0  0  0  0  0  0  0  0  0  0  0
    1.3812   -4.8833    4.6988 N   0  0  0  0  0  0  0  0  0  0  0  0
    2.2388   -3.8577    4.6702 C   0  0  0  0  0  0  0  0  0  0  0  0
    2.9431   -3.3785    3.6402 N   0  0  0  0  0  0  0  0  0  0  0  0
    2.7058   -4.0893    2.4991 C   0  0  0  0  0  0  0  0  0  0  0  0
    5.6379   -3.5170    1.0967 C   0  0  2  0  0  0  0  0  0  0  0  0
    6.8998   -2.9024    0.5564 C   0  0  0  0  0  0  0  0  0  0  0  0
    6.1709   -3.9646   -0.2256 C   0  0  2  0  0  0  0  0  0  0  0  0
    6.4709   -3.7263   -2.9747 H   0  0  0  0  0  0  0  0  0  0  0  0
    6.3514   -2.1117   -2.2980 H   0  0  0  0  0  0  0  0  0  0  0  0
    5.0372   -2.7651   -3.2912 H   0  0  0  0  0  0  0  0  0  0  0  0
    4.6276   -4.5340   -1.5608 H   0  0  0  0  0  0  0  0  0  0  0  0
    4.0490   -2.0007    1.3468 H   0  0  0  0  0  0  0  0  0  0  0  0
    2.8570   -5.0043   -0.5658 H   0  0  0  0  0  0  0  0  0  0  0  0
   -1.8692   -8.6196    2.2404 H   0  0  0  0  0  0  0  0  0  0  0  0
   -1.3535   -9.0211    4.9626 H   0  0  0  0  0  0  0  0  0  0  0  0
    2.3738   -3.3671    5.6231 H   0  0  0  0  0  0  0  0  0  0  0  0
    5.7161   -4.2013    1.9457 H   0  0  0  0  0  0  0  0  0  0  0  0
    6.8344   -1.8679    0.2024 H   0  0  0  0  0  0  0  0  0  0  0  0
    7.8351   -3.1849    1.0369 H   0  0  0  0  0  0  0  0  0  0  0  0
    6.6228   -4.9520   -0.3007 H   0  0  0  0  0  0  0  0  0  0  0  0
  1  2  1  0
  1 22  1  0
  1 23  1  0
  1 24  1  0
  2 21  1  0
  2  3  1  0
  2 25  1  6
  3  4  1  0
  4  5  1  0
  4 19  1  0
  4 26  1  1
  5 18  1  0
  5  6  1  0
  6  7  2  0
  6 27  1  0
  7  8  1  0
  8 18  2  0
  8  9  1  0
  9 10  1  0
  9 15  2  0
 10 14  1  0
 10 11  1  0
 11 12  2  0
 12 13  1  0
 12 28  1  0
 13 14  2  0
 13 29  1  0
 15 16  1  0
 16 17  2  0
 16 30  1  0
 17 18  1  0
 19 21  1  0
 19 20  1  0
 19 31  1  1
 20 21  1  0
 20 32  1  0
 20 33  1  0
 21 34  1  1
M  END
>  <i_m_ct_stereo_status>  (68) 
1

>  <s_m_source_file>  (68) 
/var/tmp/pbs.5076255.sched01/tmp3_il56_a/09f63jmog.sdf

>  <i_m_source_file_index>  (68) 
27

>  <i_lp_mmshare_version>  (68) 
48012

>  <i_f3d_flags>  (68) 
0

>  <s_epik_input>  (68) 
W0NAQEhdMTJbQ0BIXShbQ0gyXTIpW0NASF0oW0NIM10pT1tDQEhdMW4oW2NIXW4zKWMoYzM0KW5bY0hdbmM0LW41bltjSF1bY0hdbjU=

>  <s_epik_cmdline>  (68) 
J2VwaWtfcHl0aG9uJywgJy1waHQnLCAnMi4wJywgJy1waCcsICc3LjAnLCAnLXRuJywgJzgnLCAnLW1hJywgJzIwMCcsICctaW1hZScsICc8aW5maWxlLm1hZT4nLCAnLW9tYWUnLCAnPG91dGZpbGUubWFlPic=

>  <r_lp_tautomer_probability>  (68) 
1

>  <r_epik_Ionization_Penalty>  (68) 
4.71612e-05

>  <r_epik_Ionization_Penalty_Charging>  (68) 
0

>  <r_epik_Ionization_Penalty_Neutral>  (68) 
4.71612e-05

>  <r_epik_State_Penalty>  (68) 
-0

>  <r_epik_Charging_Adjusted_Penalty>  (68) 
0

>  <i_epik_Tot_Q>  (68) 
0

>  <i_epik_Tot_abs_Q>  (68) 
0

>  <s_epik_Chemistry_Notes>  (68) 
This compound contains an acetal/aminal-like group ( X-CH(R)-Y where X, Y are N, S, or O) that may be acid/base labile, releasing an aldehyde.

>  <s_lp_Force_Field>  (68) 
OPLS3e

>  <r_lp_Energy>  (68) 
24.3778

>  <b_lp_Chiralities_Consistent>  (68) 
1

>  <s_lp_Variant>  (68) 
18:0-1

>  <s_i_glide_gridfile>  (68) 
pfpi4k_grid

>  <i_i_glide_lignum>  (68) 
27

>  <i_i_glide_rotatable_bonds>  (68) 
2

>  <r_i_docking_score>  (68) 
-3.75833

>  <r_i_glide_ligand_efficiency>  (68) 
-0.178968

>  <r_i_glide_ligand_efficiency_sa>  (68) 
-0.49376

>  <r_i_glide_ligand_efficiency_ln>  (68) 
-0.929241

>  <r_i_glide_gscore>  (68) 
-3.75833

>  <r_i_glide_lipo>  (68) 
-0.459252

>  <r_i_glide_hbond>  (68) 
-0.211278

>  <r_i_glide_metal>  (68) 
-0

>  <r_i_glide_rewards>  (68) 
-1.4866

>  <r_i_glide_evdw>  (68) 
-23.5826

>  <r_i_glide_ecoul>  (68) 
-5.08255

>  <r_i_glide_erotb>  (68) 
0.451275

>  <r_i_glide_esite>  (68) 
-0.110967

>  <r_i_glide_emodel>  (68) 
-35.8202

>  <r_i_glide_energy>  (68) 
-28.6652

>  <r_i_glide_einternal>  (68) 
0.265196

>  <r_i_glide_intrahb_reward>  (68) 
-0

>  <i_i_glide_confnum>  (68) 
4

>  <i_i_glide_posenum>  (68) 
35

>  <r_i_glide_eff_state_penalty>  (68) 
0

>  <ligand_id>  (68) 
18

>  <original_smiles>  (68) 
CC1OC(n2cnc3c(-n4nccn4)ncnc32)C2CC12

>  <smiles>  (68) 
[H]c1nc(-n2nc([H])c([H])n2)c2nc([H])n(C3([H])OC([H])(C([H])([H])[H])C4([H])C([H])([H])C34[H])c2n1

$$$$
18:0:1
     RDKit          3D

 34 38  0  0  1  0  0  0  0  0999 V2000
    3.4288   -0.9614   -3.0455 C   0  0  0  0  0  0  0  0  0  0  0  0
    3.3892   -2.2877   -2.2757 C   0  0  2  0  0  0  0  0  0  0  0  0
    3.6704   -2.1712   -0.8779 O   0  0  0  0  0  0  0  0  0  0  0  0
    4.3720   -3.2745   -0.3737 C   0  0  1  0  0  0  0  0  0  0  0  0
    3.4091   -4.2897    0.1805 N   0  0  0  0  0  0  0  0  0  0  0  0
    2.2125   -4.6612   -0.3095 C   0  0  0  0  0  0  0  0  0  0  0  0
    1.5562   -5.6604    0.2943 N   0  0  0  0  0  0  0  0  0  0  0  0
    2.4275   -5.9579    1.3264 C   0  0  0  0  0  0  0  0  0  0  0  0
    2.3660   -6.9284    2.3693 C   0  0  0  0  0  0  0  0  0  0  0  0
    1.2400   -7.7794    2.5242 N   0  0  0  0  0  0  0  0  0  0  0  0
   -0.0371   -7.4254    2.1642 N   0  0  0  0  0  0  0  0  0  0  0  0
   -0.7362   -8.4849    2.4823 C   0  0  0  0  0  0  0  0  0  0  0  0
    0.1123   -9.4628    3.0646 C   0  0  0  0  0  0  0  0  0  0  0  0
    1.3424   -9.0178    3.0923 N   0  0  0  0  0  0  0  0  0  0  0  0
    3.4354   -6.9842    3.2085 N   0  0  0  0  0  0  0  0  0  0  0  0
    4.4760   -6.1678    3.0489 C   0  0  0  0  0  0  0  0  0  0  0  0
    4.6604   -5.2116    2.1362 N   0  0  0  0  0  0  0  0  0  0  0  0
    3.5963   -5.1375    1.2746 C   0  0  0  0  0  0  0  0  0  0  0  0
    5.0446   -3.8802   -1.5608 C   0  0  2  0  0  0  0  0  0  0  0  0
    5.8880   -3.0574   -2.4923 C   0  0  0  0  0  0  0  0  0  0  0  0
    4.4184   -3.2577   -2.7642 C   0  0  2  0  0  0  0  0  0  0  0  0
    3.2232   -1.1503   -4.1033 H   0  0  0  0  0  0  0  0  0  0  0  0
    4.4042   -0.4725   -2.9828 H   0  0  0  0  0  0  0  0  0  0  0  0
    2.6636   -0.2625   -2.7032 H   0  0  0  0  0  0  0  0  0  0  0  0
    2.4005   -2.6986   -2.4203 H   0  0  0  0  0  0  0  0  0  0  0  0
    5.0187   -3.0011    0.4573 H   0  0  0  0  0  0  0  0  0  0  0  0
    1.7790   -4.2221   -1.1815 H   0  0  0  0  0  0  0  0  0  0  0  0
   -1.8002   -8.5223    2.2917 H   0  0  0  0  0  0  0  0  0  0  0  0
   -0.1238  -10.4481    3.4493 H   0  0  0  0  0  0  0  0  0  0  0  0
    5.2577   -6.3114    3.7724 H   0  0  0  0  0  0  0  0  0  0  0  0
    5.1888   -4.9628   -1.5489 H   0  0  0  0  0  0  0  0  0  0  0  0
    6.2065   -2.0782   -2.1346 H   0  0  0  0  0  0  0  0  0  0  0  0
    6.5936   -3.5822   -3.1301 H   0  0  0  0  0  0  0  0  0  0  0  0
    4.1313   -3.8955   -3.5988 H   0  0  0  0  0  0  0  0  0  0  0  0
  1  2  1  0
  1 22  1  0
  1 23  1  0
  1 24  1  0
  2 21  1  0
  2  3  1  0
  2 25  1  1
  3  4  1  0
  4  5  1  0
  4 19  1  0
  4 26  1  1
  5 18  1  0
  5  6  1  0
  6  7  2  0
  6 27  1  0
  7  8  1  0
  8 18  2  0
  8  9  1  0
  9 10  1  0
  9 15  2  0
 10 14  1  0
 10 11  1  0
 11 12  2  0
 12 13  1  0
 12 28  1  0
 13 14  2  0
 13 29  1  0
 15 16  1  0
 16 17  2  0
 16 30  1  0
 17 18  1  0
 19 21  1  0
 19 20  1  0
 19 31  1  6
 20 21  1  0
 20 32  1  0
 20 33  1  0
 21 34  1  6
M  END
>  <i_m_ct_stereo_status>  (69) 
1

>  <s_m_source_file>  (69) 
/var/tmp/pbs.5076255.sched01/tmp3_il56_a/09f63jmog.sdf

>  <i_m_source_file_index>  (69) 
27

>  <i_lp_mmshare_version>  (69) 
48012

>  <i_f3d_flags>  (69) 
0

>  <s_epik_input>  (69) 
W0NAQEhdMTJbQ0BIXShbQ0gyXTIpW0NASF0oW0NIM10pT1tDQEhdMW4oW2NIXW4zKWMoYzM0KW5bY0hdbmM0LW41bltjSF1bY0hdbjU=

>  <s_epik_cmdline>  (69) 
J2VwaWtfcHl0aG9uJywgJy1waHQnLCAnMi4wJywgJy1waCcsICc3LjAnLCAnLXRuJywgJzgnLCAnLW1hJywgJzIwMCcsICctaW1hZScsICc8aW5maWxlLm1hZT4nLCAnLW9tYWUnLCAnPG91dGZpbGUubWFlPic=

>  <r_lp_tautomer_probability>  (69) 
1

>  <r_epik_Ionization_Penalty>  (69) 
4.71612e-05

>  <r_epik_Ionization_Penalty_Charging>  (69) 
0

>  <r_epik_Ionization_Penalty_Neutral>  (69) 
4.71612e-05

>  <r_epik_State_Penalty>  (69) 
-0

>  <r_epik_Charging_Adjusted_Penalty>  (69) 
0

>  <i_epik_Tot_Q>  (69) 
0

>  <i_epik_Tot_abs_Q>  (69) 
0

>  <s_epik_Chemistry_Notes>  (69) 
This compound contains an acetal/aminal-like group ( X-CH(R)-Y where X, Y are N, S, or O) that may be acid/base labile, releasing an aldehyde.

>  <s_lp_Force_Field>  (69) 
OPLS3e

>  <r_lp_Energy>  (69) 
24.3778

>  <b_lp_Chiralities_Consistent>  (69) 
1

>  <s_lp_Variant>  (69) 
18:0-1

>  <s_i_glide_gridfile>  (69) 
pfpi4k_grid

>  <i_i_glide_lignum>  (69) 
27

>  <i_i_glide_rotatable_bonds>  (69) 
2

>  <r_i_docking_score>  (69) 
-3.63628

>  <r_i_glide_ligand_efficiency>  (69) 
-0.173156

>  <r_i_glide_ligand_efficiency_sa>  (69) 
-0.477725

>  <r_i_glide_ligand_efficiency_ln>  (69) 
-0.899064

>  <r_i_glide_gscore>  (69) 
-3.63628

>  <r_i_glide_lipo>  (69) 
-0.240325

>  <r_i_glide_hbond>  (69) 
-0.13116

>  <r_i_glide_metal>  (69) 
-0

>  <r_i_glide_rewards>  (69) 
-1.53903

>  <r_i_glide_evdw>  (69) 
-26.7991

>  <r_i_glide_ecoul>  (69) 
-4.77572

>  <r_i_glide_erotb>  (69) 
0.451275

>  <r_i_glide_esite>  (69) 
-0.120733

>  <r_i_glide_emodel>  (69) 
-38.3837

>  <r_i_glide_energy>  (69) 
-31.5748

>  <r_i_glide_einternal>  (69) 
0.247829

>  <r_i_glide_intrahb_reward>  (69) 
-0

>  <i_i_glide_confnum>  (69) 
4

>  <i_i_glide_posenum>  (69) 
1

>  <r_i_glide_eff_state_penalty>  (69) 
0

>  <ligand_id>  (69) 
18

>  <original_smiles>  (69) 
CC1OC(n2cnc3c(-n4nccn4)ncnc32)C2CC12

>  <smiles>  (69) 
[H]c1nc(-n2nc([H])c([H])n2)c2nc([H])n(C3([H])OC([H])(C([H])([H])[H])C4([H])C([H])([H])C34[H])c2n1

$$$$
18:0:2
     RDKit          3D

 34 38  0  0  1  0  0  0  0  0999 V2000
    4.6567   -0.6795   -1.1939 C   0  0  0  0  0  0  0  0  0  0  0  0
    4.1998   -2.1200   -0.9454 C   0  0  2  0  0  0  0  0  0  0  0  0
    4.8417   -2.7418    0.1728 O   0  0  0  0  0  0  0  0  0  0  0  0
    5.0919   -4.1002   -0.0473 C   0  0  1  0  0  0  0  0  0  0  0  0
    3.9539   -4.9172    0.4934 N   0  0  0  0  0  0  0  0  0  0  0  0
    2.6444   -4.6300    0.4519 C   0  0  0  0  0  0  0  0  0  0  0  0
    1.7857   -5.5231    0.9395 N   0  0  0  0  0  0  0  0  0  0  0  0
    2.6375   -6.5247    1.3543 C   0  0  0  0  0  0  0  0  0  0  0  0
    2.3884   -7.7922    1.9674 C   0  0  0  0  0  0  0  0  0  0  0  0
    1.0669   -8.2308    2.2857 N   0  0  0  0  0  0  0  0  0  0  0  0
   -0.0707   -7.4933    2.0492 N   0  0  0  0  0  0  0  0  0  0  0  0
   -1.0300   -8.2655    2.4801 C   0  0  0  0  0  0  0  0  0  0  0  0
   -0.4739   -9.4552    3.0082 C   0  0  0  0  0  0  0  0  0  0  0  0
    0.8272   -9.4358    2.8831 N   0  0  0  0  0  0  0  0  0  0  0  0
    3.4881   -8.5499    2.2267 N   0  0  0  0  0  0  0  0  0  0  0  0
    4.7120   -8.1268    1.9175 C   0  0  0  0  0  0  0  0  0  0  0  0
    5.0847   -6.9749    1.3544 N   0  0  0  0  0  0  0  0  0  0  0  0
    3.9993   -6.1857    1.0828 C   0  0  0  0  0  0  0  0  0  0  0  0
    5.0880   -4.2532   -1.5276 C   0  0  2  0  0  0  0  0  0  0  0  0
    5.9430   -3.4004   -2.4205 C   0  0  0  0  0  0  0  0  0  0  0  0
    4.5214   -3.0050   -2.1005 C   0  0  2  0  0  0  0  0  0  0  0  0
    4.1442   -0.2907   -2.0749 H   0  0  0  0  0  0  0  0  0  0  0  0
    5.7283   -0.6219   -1.3924 H   0  0  0  0  0  0  0  0  0  0  0  0
    4.4137   -0.0296   -0.3553 H   0  0  0  0  0  0  0  0  0  0  0  0
    3.1324   -2.0852   -0.7954 H   0  0  0  0  0  0  0  0  0  0  0  0
    5.9751   -4.4644    0.4723 H   0  0  0  0  0  0  0  0  0  0  0  0
    2.2443   -3.7344    0.0282 H   0  0  0  0  0  0  0  0  0  0  0  0
   -2.0624   -7.9531    2.4212 H   0  0  0  0  0  0  0  0  0  0  0  0
   -0.9686  -10.2947    3.4718 H   0  0  0  0  0  0  0  0  0  0  0  0
    5.4908   -8.8188    2.1775 H   0  0  0  0  0  0  0  0  0  0  0  0
    4.7748   -5.2154   -1.9153 H   0  0  0  0  0  0  0  0  0  0  0  0
    6.7624   -2.8698   -1.9357 H   0  0  0  0  0  0  0  0  0  0  0  0
    6.1479   -3.7881   -3.4149 H   0  0  0  0  0  0  0  0  0  0  0  0
    3.7837   -3.0718   -2.8971 H   0  0  0  0  0  0  0  0  0  0  0  0
  1  2  1  0
  1 22  1  0
  1 23  1  0
  1 24  1  0
  2 21  1  0
  2  3  1  0
  2 25  1  1
  3  4  1  0
  4  5  1  0
  4 19  1  0
  4 26  1  1
  5 18  1  0
  5  6  1  0
  6  7  2  0
  6 27  1  0
  7  8  1  0
  8 18  2  0
  8  9  1  0
  9 10  1  0
  9 15  2  0
 10 14  1  0
 10 11  1  0
 11 12  2  0
 12 13  1  0
 12 28  1  0
 13 14  2  0
 13 29  1  0
 15 16  1  0
 16 17  2  0
 16 30  1  0
 17 18  1  0
 19 21  1  0
 19 20  1  0
 19 31  1  1
 20 21  1  0
 20 32  1  0
 20 33  1  0
 21 34  1  6
M  END
>  <i_m_ct_stereo_status>  (70) 
1

>  <s_m_source_file>  (70) 
/var/tmp/pbs.5076255.sched01/tmp3_il56_a/09f63jmog.sdf

>  <i_m_source_file_index>  (70) 
27

>  <i_lp_mmshare_version>  (70) 
48012

>  <i_f3d_flags>  (70) 
0

>  <s_epik_input>  (70) 
W0NAQEhdMTJbQ0BIXShbQ0gyXTIpW0NASF0oW0NIM10pT1tDQEhdMW4oW2NIXW4zKWMoYzM0KW5bY0hdbmM0LW41bltjSF1bY0hdbjU=

>  <s_epik_cmdline>  (70) 
J2VwaWtfcHl0aG9uJywgJy1waHQnLCAnMi4wJywgJy1waCcsICc3LjAnLCAnLXRuJywgJzgnLCAnLW1hJywgJzIwMCcsICctaW1hZScsICc8aW5maWxlLm1hZT4nLCAnLW9tYWUnLCAnPG91dGZpbGUubWFlPic=

>  <r_lp_tautomer_probability>  (70) 
1

>  <r_epik_Ionization_Penalty>  (70) 
4.71612e-05

>  <r_epik_Ionization_Penalty_Charging>  (70) 
0

>  <r_epik_Ionization_Penalty_Neutral>  (70) 
4.71612e-05

>  <r_epik_State_Penalty>  (70) 
-0

>  <r_epik_Charging_Adjusted_Penalty>  (70) 
0

>  <i_epik_Tot_Q>  (70) 
0

>  <i_epik_Tot_abs_Q>  (70) 
0

>  <s_epik_Chemistry_Notes>  (70) 
This compound contains an acetal/aminal-like group ( X-CH(R)-Y where X, Y are N, S, or O) that may be acid/base labile, releasing an aldehyde.

>  <s_lp_Force_Field>  (70) 
OPLS3e

>  <r_lp_Energy>  (70) 
24.3778

>  <b_lp_Chiralities_Consistent>  (70) 
1

>  <s_lp_Variant>  (70) 
18:0-1

>  <s_i_glide_gridfile>  (70) 
pfpi4k_grid

>  <i_i_glide_lignum>  (70) 
27

>  <i_i_glide_rotatable_bonds>  (70) 
2

>  <r_i_docking_score>  (70) 
-3.53448

>  <r_i_glide_ligand_efficiency>  (70) 
-0.168308

>  <r_i_glide_ligand_efficiency_sa>  (70) 
-0.46435

>  <r_i_glide_ligand_efficiency_ln>  (70) 
-0.873892

>  <r_i_glide_gscore>  (70) 
-3.53448

>  <r_i_glide_lipo>  (70) 
-0.292668

>  <r_i_glide_hbond>  (70) 
-0.104184

>  <r_i_glide_metal>  (70) 
-0

>  <r_i_glide_rewards>  (70) 
-1.6978

>  <r_i_glide_evdw>  (70) 
-25.3562

>  <r_i_glide_ecoul>  (70) 
-3.63065

>  <r_i_glide_erotb>  (70) 
0.451275

>  <r_i_glide_esite>  (70) 
-0.0786959

>  <r_i_glide_emodel>  (70) 
-35.6288

>  <r_i_glide_energy>  (70) 
-28.9869

>  <r_i_glide_einternal>  (70) 
0.00851797

>  <r_i_glide_intrahb_reward>  (70) 
-0

>  <i_i_glide_confnum>  (70) 
4

>  <i_i_glide_posenum>  (70) 
29

>  <r_i_glide_eff_state_penalty>  (70) 
0

>  <ligand_id>  (70) 
18

>  <original_smiles>  (70) 
CC1OC(n2cnc3c(-n4nccn4)ncnc32)C2CC12

>  <smiles>  (70) 
[H]c1nc(-n2nc([H])c([H])n2)c2nc([H])n(C3([H])OC([H])(C([H])([H])[H])C4([H])C([H])([H])C34[H])c2n1

$$$$
19:0:0
     RDKit          3D

 21 23  0  0  1  0  0  0  0  0999 V2000
    5.5675   -4.4878   -0.0345 C   0  0  0  0  0  0  0  0  0  0  0  0
    4.6892   -5.4149    0.5535 C   0  0  0  0  0  0  0  0  0  0  0  0
    3.3002   -5.1830    0.4769 C   0  0  0  0  0  0  0  0  0  0  0  0
    2.3113   -6.1056    1.0597 C   0  0  0  0  0  0  0  0  0  0  0  0
    0.9894   -5.8616    1.1095 N   0  0  0  0  0  0  0  0  0  0  0  0
    0.5087   -6.9703    1.7426 C   0  0  0  0  0  0  0  0  0  0  0  0
   -0.7724   -7.2252    2.0912 N   0  0  0  0  0  0  0  0  0  0  0  0
   -1.0053   -8.4122    2.6941 C   0  0  0  0  0  0  0  0  0  0  0  0
    0.0362   -9.3306    2.9622 C   0  0  0  0  0  0  0  0  0  0  0  0
    1.3250   -9.0583    2.6415 N   0  0  0  0  0  0  0  0  0  0  0  0
    1.5452   -7.8711    2.0335 C   0  0  0  0  0  0  0  0  0  0  0  0
    2.6610   -7.2962    1.6069 N   0  0  0  0  0  0  0  0  0  0  0  0
    2.8758   -4.0158   -0.1948 C   0  0  0  0  0  0  0  0  0  0  0  0
    3.8312   -3.1533   -0.7576 C   0  0  0  0  0  0  0  0  0  0  0  0
    5.1609   -3.3747   -0.6810 N   0  0  0  0  0  0  0  0  0  0  0  0
    6.6337   -4.6454    0.0127 H   0  0  0  0  0  0  0  0  0  0  0  0
    5.0668   -6.2935    1.0550 H   0  0  0  0  0  0  0  0  0  0  0  0
   -2.0297   -8.6275    2.9574 H   0  0  0  0  0  0  0  0  0  0  0  0
   -0.1696  -10.2759    3.4451 H   0  0  0  0  0  0  0  0  0  0  0  0
    1.8249   -3.7899   -0.2948 H   0  0  0  0  0  0  0  0  0  0  0  0
    3.5120   -2.2620   -1.2800 H   0  0  0  0  0  0  0  0  0  0  0  0
  1 15  2  0
  1  2  1  0
  1 16  1  0
  2  3  2  0
  2 17  1  0
  3  4  1  0
  3 13  1  0
  4 12  1  0
  4  5  2  0
  5  6  1  0
  6 11  2  0
  6  7  1  0
  7  8  2  0
  8  9  1  0
  8 18  1  0
  9 10  2  0
  9 19  1  0
 10 11  1  0
 11 12  1  0
 13 14  2  0
 13 20  1  0
 14 15  1  0
 14 21  1  0
M  CHG  1  12  -1
M  END
>  <i_m_ct_stereo_status>  (71) 
1

>  <s_m_source_file>  (71) 
/var/tmp/pbs.5076255.sched01/tmp3_il56_a/09f63jmog.sdf

>  <i_m_source_file_index>  (71) 
28

>  <i_lp_mmshare_version>  (71) 
48012

>  <i_f3d_flags>  (71) 
0

>  <s_epik_input>  (71) 
W2NIXTFbY0hdbltjSF1bY0hdYzEtYyhuMilbbkhdYyhjMjMpbltjSF1bY0hdbjM=

>  <s_epik_cmdline>  (71) 
J2VwaWtfcHl0aG9uJywgJy1waHQnLCAnMi4wJywgJy1waCcsICc3LjAnLCAnLXRuJywgJzgnLCAnLW1hJywgJzIwMCcsICctaW1hZScsICc8aW5maWxlLm1hZT4nLCAnLW9tYWUnLCAnPG91dGZpbGUubWFlPic=

>  <r_lp_tautomer_probability>  (71) 
1

>  <r_epik_Ionization_Penalty>  (71) 
0.730795

>  <r_epik_Ionization_Penalty_Charging>  (71) 
0.722727

>  <r_epik_Ionization_Penalty_Neutral>  (71) 
0.00806711

>  <r_epik_State_Penalty>  (71) 
0.227572

>  <r_epik_Charging_Adjusted_Penalty>  (71) 
0.950299

>  <i_epik_Tot_Q>  (71) 
-1

>  <i_epik_Tot_abs_Q>  (71) 
1

>  <s_lp_Force_Field>  (71) 
OPLS3e

>  <r_lp_Energy>  (71) 
30.5029

>  <b_lp_Chiralities_Consistent>  (71) 
1

>  <s_lp_Variant>  (71) 
19:0-1

>  <s_i_glide_gridfile>  (71) 
pfpi4k_grid

>  <i_i_glide_lignum>  (71) 
28

>  <i_i_glide_rotatable_bonds>  (71) 
1

>  <r_i_docking_score>  (71) 
-4.27489

>  <r_i_glide_ligand_efficiency>  (71) 
-0.284992

>  <r_i_glide_ligand_efficiency_sa>  (71) 
-0.702852

>  <r_i_glide_ligand_efficiency_ln>  (71) 
-1.15287

>  <r_i_glide_gscore>  (71) 
-4.27489

>  <r_i_glide_lipo>  (71) 
-0.146172

>  <r_i_glide_hbond>  (71) 
-0.263596

>  <r_i_glide_metal>  (71) 
-0

>  <r_i_glide_rewards>  (71) 
-2.07144

>  <r_i_glide_evdw>  (71) 
-16.272

>  <r_i_glide_ecoul>  (71) 
-8.41889

>  <r_i_glide_erotb>  (71) 
0.421624

>  <r_i_glide_esite>  (71) 
-0.138865

>  <r_i_glide_emodel>  (71) 
-33.334

>  <r_i_glide_energy>  (71) 
-24.6909

>  <r_i_glide_einternal>  (71) 
0.0424805

>  <r_i_glide_intrahb_reward>  (71) 
-0

>  <i_i_glide_confnum>  (71) 
3

>  <i_i_glide_posenum>  (71) 
14

>  <r_i_glide_eff_state_penalty>  (71) 
0

>  <ligand_id>  (71) 
19

>  <original_smiles>  (71) 
c1cc(-c2nc3nccnc3[nH]2)ccn1

>  <smiles>  (71) 
[H]c1nc2nc(-c3c([H])c([H])nc([H])c3[H])[n-]c2nc1[H]

$$$$
19:0:1
     RDKit          3D

 21 23  0  0  1  0  0  0  0  0999 V2000
    6.1514   -3.2774   -0.9406 C   0  0  0  0  0  0  0  0  0  0  0  0
    5.3962   -4.2809   -0.3052 C   0  0  0  0  0  0  0  0  0  0  0  0
    3.9903   -4.1854   -0.2710 C   0  0  0  0  0  0  0  0  0  0  0  0
    3.1990   -5.2367    0.3989 C   0  0  0  0  0  0  0  0  0  0  0  0
    3.7204   -6.2719    1.0873 N   0  0  0  0  0  0  0  0  0  0  0  0
    2.6135   -6.9479    1.5061 C   0  0  0  0  0  0  0  0  0  0  0  0
    2.5492   -8.0826    2.2319 N   0  0  0  0  0  0  0  0  0  0  0  0
    1.3133   -8.5495    2.5111 C   0  0  0  0  0  0  0  0  0  0  0  0
    0.1434   -7.8771    2.0803 C   0  0  0  0  0  0  0  0  0  0  0  0
    0.1998   -6.7362    1.3579 N   0  0  0  0  0  0  0  0  0  0  0  0
    1.4484   -6.2977    1.0694 C   0  0  0  0  0  0  0  0  0  0  0  0
    1.8418   -5.2464    0.3746 N   0  0  0  0  0  0  0  0  0  0  0  0
    3.4143   -3.0521   -0.8887 C   0  0  0  0  0  0  0  0  0  0  0  0
    4.2509   -2.0955   -1.4977 C   0  0  0  0  0  0  0  0  0  0  0  0
    5.5990   -2.1948   -1.5247 N   0  0  0  0  0  0  0  0  0  0  0  0
    7.2280   -3.3534   -0.9743 H   0  0  0  0  0  0  0  0  0  0  0  0
    5.8831   -5.1290    0.1505 H   0  0  0  0  0  0  0  0  0  0  0  0
    1.2658   -9.4589    3.0877 H   0  0  0  0  0  0  0  0  0  0  0  0
   -0.8338   -8.2681    2.3173 H   0  0  0  0  0  0  0  0  0  0  0  0
    2.3432   -2.9133   -0.8938 H   0  0  0  0  0  0  0  0  0  0  0  0
    3.8300   -1.2239   -1.9757 H   0  0  0  0  0  0  0  0  0  0  0  0
  1 15  2  0
  1  2  1  0
  1 16  1  0
  2  3  2  0
  2 17  1  0
  3  4  1  0
  3 13  1  0
  4 12  1  0
  4  5  2  0
  5  6  1  0
  6 11  2  0
  6  7  1  0
  7  8  2  0
  8  9  1  0
  8 18  1  0
  9 10  2  0
  9 19  1  0
 10 11  1  0
 11 12  1  0
 13 14  2  0
 13 20  1  0
 14 15  1  0
 14 21  1  0
M  CHG  1  12  -1
M  END
>  <i_m_ct_stereo_status>  (72) 
1

>  <s_m_source_file>  (72) 
/var/tmp/pbs.5076255.sched01/tmp3_il56_a/09f63jmog.sdf

>  <i_m_source_file_index>  (72) 
28

>  <i_lp_mmshare_version>  (72) 
48012

>  <i_f3d_flags>  (72) 
0

>  <s_epik_input>  (72) 
W2NIXTFbY0hdbltjSF1bY0hdYzEtYyhuMilbbkhdYyhjMjMpbltjSF1bY0hdbjM=

>  <s_epik_cmdline>  (72) 
J2VwaWtfcHl0aG9uJywgJy1waHQnLCAnMi4wJywgJy1waCcsICc3LjAnLCAnLXRuJywgJzgnLCAnLW1hJywgJzIwMCcsICctaW1hZScsICc8aW5maWxlLm1hZT4nLCAnLW9tYWUnLCAnPG91dGZpbGUubWFlPic=

>  <r_lp_tautomer_probability>  (72) 
1

>  <r_epik_Ionization_Penalty>  (72) 
0.730795

>  <r_epik_Ionization_Penalty_Charging>  (72) 
0.722727

>  <r_epik_Ionization_Penalty_Neutral>  (72) 
0.00806711

>  <r_epik_State_Penalty>  (72) 
0.227572

>  <r_epik_Charging_Adjusted_Penalty>  (72) 
0.950299

>  <i_epik_Tot_Q>  (72) 
-1

>  <i_epik_Tot_abs_Q>  (72) 
1

>  <s_lp_Force_Field>  (72) 
OPLS3e

>  <r_lp_Energy>  (72) 
30.5029

>  <b_lp_Chiralities_Consistent>  (72) 
1

>  <s_lp_Variant>  (72) 
19:0-1

>  <s_i_glide_gridfile>  (72) 
pfpi4k_grid

>  <i_i_glide_lignum>  (72) 
28

>  <i_i_glide_rotatable_bonds>  (72) 
1

>  <r_i_docking_score>  (72) 
-3.48341

>  <r_i_glide_ligand_efficiency>  (72) 
-0.232227

>  <r_i_glide_ligand_efficiency_sa>  (72) 
-0.572722

>  <r_i_glide_ligand_efficiency_ln>  (72) 
-0.939418

>  <r_i_glide_gscore>  (72) 
-3.48341

>  <r_i_glide_lipo>  (72) 
-0.159273

>  <r_i_glide_hbond>  (72) 
-0.207015

>  <r_i_glide_metal>  (72) 
-0

>  <r_i_glide_rewards>  (72) 
-2.07144

>  <r_i_glide_evdw>  (72) 
-18.7968

>  <r_i_glide_ecoul>  (72) 
-2.90065

>  <r_i_glide_erotb>  (72) 
0.421624

>  <r_i_glide_esite>  (72) 
-0.0923651

>  <r_i_glide_emodel>  (72) 
-28.7406

>  <r_i_glide_energy>  (72) 
-21.6974

>  <r_i_glide_einternal>  (72) 
0.0162817

>  <r_i_glide_intrahb_reward>  (72) 
-0

>  <i_i_glide_confnum>  (72) 
4

>  <i_i_glide_posenum>  (72) 
23

>  <r_i_glide_eff_state_penalty>  (72) 
0

>  <ligand_id>  (72) 
19

>  <original_smiles>  (72) 
c1cc(-c2nc3nccnc3[nH]2)ccn1

>  <smiles>  (72) 
[H]c1nc2nc(-c3c([H])c([H])nc([H])c3[H])[n-]c2nc1[H]

$$$$
19:0:2
     RDKit          3D

 21 23  0  0  1  0  0  0  0  0999 V2000
   -1.7693    3.0096    3.1793 C   0  0  0  0  0  0  0  0  0  0  0  0
   -1.3556    1.6836    3.4004 C   0  0  0  0  0  0  0  0  0  0  0  0
   -1.3698    1.1748    4.7154 C   0  0  0  0  0  0  0  0  0  0  0  0
   -1.0107   -0.2191    5.0201 C   0  0  0  0  0  0  0  0  0  0  0  0
   -1.4768   -0.9090    6.0777 N   0  0  0  0  0  0  0  0  0  0  0  0
   -0.8224   -2.1010    5.9554 C   0  0  0  0  0  0  0  0  0  0  0  0
   -0.9102   -3.1742    6.7718 N   0  0  0  0  0  0  0  0  0  0  0  0
   -0.1776   -4.2583    6.4286 C   0  0  0  0  0  0  0  0  0  0  0  0
    0.6372   -4.2731    5.2734 C   0  0  0  0  0  0  0  0  0  0  0  0
    0.7304   -3.1937    4.4591 N   0  0  0  0  0  0  0  0  0  0  0  0
   -0.0007   -2.1109    4.8156 C   0  0  0  0  0  0  0  0  0  0  0  0
   -0.1422   -0.9208    4.2512 N   0  0  0  0  0  0  0  0  0  0  0  0
   -1.7823    2.0397    5.7477 C   0  0  0  0  0  0  0  0  0  0  0  0
   -2.1720    3.3482    5.4249 C   0  0  0  0  0  0  0  0  0  0  0  0
   -2.1787    3.8365    4.1671 N   0  0  0  0  0  0  0  0  0  0  0  0
   -1.7872    3.4155    2.1797 H   0  0  0  0  0  0  0  0  0  0  0  0
   -1.0635    1.0495    2.5759 H   0  0  0  0  0  0  0  0  0  0  0  0
   -0.2535   -5.1186    7.0761 H   0  0  0  0  0  0  0  0  0  0  0  0
    1.2099   -5.1518    5.0027 H   0  0  0  0  0  0  0  0  0  0  0  0
   -1.8059    1.6951    6.7711 H   0  0  0  0  0  0  0  0  0  0  0  0
   -2.4926    4.0231    6.2049 H   0  0  0  0  0  0  0  0  0  0  0  0
  1 15  2  0
  1  2  1  0
  1 16  1  0
  2  3  2  0
  2 17  1  0
  3  4  1  0
  3 13  1  0
  4 12  1  0
  4  5  2  0
  5  6  1  0
  6 11  2  0
  6  7  1  0
  7  8  2  0
  8  9  1  0
  8 18  1  0
  9 10  2  0
  9 19  1  0
 10 11  1  0
 11 12  1  0
 13 14  2  0
 13 20  1  0
 14 15  1  0
 14 21  1  0
M  CHG  1  12  -1
M  END
>  <i_m_ct_stereo_status>  (73) 
1

>  <s_m_source_file>  (73) 
/var/tmp/pbs.5076255.sched01/tmp3_il56_a/09f63jmog.sdf

>  <i_m_source_file_index>  (73) 
28

>  <i_lp_mmshare_version>  (73) 
48012

>  <i_f3d_flags>  (73) 
0

>  <s_epik_input>  (73) 
W2NIXTFbY0hdbltjSF1bY0hdYzEtYyhuMilbbkhdYyhjMjMpbltjSF1bY0hdbjM=

>  <s_epik_cmdline>  (73) 
J2VwaWtfcHl0aG9uJywgJy1waHQnLCAnMi4wJywgJy1waCcsICc3LjAnLCAnLXRuJywgJzgnLCAnLW1hJywgJzIwMCcsICctaW1hZScsICc8aW5maWxlLm1hZT4nLCAnLW9tYWUnLCAnPG91dGZpbGUubWFlPic=

>  <r_lp_tautomer_probability>  (73) 
1

>  <r_epik_Ionization_Penalty>  (73) 
0.730795

>  <r_epik_Ionization_Penalty_Charging>  (73) 
0.722727

>  <r_epik_Ionization_Penalty_Neutral>  (73) 
0.00806711

>  <r_epik_State_Penalty>  (73) 
0.227572

>  <r_epik_Charging_Adjusted_Penalty>  (73) 
0.950299

>  <i_epik_Tot_Q>  (73) 
-1

>  <i_epik_Tot_abs_Q>  (73) 
1

>  <s_lp_Force_Field>  (73) 
OPLS3e

>  <r_lp_Energy>  (73) 
30.5029

>  <b_lp_Chiralities_Consistent>  (73) 
1

>  <s_lp_Variant>  (73) 
19:0-1

>  <s_i_glide_gridfile>  (73) 
pfpi4k_grid

>  <i_i_glide_lignum>  (73) 
28

>  <i_i_glide_rotatable_bonds>  (73) 
1

>  <r_i_docking_score>  (73) 
-3.47294

>  <r_i_glide_ligand_efficiency>  (73) 
-0.23153

>  <r_i_glide_ligand_efficiency_sa>  (73) 
-0.571001

>  <r_i_glide_ligand_efficiency_ln>  (73) 
-0.936596

>  <r_i_glide_gscore>  (73) 
-3.47294

>  <r_i_glide_lipo>  (73) 
0

>  <r_i_glide_hbond>  (73) 
-0.0735925

>  <r_i_glide_metal>  (73) 
-0

>  <r_i_glide_rewards>  (73) 
-2.07946

>  <r_i_glide_evdw>  (73) 
-14.8925

>  <r_i_glide_ecoul>  (73) 
-6.12421

>  <r_i_glide_erotb>  (73) 
0.421624

>  <r_i_glide_esite>  (73) 
-0.0782592

>  <r_i_glide_emodel>  (73) 
-27.7913

>  <r_i_glide_energy>  (73) 
-21.0167

>  <r_i_glide_einternal>  (73) 
0.448404

>  <r_i_glide_intrahb_reward>  (73) 
-0

>  <i_i_glide_confnum>  (73) 
1

>  <i_i_glide_posenum>  (73) 
39

>  <r_i_glide_eff_state_penalty>  (73) 
0

>  <ligand_id>  (73) 
19

>  <original_smiles>  (73) 
c1cc(-c2nc3nccnc3[nH]2)ccn1

>  <smiles>  (73) 
[H]c1nc2nc(-c3c([H])c([H])nc([H])c3[H])[n-]c2nc1[H]

$$$$
19:1:0
     RDKit          3D

 22 24  0  0  1  0  0  0  0  0999 V2000
    6.5007   -3.0046   -0.8698 C   0  0  0  0  0  0  0  0  0  0  0  0
    5.7633   -4.0659   -0.3103 C   0  0  0  0  0  0  0  0  0  0  0  0
    4.3583   -3.9491   -0.2179 C   0  0  0  0  0  0  0  0  0  0  0  0
    3.5489   -5.0304    0.3564 C   0  0  0  0  0  0  0  0  0  0  0  0
    2.2152   -4.9640    0.4724 N   0  0  0  0  0  0  0  0  0  0  0  0
    1.8710   -6.1740    1.0489 C   0  0  0  0  0  0  0  0  0  0  0  0
    0.6426   -6.6041    1.3683 N   0  0  0  0  0  0  0  0  0  0  0  0
    0.6144   -7.8432    1.9278 C   0  0  0  0  0  0  0  0  0  0  0  0
    1.7738   -8.6304    2.1531 C   0  0  0  0  0  0  0  0  0  0  0  0
    3.0246   -8.2107    1.8362 N   0  0  0  0  0  0  0  0  0  0  0  0
    3.0259   -6.9641    1.2828 C   0  0  0  0  0  0  0  0  0  0  0  0
    4.0721   -6.1883    0.8205 N   0  0  0  0  0  0  0  0  0  0  0  0
    3.7706   -2.7526   -0.6898 C   0  0  0  0  0  0  0  0  0  0  0  0
    4.6022   -1.7482   -1.2258 C   0  0  0  0  0  0  0  0  0  0  0  0
    5.9445   -1.8609   -1.3203 N   0  0  0  0  0  0  0  0  0  0  0  0
    5.0519   -6.4232    0.8125 H   0  0  0  0  0  0  0  0  0  0  0  0
    7.5751   -3.0746   -0.9539 H   0  0  0  0  0  0  0  0  0  0  0  0
    6.2828   -4.9480    0.0314 H   0  0  0  0  0  0  0  0  0  0  0  0
   -0.3597   -8.2226    2.1987 H   0  0  0  0  0  0  0  0  0  0  0  0
    1.6890   -9.6115    2.5982 H   0  0  0  0  0  0  0  0  0  0  0  0
    2.7010   -2.5875   -0.6492 H   0  0  0  0  0  0  0  0  0  0  0  0
    4.1833   -0.8249   -1.5967 H   0  0  0  0  0  0  0  0  0  0  0  0
  1 15  2  0
  1  2  1  0
  1 17  1  0
  2  3  2  0
  2 18  1  0
  3  4  1  0
  3 13  1  0
  4 12  1  0
  4  5  2  0
  5  6  1  0
  6 11  2  0
  6  7  1  0
  7  8  2  0
  8  9  1  0
  8 19  1  0
  9 10  2  0
  9 20  1  0
 10 11  1  0
 11 12  1  0
 12 16  1  0
 13 14  2  0
 13 21  1  0
 14 15  1  0
 14 22  1  0
M  END
>  <i_m_ct_stereo_status>  (74) 
1

>  <s_m_source_file>  (74) 
/var/tmp/pbs.5076255.sched01/tmp3_il56_a/09f63jmog.sdf

>  <i_m_source_file_index>  (74) 
29

>  <i_lp_mmshare_version>  (74) 
48012

>  <i_f3d_flags>  (74) 
0

>  <s_epik_input>  (74) 
W2NIXTFbY0hdbltjSF1bY0hdYzEtYyhuMilbbkhdYyhjMjMpbltjSF1bY0hdbjM=

>  <s_epik_cmdline>  (74) 
J2VwaWtfcHl0aG9uJywgJy1waHQnLCAnMi4wJywgJy1waCcsICc3LjAnLCAnLXRuJywgJzgnLCAnLW1hJywgJzIwMCcsICctaW1hZScsICc8aW5maWxlLm1hZT4nLCAnLW9tYWUnLCAnPG91dGZpbGUubWFlPic=

>  <r_lp_tautomer_probability>  (74) 
0.505991

>  <r_epik_Ionization_Penalty>  (74) 
0.21459

>  <r_epik_Ionization_Penalty_Charging>  (74) 
0

>  <r_epik_Ionization_Penalty_Neutral>  (74) 
0.21459

>  <r_epik_State_Penalty>  (74) 
0.76576

>  <r_epik_Charging_Adjusted_Penalty>  (74) 
0.76576

>  <i_epik_Tot_Q>  (74) 
0

>  <i_epik_Tot_abs_Q>  (74) 
0

>  <s_lp_Force_Field>  (74) 
OPLS3e

>  <r_lp_Energy>  (74) 
27.3757

>  <b_lp_Chiralities_Consistent>  (74) 
1

>  <s_lp_Variant>  (74) 
19:0-2

>  <s_i_glide_gridfile>  (74) 
pfpi4k_grid

>  <i_i_glide_lignum>  (74) 
29

>  <i_i_glide_rotatable_bonds>  (74) 
1

>  <r_i_docking_score>  (74) 
-3.66474

>  <r_i_glide_ligand_efficiency>  (74) 
-0.244316

>  <r_i_glide_ligand_efficiency_sa>  (74) 
-0.602535

>  <r_i_glide_ligand_efficiency_ln>  (74) 
-0.98832

>  <r_i_glide_gscore>  (74) 
-3.66474

>  <r_i_glide_lipo>  (74) 
-0.0919919

>  <r_i_glide_hbond>  (74) 
-0.189035

>  <r_i_glide_metal>  (74) 
-0

>  <r_i_glide_rewards>  (74) 
-2.12758

>  <r_i_glide_evdw>  (74) 
-19.3849

>  <r_i_glide_ecoul>  (74) 
-4.3232

>  <r_i_glide_erotb>  (74) 
0.418047

>  <r_i_glide_esite>  (74) 
-0.0564565

>  <r_i_glide_emodel>  (74) 
-30.1119

>  <r_i_glide_energy>  (74) 
-23.7081

>  <r_i_glide_einternal>  (74) 
0.000938232

>  <r_i_glide_intrahb_reward>  (74) 
-0

>  <i_i_glide_confnum>  (74) 
3

>  <i_i_glide_posenum>  (74) 
39

>  <r_i_glide_eff_state_penalty>  (74) 
0

>  <ligand_id>  (74) 
19

>  <original_smiles>  (74) 
c1cc(-c2nc3nccnc3[nH]2)ccn1

>  <smiles>  (74) 
[H]c1nc2nc(-c3c([H])c([H])nc([H])c3[H])n([H])c2nc1[H]

$$$$
19:1:1
     RDKit          3D

 22 24  0  0  1  0  0  0  0  0999 V2000
    4.6349   -1.0902   -1.8987 C   0  0  0  0  0  0  0  0  0  0  0  0
    4.5224   -2.1484   -0.9756 C   0  0  0  0  0  0  0  0  0  0  0  0
    3.5775   -3.1594   -1.2369 C   0  0  0  0  0  0  0  0  0  0  0  0
    3.4184   -4.2794   -0.3165 C   0  0  0  0  0  0  0  0  0  0  0  0
    2.2140   -4.7271    0.0655 N   0  0  0  0  0  0  0  0  0  0  0  0
    2.5142   -5.7867    0.9015 C   0  0  0  0  0  0  0  0  0  0  0  0
    1.6474   -6.5732    1.5479 N   0  0  0  0  0  0  0  0  0  0  0  0
    2.2256   -7.5323    2.3186 C   0  0  0  0  0  0  0  0  0  0  0  0
    3.6276   -7.6985    2.4407 C   0  0  0  0  0  0  0  0  0  0  0  0
    4.5235   -6.9108    1.7934 N   0  0  0  0  0  0  0  0  0  0  0  0
    3.9177   -5.9548    1.0278 C   0  0  0  0  0  0  0  0  0  0  0  0
    4.4557   -4.9549    0.2301 N   0  0  0  0  0  0  0  0  0  0  0  0
    2.8004   -3.0578   -2.4139 C   0  0  0  0  0  0  0  0  0  0  0  0
    3.0143   -1.9679   -3.2775 C   0  0  0  0  0  0  0  0  0  0  0  0
    3.9301   -1.0113   -3.0433 N   0  0  0  0  0  0  0  0  0  0  0  0
    5.4283   -4.7705    0.0420 H   0  0  0  0  0  0  0  0  0  0  0  0
    5.3308   -0.2875   -1.7293 H   0  0  0  0  0  0  0  0  0  0  0  0
    5.1243   -2.1661   -0.0763 H   0  0  0  0  0  0  0  0  0  0  0  0
    1.5556   -8.1800    2.8623 H   0  0  0  0  0  0  0  0  0  0  0  0
    4.0328   -8.4694    3.0783 H   0  0  0  0  0  0  0  0  0  0  0  0
    2.0760   -3.8199   -2.6723 H   0  0  0  0  0  0  0  0  0  0  0  0
    2.4574   -1.8632   -4.1985 H   0  0  0  0  0  0  0  0  0  0  0  0
  1 15  2  0
  1  2  1  0
  1 17  1  0
  2  3  2  0
  2 18  1  0
  3  4  1  0
  3 13  1  0
  4 12  1  0
  4  5  2  0
  5  6  1  0
  6 11  2  0
  6  7  1  0
  7  8  2  0
  8  9  1  0
  8 19  1  0
  9 10  2  0
  9 20  1  0
 10 11  1  0
 11 12  1  0
 12 16  1  0
 13 14  2  0
 13 21  1  0
 14 15  1  0
 14 22  1  0
M  END
>  <i_m_ct_stereo_status>  (75) 
1

>  <s_m_source_file>  (75) 
/var/tmp/pbs.5076255.sched01/tmp3_il56_a/09f63jmog.sdf

>  <i_m_source_file_index>  (75) 
29

>  <i_lp_mmshare_version>  (75) 
48012

>  <i_f3d_flags>  (75) 
0

>  <s_epik_input>  (75) 
W2NIXTFbY0hdbltjSF1bY0hdYzEtYyhuMilbbkhdYyhjMjMpbltjSF1bY0hdbjM=

>  <s_epik_cmdline>  (75) 
J2VwaWtfcHl0aG9uJywgJy1waHQnLCAnMi4wJywgJy1waCcsICc3LjAnLCAnLXRuJywgJzgnLCAnLW1hJywgJzIwMCcsICctaW1hZScsICc8aW5maWxlLm1hZT4nLCAnLW9tYWUnLCAnPG91dGZpbGUubWFlPic=

>  <r_lp_tautomer_probability>  (75) 
0.505991

>  <r_epik_Ionization_Penalty>  (75) 
0.21459

>  <r_epik_Ionization_Penalty_Charging>  (75) 
0

>  <r_epik_Ionization_Penalty_Neutral>  (75) 
0.21459

>  <r_epik_State_Penalty>  (75) 
0.76576

>  <r_epik_Charging_Adjusted_Penalty>  (75) 
0.76576

>  <i_epik_Tot_Q>  (75) 
0

>  <i_epik_Tot_abs_Q>  (75) 
0

>  <s_lp_Force_Field>  (75) 
OPLS3e

>  <r_lp_Energy>  (75) 
27.3757

>  <b_lp_Chiralities_Consistent>  (75) 
1

>  <s_lp_Variant>  (75) 
19:0-2

>  <s_i_glide_gridfile>  (75) 
pfpi4k_grid

>  <i_i_glide_lignum>  (75) 
29

>  <i_i_glide_rotatable_bonds>  (75) 
1

>  <r_i_docking_score>  (75) 
-3.29489

>  <r_i_glide_ligand_efficiency>  (75) 
-0.219659

>  <r_i_glide_ligand_efficiency_sa>  (75) 
-0.541727

>  <r_i_glide_ligand_efficiency_ln>  (75) 
-0.888578

>  <r_i_glide_gscore>  (75) 
-3.29489

>  <r_i_glide_lipo>  (75) 
-0.104765

>  <r_i_glide_hbond>  (75) 
-0.00792241

>  <r_i_glide_metal>  (75) 
-0

>  <r_i_glide_rewards>  (75) 
-2.14016

>  <r_i_glide_evdw>  (75) 
-21.0532

>  <r_i_glide_ecoul>  (75) 
-2.3294

>  <r_i_glide_erotb>  (75) 
0.418047

>  <r_i_glide_esite>  (75) 
-0.0580179

>  <r_i_glide_emodel>  (75) 
-28.307

>  <r_i_glide_energy>  (75) 
-23.3826

>  <r_i_glide_einternal>  (75) 
1.55707

>  <r_i_glide_intrahb_reward>  (75) 
-0

>  <i_i_glide_confnum>  (75) 
1

>  <i_i_glide_posenum>  (75) 
13

>  <r_i_glide_eff_state_penalty>  (75) 
0

>  <ligand_id>  (75) 
19

>  <original_smiles>  (75) 
c1cc(-c2nc3nccnc3[nH]2)ccn1

>  <smiles>  (75) 
[H]c1nc2nc(-c3c([H])c([H])nc([H])c3[H])n([H])c2nc1[H]

$$$$
19:1:2
     RDKit          3D

 22 24  0  0  1  0  0  0  0  0999 V2000
   -2.0883    2.5462    2.8872 C   0  0  0  0  0  0  0  0  0  0  0  0
   -0.9412    1.8378    2.4807 C   0  0  0  0  0  0  0  0  0  0  0  0
    0.1936    1.8413    3.3189 C   0  0  0  0  0  0  0  0  0  0  0  0
    1.4203    1.1410    2.9299 C   0  0  0  0  0  0  0  0  0  0  0  0
    2.4538    0.9633    3.7685 N   0  0  0  0  0  0  0  0  0  0  0  0
    3.3716    0.2561    3.0077 C   0  0  0  0  0  0  0  0  0  0  0  0
    4.5815   -0.1822    3.3803 N   0  0  0  0  0  0  0  0  0  0  0  0
    5.2625   -0.8502    2.4168 C   0  0  0  0  0  0  0  0  0  0  0  0
    4.7493   -1.0824    1.1166 C   0  0  0  0  0  0  0  0  0  0  0  0
    3.5295   -0.6545    0.7188 N   0  0  0  0  0  0  0  0  0  0  0  0
    2.8683    0.0183    1.7027 C   0  0  0  0  0  0  0  0  0  0  0  0
    1.6163    0.6001    1.7042 N   0  0  0  0  0  0  0  0  0  0  0  0
    0.1059    2.5442    4.5422 C   0  0  0  0  0  0  0  0  0  0  0  0
   -1.0932    3.2136    4.8564 C   0  0  0  0  0  0  0  0  0  0  0  0
   -2.1752    3.2240    4.0512 N   0  0  0  0  0  0  0  0  0  0  0  0
    0.9504    0.6110    0.9415 H   0  0  0  0  0  0  0  0  0  0  0  0
   -2.9661    2.5724    2.2598 H   0  0  0  0  0  0  0  0  0  0  0  0
   -0.9447    1.3378    1.5227 H   0  0  0  0  0  0  0  0  0  0  0  0
    6.2439   -1.2092    2.6826 H   0  0  0  0  0  0  0  0  0  0  0  0
    5.3311   -1.6235    0.3833 H   0  0  0  0  0  0  0  0  0  0  0  0
    0.9392    2.5836    5.2285 H   0  0  0  0  0  0  0  0  0  0  0  0
   -1.1964    3.7605    5.7827 H   0  0  0  0  0  0  0  0  0  0  0  0
  1 15  2  0
  1  2  1  0
  1 17  1  0
  2  3  2  0
  2 18  1  0
  3  4  1  0
  3 13  1  0
  4 12  1  0
  4  5  2  0
  5  6  1  0
  6 11  2  0
  6  7  1  0
  7  8  2  0
  8  9  1  0
  8 19  1  0
  9 10  2  0
  9 20  1  0
 10 11  1  0
 11 12  1  0
 12 16  1  0
 13 14  2  0
 13 21  1  0
 14 15  1  0
 14 22  1  0
M  END
>  <i_m_ct_stereo_status>  (76) 
1

>  <s_m_source_file>  (76) 
/var/tmp/pbs.5076255.sched01/tmp3_il56_a/09f63jmog.sdf

>  <i_m_source_file_index>  (76) 
29

>  <i_lp_mmshare_version>  (76) 
48012

>  <i_f3d_flags>  (76) 
0

>  <s_epik_input>  (76) 
W2NIXTFbY0hdbltjSF1bY0hdYzEtYyhuMilbbkhdYyhjMjMpbltjSF1bY0hdbjM=

>  <s_epik_cmdline>  (76) 
J2VwaWtfcHl0aG9uJywgJy1waHQnLCAnMi4wJywgJy1waCcsICc3LjAnLCAnLXRuJywgJzgnLCAnLW1hJywgJzIwMCcsICctaW1hZScsICc8aW5maWxlLm1hZT4nLCAnLW9tYWUnLCAnPG91dGZpbGUubWFlPic=

>  <r_lp_tautomer_probability>  (76) 
0.505991

>  <r_epik_Ionization_Penalty>  (76) 
0.21459

>  <r_epik_Ionization_Penalty_Charging>  (76) 
0

>  <r_epik_Ionization_Penalty_Neutral>  (76) 
0.21459

>  <r_epik_State_Penalty>  (76) 
0.76576

>  <r_epik_Charging_Adjusted_Penalty>  (76) 
0.76576

>  <i_epik_Tot_Q>  (76) 
0

>  <i_epik_Tot_abs_Q>  (76) 
0

>  <s_lp_Force_Field>  (76) 
OPLS3e

>  <r_lp_Energy>  (76) 
27.3757

>  <b_lp_Chiralities_Consistent>  (76) 
1

>  <s_lp_Variant>  (76) 
19:0-2

>  <s_i_glide_gridfile>  (76) 
pfpi4k_grid

>  <i_i_glide_lignum>  (76) 
29

>  <i_i_glide_rotatable_bonds>  (76) 
1

>  <r_i_docking_score>  (76) 
-3.27495

>  <r_i_glide_ligand_efficiency>  (76) 
-0.21833

>  <r_i_glide_ligand_efficiency_sa>  (76) 
-0.538447

>  <r_i_glide_ligand_efficiency_ln>  (76) 
-0.883199

>  <r_i_glide_gscore>  (76) 
-3.27495

>  <r_i_glide_lipo>  (76) 
-0.185825

>  <r_i_glide_hbond>  (76) 
-0.0246541

>  <r_i_glide_metal>  (76) 
-0

>  <r_i_glide_rewards>  (76) 
-2.07733

>  <r_i_glide_evdw>  (76) 
-19.1905

>  <r_i_glide_ecoul>  (76) 
-2.34277

>  <r_i_glide_erotb>  (76) 
0.418047

>  <r_i_glide_esite>  (76) 
-0.0942429

>  <r_i_glide_emodel>  (76) 
-27.2257

>  <r_i_glide_energy>  (76) 
-21.5332

>  <r_i_glide_einternal>  (76) 
0.0579645

>  <r_i_glide_intrahb_reward>  (76) 
-0

>  <i_i_glide_confnum>  (76) 
4

>  <i_i_glide_posenum>  (76) 
3

>  <r_i_glide_eff_state_penalty>  (76) 
0

>  <ligand_id>  (76) 
19

>  <original_smiles>  (76) 
c1cc(-c2nc3nccnc3[nH]2)ccn1

>  <smiles>  (76) 
[H]c1nc2nc(-c3c([H])c([H])nc([H])c3[H])n([H])c2nc1[H]

$$$$
19:2:0
     RDKit          3D

 22 24  0  0  1  0  0  0  0  0999 V2000
   -8.0202   -4.9455   -5.8458 C   0  0  0  0  0  0  0  0  0  0  0  0
   -7.7833   -6.2906   -6.1810 C   0  0  0  0  0  0  0  0  0  0  0  0
   -6.5719   -6.9120   -5.8065 C   0  0  0  0  0  0  0  0  0  0  0  0
   -6.3550   -8.3284   -6.1278 C   0  0  0  0  0  0  0  0  0  0  0  0
   -7.3383   -9.2359   -6.2862 N   0  0  0  0  0  0  0  0  0  0  0  0
   -6.6415  -10.3768   -6.5559 C   0  0  0  0  0  0  0  0  0  0  0  0
   -7.1298  -11.6169   -6.7793 N   0  0  0  0  0  0  0  0  0  0  0  0
   -6.2275  -12.5842   -7.0500 C   0  0  0  0  0  0  0  0  0  0  0  0
   -4.8409  -12.3200   -7.1013 C   0  0  0  0  0  0  0  0  0  0  0  0
   -4.3461  -11.0796   -6.8733 N   0  0  0  0  0  0  0  0  0  0  0  0
   -5.2581  -10.1197   -6.5885 C   0  0  0  0  0  0  0  0  0  0  0  0
   -5.1108   -8.8294   -6.3111 N   0  0  0  0  0  0  0  0  0  0  0  0
   -5.6076   -6.1413   -5.1192 C   0  0  0  0  0  0  0  0  0  0  0  0
   -5.8834   -4.7907   -4.8170 C   0  0  0  0  0  0  0  0  0  0  0  0
   -7.0717   -4.2562   -5.1743 N   0  0  0  0  0  0  0  0  0  0  0  0
   -8.9277   -4.4107   -6.0919 H   0  0  0  0  0  0  0  0  0  0  0  0
   -8.5253   -6.8722   -6.7095 H   0  0  0  0  0  0  0  0  0  0  0  0
   -6.6253  -13.5682   -7.2404 H   0  0  0  0  0  0  0  0  0  0  0  0
   -4.1355  -13.1043   -7.3306 H   0  0  0  0  0  0  0  0  0  0  0  0
   -4.6781   -6.6070   -4.8291 H   0  0  0  0  0  0  0  0  0  0  0  0
   -5.2031   -4.1184   -4.3150 H   0  0  0  0  0  0  0  0  0  0  0  0
   -7.2552   -3.2802   -4.9423 H   0  0  0  0  0  0  0  0  0  0  0  0
  1 15  2  0
  1  2  1  0
  1 16  1  0
  2  3  2  0
  2 17  1  0
  3  4  1  0
  3 13  1  0
  4 12  1  0
  4  5  2  0
  5  6  1  0
  6 11  2  0
  6  7  1  0
  7  8  2  0
  8  9  1  0
  8 18  1  0
  9 10  2  0
  9 19  1  0
 10 11  1  0
 11 12  1  0
 13 14  2  0
 13 20  1  0
 14 15  1  0
 14 21  1  0
 15 22  1  0
M  CHG  2  12  -1  15   1
M  END
>  <i_m_ct_stereo_status>  (77) 
1

>  <s_m_source_file>  (77) 
/var/tmp/pbs.5076255.sched01/tmp3_il56_a/09f63jmog.sdf

>  <i_m_source_file_index>  (77) 
30

>  <i_lp_mmshare_version>  (77) 
48012

>  <i_f3d_flags>  (77) 
0

>  <s_epik_input>  (77) 
W2NIXTFbY0hdbltjSF1bY0hdYzEtYyhuMilbbkhdYyhjMjMpbltjSF1bY0hdbjM=

>  <s_epik_cmdline>  (77) 
J2VwaWtfcHl0aG9uJywgJy1waHQnLCAnMi4wJywgJy1waCcsICc3LjAnLCAnLXRuJywgJzgnLCAnLW1hJywgJzIwMCcsICctaW1hZScsICc8aW5maWxlLm1hZT4nLCAnLW9tYWUnLCAnPG91dGZpbGUubWFlPic=

>  <r_epik_Ionization_Penalty>  (77) 
2.55096

>  <r_epik_Ionization_Penalty_Charging>  (77) 
2.55096

>  <r_epik_Ionization_Penalty_Neutral>  (77) 
6.3148e-15

>  <r_epik_State_Penalty>  (77) 
1.85152

>  <r_epik_Charging_Adjusted_Penalty>  (77) 
4.40248

>  <i_epik_Tot_Q>  (77) 
0

>  <i_epik_Tot_abs_Q>  (77) 
2

>  <s_lp_Force_Field>  (77) 
OPLS3e

>  <r_lp_Energy>  (77) 
31.5952

>  <b_lp_Chiralities_Consistent>  (77) 
1

>  <s_lp_Variant>  (77) 
19:0-3

>  <s_i_glide_gridfile>  (77) 
pfpi4k_grid

>  <i_i_glide_lignum>  (77) 
30

>  <i_i_glide_rotatable_bonds>  (77) 
1

>  <r_i_docking_score>  (77) 
-5.02474

>  <r_i_glide_ligand_efficiency>  (77) 
-0.334983

>  <r_i_glide_ligand_efficiency_sa>  (77) 
-0.826138

>  <r_i_glide_ligand_efficiency_ln>  (77) 
-1.35509

>  <r_i_glide_gscore>  (77) 
-5.02474

>  <r_i_glide_lipo>  (77) 
-1.52499

>  <r_i_glide_hbond>  (77) 
0

>  <r_i_glide_metal>  (77) 
-0

>  <r_i_glide_rewards>  (77) 
-2.96933

>  <r_i_glide_evdw>  (77) 
-22.6983

>  <r_i_glide_ecoul>  (77) 
1.24298

>  <r_i_glide_erotb>  (77) 
0.418047

>  <r_i_glide_esite>  (77) 
0

>  <r_i_glide_emodel>  (77) 
-33.455

>  <r_i_glide_energy>  (77) 
-21.4553

>  <r_i_glide_einternal>  (77) 
0.521428

>  <r_i_glide_intrahb_reward>  (77) 
-0

>  <i_i_glide_confnum>  (77) 
1

>  <i_i_glide_posenum>  (77) 
3

>  <r_i_glide_eff_state_penalty>  (77) 
0

>  <ligand_id>  (77) 
19

>  <original_smiles>  (77) 
c1cc(-c2nc3nccnc3[nH]2)ccn1

>  <smiles>  (77) 
[H]c1nc2nc(-c3c([H])c([H])[n+]([H])c([H])c3[H])[n-]c2nc1[H]

$$$$
19:2:1
     RDKit          3D

 22 24  0  0  1  0  0  0  0  0999 V2000
    5.3583   -3.8999   -0.4645 C   0  0  0  0  0  0  0  0  0  0  0  0
    4.5970   -4.8878    0.1920 C   0  0  0  0  0  0  0  0  0  0  0  0
    3.1890   -4.8656    0.0860 C   0  0  0  0  0  0  0  0  0  0  0  0
    2.3390   -5.8733    0.7397 C   0  0  0  0  0  0  0  0  0  0  0  0
    0.9960   -5.8612    0.7113 N   0  0  0  0  0  0  0  0  0  0  0  0
    0.6701   -6.9654    1.4442 C   0  0  0  0  0  0  0  0  0  0  0  0
   -0.5662   -7.4038    1.7710 N   0  0  0  0  0  0  0  0  0  0  0  0
   -0.6264   -8.5458    2.4926 C   0  0  0  0  0  0  0  0  0  0  0  0
    0.5409   -9.2278    2.9088 C   0  0  0  0  0  0  0  0  0  0  0  0
    1.7798   -8.7660    2.6102 N   0  0  0  0  0  0  0  0  0  0  0  0
    1.8284   -7.6326    1.8748 C   0  0  0  0  0  0  0  0  0  0  0  0
    2.8539   -6.9201    1.4272 N   0  0  0  0  0  0  0  0  0  0  0  0
    2.5961   -3.8389   -0.6822 C   0  0  0  0  0  0  0  0  0  0  0  0
    3.3964   -2.8737   -1.3168 C   0  0  0  0  0  0  0  0  0  0  0  0
    4.7384   -2.9389   -1.1879 N   0  0  0  0  0  0  0  0  0  0  0  0
    6.4362   -3.8538   -0.4297 H   0  0  0  0  0  0  0  0  0  0  0  0
    5.0758   -5.6651    0.7704 H   0  0  0  0  0  0  0  0  0  0  0  0
   -1.6099   -8.9173    2.7361 H   0  0  0  0  0  0  0  0  0  0  0  0
    0.4755  -10.1379    3.4894 H   0  0  0  0  0  0  0  0  0  0  0  0
    1.5241   -3.7986   -0.7985 H   0  0  0  0  0  0  0  0  0  0  0  0
    2.9923   -2.0657   -1.9121 H   0  0  0  0  0  0  0  0  0  0  0  0
    5.3017   -2.2315   -1.6577 H   0  0  0  0  0  0  0  0  0  0  0  0
  1 15  2  0
  1  2  1  0
  1 16  1  0
  2  3  2  0
  2 17  1  0
  3  4  1  0
  3 13  1  0
  4 12  1  0
  4  5  2  0
  5  6  1  0
  6 11  2  0
  6  7  1  0
  7  8  2  0
  8  9  1  0
  8 18  1  0
  9 10  2  0
  9 19  1  0
 10 11  1  0
 11 12  1  0
 13 14  2  0
 13 20  1  0
 14 15  1  0
 14 21  1  0
 15 22  1  0
M  CHG  2  12  -1  15   1
M  END
>  <i_m_ct_stereo_status>  (78) 
1

>  <s_m_source_file>  (78) 
/var/tmp/pbs.5076255.sched01/tmp3_il56_a/09f63jmog.sdf

>  <i_m_source_file_index>  (78) 
30

>  <i_lp_mmshare_version>  (78) 
48012

>  <i_f3d_flags>  (78) 
0

>  <s_epik_input>  (78) 
W2NIXTFbY0hdbltjSF1bY0hdYzEtYyhuMilbbkhdYyhjMjMpbltjSF1bY0hdbjM=

>  <s_epik_cmdline>  (78) 
J2VwaWtfcHl0aG9uJywgJy1waHQnLCAnMi4wJywgJy1waCcsICc3LjAnLCAnLXRuJywgJzgnLCAnLW1hJywgJzIwMCcsICctaW1hZScsICc8aW5maWxlLm1hZT4nLCAnLW9tYWUnLCAnPG91dGZpbGUubWFlPic=

>  <r_epik_Ionization_Penalty>  (78) 
2.55096

>  <r_epik_Ionization_Penalty_Charging>  (78) 
2.55096

>  <r_epik_Ionization_Penalty_Neutral>  (78) 
6.3148e-15

>  <r_epik_State_Penalty>  (78) 
1.85152

>  <r_epik_Charging_Adjusted_Penalty>  (78) 
4.40248

>  <i_epik_Tot_Q>  (78) 
0

>  <i_epik_Tot_abs_Q>  (78) 
2

>  <s_lp_Force_Field>  (78) 
OPLS3e

>  <r_lp_Energy>  (78) 
31.5952

>  <b_lp_Chiralities_Consistent>  (78) 
1

>  <s_lp_Variant>  (78) 
19:0-3

>  <s_i_glide_gridfile>  (78) 
pfpi4k_grid

>  <i_i_glide_lignum>  (78) 
30

>  <i_i_glide_rotatable_bonds>  (78) 
1

>  <r_i_docking_score>  (78) 
-4.39643

>  <r_i_glide_ligand_efficiency>  (78) 
-0.293096

>  <r_i_glide_ligand_efficiency_sa>  (78) 
-0.722836

>  <r_i_glide_ligand_efficiency_ln>  (78) 
-1.18565

>  <r_i_glide_gscore>  (78) 
-4.39643

>  <r_i_glide_lipo>  (78) 
-0.0865044

>  <r_i_glide_hbond>  (78) 
-0.16

>  <r_i_glide_metal>  (78) 
-0

>  <r_i_glide_rewards>  (78) 
-2.06457

>  <r_i_glide_evdw>  (78) 
-14.7815

>  <r_i_glide_ecoul>  (78) 
-10.7869

>  <r_i_glide_erotb>  (78) 
0.418047

>  <r_i_glide_esite>  (78) 
-0.146296

>  <r_i_glide_emodel>  (78) 
-36.2813

>  <r_i_glide_energy>  (78) 
-25.5684

>  <r_i_glide_einternal>  (78) 
0.0124299

>  <r_i_glide_intrahb_reward>  (78) 
-0

>  <i_i_glide_confnum>  (78) 
1

>  <i_i_glide_posenum>  (78) 
31

>  <r_i_glide_eff_state_penalty>  (78) 
0

>  <ligand_id>  (78) 
19

>  <original_smiles>  (78) 
c1cc(-c2nc3nccnc3[nH]2)ccn1

>  <smiles>  (78) 
[H]c1nc2nc(-c3c([H])c([H])[n+]([H])c([H])c3[H])[n-]c2nc1[H]

$$$$
19:2:2
     RDKit          3D

 22 24  0  0  1  0  0  0  0  0999 V2000
   -0.8923    2.0507    3.1923 C   0  0  0  0  0  0  0  0  0  0  0  0
   -0.9928    0.8920    3.9815 C   0  0  0  0  0  0  0  0  0  0  0  0
   -0.0789   -0.1685    3.7983 C   0  0  0  0  0  0  0  0  0  0  0  0
   -0.2097   -1.3770    4.6267 C   0  0  0  0  0  0  0  0  0  0  0  0
   -1.0743   -1.5304    5.6554 N   0  0  0  0  0  0  0  0  0  0  0  0
   -0.7857   -2.7980    6.0746 C   0  0  0  0  0  0  0  0  0  0  0  0
   -1.3633   -3.4855    7.0810 N   0  0  0  0  0  0  0  0  0  0  0  0
   -0.9238   -4.7430    7.2946 C   0  0  0  0  0  0  0  0  0  0  0  0
    0.0878   -5.3270    6.4984 C   0  0  0  0  0  0  0  0  0  0  0  0
    0.6640   -4.6479    5.4783 N   0  0  0  0  0  0  0  0  0  0  0  0
    0.2202   -3.3841    5.2830 C   0  0  0  0  0  0  0  0  0  0  0  0
    0.5568   -2.4685    4.3891 N   0  0  0  0  0  0  0  0  0  0  0  0
    0.9262   -0.0241    2.8098 C   0  0  0  0  0  0  0  0  0  0  0  0
    0.9870    1.1588    2.0490 C   0  0  0  0  0  0  0  0  0  0  0  0
    0.0868    2.1460    2.2643 N   0  0  0  0  0  0  0  0  0  0  0  0
   -1.5507    2.9029    3.2813 H   0  0  0  0  0  0  0  0  0  0  0  0
   -1.7742    0.7956    4.7214 H   0  0  0  0  0  0  0  0  0  0  0  0
   -1.3865   -5.2783    8.1071 H   0  0  0  0  0  0  0  0  0  0  0  0
    0.4297   -6.3336    6.6884 H   0  0  0  0  0  0  0  0  0  0  0  0
    1.6356   -0.8212    2.6368 H   0  0  0  0  0  0  0  0  0  0  0  0
    1.7199    1.3587    1.2793 H   0  0  0  0  0  0  0  0  0  0  0  0
    0.1552    3.0229    1.7044 H   0  0  0  0  0  0  0  0  0  0  0  0
  1 15  2  0
  1  2  1  0
  1 16  1  0
  2  3  2  0
  2 17  1  0
  3  4  1  0
  3 13  1  0
  4 12  1  0
  4  5  2  0
  5  6  1  0
  6 11  2  0
  6  7  1  0
  7  8  2  0
  8  9  1  0
  8 18  1  0
  9 10  2  0
  9 19  1  0
 10 11  1  0
 11 12  1  0
 13 14  2  0
 13 20  1  0
 14 15  1  0
 14 21  1  0
 15 22  1  0
M  CHG  2  12  -1  15   1
M  END
>  <i_m_ct_stereo_status>  (79) 
1

>  <s_m_source_file>  (79) 
/var/tmp/pbs.5076255.sched01/tmp3_il56_a/09f63jmog.sdf

>  <i_m_source_file_index>  (79) 
30

>  <i_lp_mmshare_version>  (79) 
48012

>  <i_f3d_flags>  (79) 
0

>  <s_epik_input>  (79) 
W2NIXTFbY0hdbltjSF1bY0hdYzEtYyhuMilbbkhdYyhjMjMpbltjSF1bY0hdbjM=

>  <s_epik_cmdline>  (79) 
J2VwaWtfcHl0aG9uJywgJy1waHQnLCAnMi4wJywgJy1waCcsICc3LjAnLCAnLXRuJywgJzgnLCAnLW1hJywgJzIwMCcsICctaW1hZScsICc8aW5maWxlLm1hZT4nLCAnLW9tYWUnLCAnPG91dGZpbGUubWFlPic=

>  <r_epik_Ionization_Penalty>  (79) 
2.55096

>  <r_epik_Ionization_Penalty_Charging>  (79) 
2.55096

>  <r_epik_Ionization_Penalty_Neutral>  (79) 
6.3148e-15

>  <r_epik_State_Penalty>  (79) 
1.85152

>  <r_epik_Charging_Adjusted_Penalty>  (79) 
4.40248

>  <i_epik_Tot_Q>  (79) 
0

>  <i_epik_Tot_abs_Q>  (79) 
2

>  <s_lp_Force_Field>  (79) 
OPLS3e

>  <r_lp_Energy>  (79) 
31.5952

>  <b_lp_Chiralities_Consistent>  (79) 
1

>  <s_lp_Variant>  (79) 
19:0-3

>  <s_i_glide_gridfile>  (79) 
pfpi4k_grid

>  <i_i_glide_lignum>  (79) 
30

>  <i_i_glide_rotatable_bonds>  (79) 
1

>  <r_i_docking_score>  (79) 
-4.01936

>  <r_i_glide_ligand_efficiency>  (79) 
-0.267958

>  <r_i_glide_ligand_efficiency_sa>  (79) 
-0.66084

>  <r_i_glide_ligand_efficiency_ln>  (79) 
-1.08396

>  <r_i_glide_gscore>  (79) 
-4.01936

>  <r_i_glide_lipo>  (79) 
-0.0122937

>  <r_i_glide_hbond>  (79) 
-0.2

>  <r_i_glide_metal>  (79) 
-0

>  <r_i_glide_rewards>  (79) 
-2.06457

>  <r_i_glide_evdw>  (79) 
-14.3088

>  <r_i_glide_ecoul>  (79) 
-8.59012

>  <r_i_glide_erotb>  (79) 
0.418047

>  <r_i_glide_esite>  (79) 
-0.156589

>  <r_i_glide_emodel>  (79) 
-32.7053

>  <r_i_glide_energy>  (79) 
-22.8989

>  <r_i_glide_einternal>  (79) 
0.0307303

>  <r_i_glide_intrahb_reward>  (79) 
-0

>  <i_i_glide_confnum>  (79) 
4

>  <i_i_glide_posenum>  (79) 
11

>  <r_i_glide_eff_state_penalty>  (79) 
0

>  <ligand_id>  (79) 
19

>  <original_smiles>  (79) 
c1cc(-c2nc3nccnc3[nH]2)ccn1

>  <smiles>  (79) 
[H]c1nc2nc(-c3c([H])c([H])[n+]([H])c([H])c3[H])[n-]c2nc1[H]

$$$$
20:0:0
     RDKit          3D

 23 24  0  0  1  0  0  0  0  0999 V2000
   -5.8300   -4.6642   -4.8556 C   0  0  0  0  0  0  0  0  0  0  0  0
   -5.0383   -5.8372   -4.7233 O   0  0  0  0  0  0  0  0  0  0  0  0
   -5.4566   -6.9849   -5.3685 C   0  0  0  0  0  0  0  0  0  0  0  0
   -4.6788   -8.1397   -5.1687 C   0  0  0  0  0  0  0  0  0  0  0  0
   -4.9914   -9.3569   -5.7994 C   0  0  0  0  0  0  0  0  0  0  0  0
   -4.1580  -10.4616   -5.5785 N   0  0  0  0  0  0  0  0  0  0  0  0
   -6.1259   -9.4488   -6.6501 C   0  0  0  0  0  0  0  0  0  0  0  0
   -6.4330  -10.6265   -7.2559 N   0  0  0  0  0  0  0  0  0  0  0  0
   -7.5138  -10.6897   -8.0624 C   0  0  0  0  0  0  0  0  0  0  0  0
   -8.3374   -9.5795   -8.3245 C   0  0  0  0  0  0  0  0  0  0  0  0
   -8.0306   -8.3563   -7.7097 C   0  0  0  0  0  0  0  0  0  0  0  0
   -6.9115   -8.2809   -6.8520 C   0  0  0  0  0  0  0  0  0  0  0  0
   -6.5857   -7.0608   -6.2194 C   0  0  0  0  0  0  0  0  0  0  0  0
   -5.3853   -3.8549   -4.2761 H   0  0  0  0  0  0  0  0  0  0  0  0
   -6.8357   -4.8266   -4.4679 H   0  0  0  0  0  0  0  0  0  0  0  0
   -5.8774   -4.3283   -5.8923 H   0  0  0  0  0  0  0  0  0  0  0  0
   -3.8111   -8.0844   -4.5234 H   0  0  0  0  0  0  0  0  0  0  0  0
   -4.4055  -11.3750   -5.9374 H   0  0  0  0  0  0  0  0  0  0  0  0
   -3.4228  -10.4366   -4.8836 H   0  0  0  0  0  0  0  0  0  0  0  0
   -7.7173  -11.6554   -8.5096 H   0  0  0  0  0  0  0  0  0  0  0  0
   -9.1941   -9.6725   -8.9798 H   0  0  0  0  0  0  0  0  0  0  0  0
   -8.6425   -7.4828   -7.8864 H   0  0  0  0  0  0  0  0  0  0  0  0
   -7.2112   -6.2074   -6.4189 H   0  0  0  0  0  0  0  0  0  0  0  0
  1  2  1  0
  1 14  1  0
  1 15  1  0
  1 16  1  0
  2  3  1  0
  3 13  2  0
  3  4  1  0
  4  5  2  0
  4 17  1  0
  5  6  1  0
  5  7  1  0
  6 18  1  0
  6 19  1  0
  7 12  2  0
  7  8  1  0
  8  9  2  0
  9 10  1  0
  9 20  1  0
 10 11  2  0
 10 21  1  0
 11 12  1  0
 11 22  1  0
 12 13  1  0
 13 23  1  0
M  END
>  <i_m_ct_stereo_status>  (80) 
1

>  <s_m_source_file>  (80) 
/var/tmp/pbs.5076255.sched01/tmp3_il56_a/09f63jmog.sdf

>  <i_m_source_file_index>  (80) 
31

>  <i_lp_mmshare_version>  (80) 
48012

>  <i_f3d_flags>  (80) 
0

>  <s_epik_input>  (80) 
W05IMl1jMVtjSF1jKE9bQ0gzXSlbY0hdYyhjMTIpW2NIXVtjSF1bY0hdbjI=

>  <s_epik_cmdline>  (80) 
J2VwaWtfcHl0aG9uJywgJy1waHQnLCAnMi4wJywgJy1waCcsICc3LjAnLCAnLXRuJywgJzgnLCAnLW1hJywgJzIwMCcsICctaW1hZScsICc8aW5maWxlLm1hZT4nLCAnLW9tYWUnLCAnPG91dGZpbGUubWFlPic=

>  <r_lp_tautomer_probability>  (80) 
1

>  <r_epik_Ionization_Penalty>  (80) 
3.9205e-05

>  <r_epik_Ionization_Penalty_Charging>  (80) 
0

>  <r_epik_Ionization_Penalty_Neutral>  (80) 
3.9205e-05

>  <r_epik_State_Penalty>  (80) 
-0

>  <r_epik_Charging_Adjusted_Penalty>  (80) 
0

>  <i_epik_Tot_Q>  (80) 
0

>  <i_epik_Tot_abs_Q>  (80) 
0

>  <s_lp_Force_Field>  (80) 
OPLS3e

>  <r_lp_Energy>  (80) 
23.4646

>  <b_lp_Chiralities_Consistent>  (80) 
1

>  <s_lp_Variant>  (80) 
20:0-1

>  <s_i_glide_gridfile>  (80) 
pfpi4k_grid

>  <i_i_glide_lignum>  (80) 
31

>  <i_i_glide_rotatable_bonds>  (80) 
1

>  <r_i_docking_score>  (80) 
-6.2507

>  <r_i_glide_ligand_efficiency>  (80) 
-0.480823

>  <r_i_glide_ligand_efficiency_sa>  (80) 
-1.13058

>  <r_i_glide_ligand_efficiency_ln>  (80) 
-1.75338

>  <r_i_glide_gscore>  (80) 
-6.2507

>  <r_i_glide_lipo>  (80) 
-1.93718

>  <r_i_glide_hbond>  (80) 
-0.326396

>  <r_i_glide_metal>  (80) 
-0

>  <r_i_glide_rewards>  (80) 
-2.48804

>  <r_i_glide_evdw>  (80) 
-22.3656

>  <r_i_glide_ecoul>  (80) 
-2.53869

>  <r_i_glide_erotb>  (80) 
0

>  <r_i_glide_esite>  (80) 
0

>  <r_i_glide_emodel>  (80) 
-34.2564

>  <r_i_glide_energy>  (80) 
-24.9043

>  <r_i_glide_einternal>  (80) 
0.0162985

>  <r_i_glide_intrahb_reward>  (80) 
-0

>  <i_i_glide_confnum>  (80) 
2

>  <i_i_glide_posenum>  (80) 
32

>  <r_i_glide_eff_state_penalty>  (80) 
0

>  <ligand_id>  (80) 
20

>  <original_smiles>  (80) 
COc1cc(N)c2ncccc2c1

>  <smiles>  (80) 
[H]c1nc2c(N([H])[H])c([H])c(OC([H])([H])[H])c([H])c2c([H])c1[H]

$$$$
20:0:1
     RDKit          3D

 23 24  0  0  1  0  0  0  0  0999 V2000
   -6.9225   -4.4036   -4.0072 C   0  0  0  0  0  0  0  0  0  0  0  0
   -6.1908   -5.6121   -4.0676 O   0  0  0  0  0  0  0  0  0  0  0  0
   -6.4109   -6.4636   -5.1238 C   0  0  0  0  0  0  0  0  0  0  0  0
   -5.6299   -7.6345   -5.1512 C   0  0  0  0  0  0  0  0  0  0  0  0
   -5.7798   -8.5875   -6.1751 C   0  0  0  0  0  0  0  0  0  0  0  0
   -4.9779   -9.7337   -6.1360 N   0  0  0  0  0  0  0  0  0  0  0  0
   -6.7270   -8.3838   -7.2127 C   0  0  0  0  0  0  0  0  0  0  0  0
   -6.8716   -9.2996   -8.2009 N   0  0  0  0  0  0  0  0  0  0  0  0
   -7.7761   -9.0771   -9.1775 C   0  0  0  0  0  0  0  0  0  0  0  0
   -8.5851   -7.9279   -9.2294 C   0  0  0  0  0  0  0  0  0  0  0  0
   -8.4515   -6.9704   -8.2061 C   0  0  0  0  0  0  0  0  0  0  0  0
   -7.5110   -7.1949   -7.1822 C   0  0  0  0  0  0  0  0  0  0  0  0
   -7.3589   -6.2463   -6.1506 C   0  0  0  0  0  0  0  0  0  0  0  0
   -6.6005   -3.8561   -3.1238 H   0  0  0  0  0  0  0  0  0  0  0  0
   -7.9942   -4.5887   -3.9220 H   0  0  0  0  0  0  0  0  0  0  0  0
   -6.7157   -3.7756   -4.8730 H   0  0  0  0  0  0  0  0  0  0  0  0
   -4.9186   -7.8099   -4.3555 H   0  0  0  0  0  0  0  0  0  0  0  0
   -5.0745  -10.4537   -6.8381 H   0  0  0  0  0  0  0  0  0  0  0  0
   -4.3229   -9.9097   -5.3829 H   0  0  0  0  0  0  0  0  0  0  0  0
   -7.8472   -9.8377   -9.9467 H   0  0  0  0  0  0  0  0  0  0  0  0
   -9.2952   -7.7895  -10.0326 H   0  0  0  0  0  0  0  0  0  0  0  0
   -9.0607   -6.0794   -8.2113 H   0  0  0  0  0  0  0  0  0  0  0  0
   -7.9808   -5.3646   -6.1654 H   0  0  0  0  0  0  0  0  0  0  0  0
  1  2  1  0
  1 14  1  0
  1 15  1  0
  1 16  1  0
  2  3  1  0
  3 13  2  0
  3  4  1  0
  4  5  2  0
  4 17  1  0
  5  6  1  0
  5  7  1  0
  6 18  1  0
  6 19  1  0
  7 12  2  0
  7  8  1  0
  8  9  2  0
  9 10  1  0
  9 20  1  0
 10 11  2  0
 10 21  1  0
 11 12  1  0
 11 22  1  0
 12 13  1  0
 13 23  1  0
M  END
>  <i_m_ct_stereo_status>  (81) 
1

>  <s_m_source_file>  (81) 
/var/tmp/pbs.5076255.sched01/tmp3_il56_a/09f63jmog.sdf

>  <i_m_source_file_index>  (81) 
31

>  <i_lp_mmshare_version>  (81) 
48012

>  <i_f3d_flags>  (81) 
0

>  <s_epik_input>  (81) 
W05IMl1jMVtjSF1jKE9bQ0gzXSlbY0hdYyhjMTIpW2NIXVtjSF1bY0hdbjI=

>  <s_epik_cmdline>  (81) 
J2VwaWtfcHl0aG9uJywgJy1waHQnLCAnMi4wJywgJy1waCcsICc3LjAnLCAnLXRuJywgJzgnLCAnLW1hJywgJzIwMCcsICctaW1hZScsICc8aW5maWxlLm1hZT4nLCAnLW9tYWUnLCAnPG91dGZpbGUubWFlPic=

>  <r_lp_tautomer_probability>  (81) 
1

>  <r_epik_Ionization_Penalty>  (81) 
3.9205e-05

>  <r_epik_Ionization_Penalty_Charging>  (81) 
0

>  <r_epik_Ionization_Penalty_Neutral>  (81) 
3.9205e-05

>  <r_epik_State_Penalty>  (81) 
-0

>  <r_epik_Charging_Adjusted_Penalty>  (81) 
0

>  <i_epik_Tot_Q>  (81) 
0

>  <i_epik_Tot_abs_Q>  (81) 
0

>  <s_lp_Force_Field>  (81) 
OPLS3e

>  <r_lp_Energy>  (81) 
23.4646

>  <b_lp_Chiralities_Consistent>  (81) 
1

>  <s_lp_Variant>  (81) 
20:0-1

>  <s_i_glide_gridfile>  (81) 
pfpi4k_grid

>  <i_i_glide_lignum>  (81) 
31

>  <i_i_glide_rotatable_bonds>  (81) 
1

>  <r_i_docking_score>  (81) 
-6.01417

>  <r_i_glide_ligand_efficiency>  (81) 
-0.462628

>  <r_i_glide_ligand_efficiency_sa>  (81) 
-1.08779

>  <r_i_glide_ligand_efficiency_ln>  (81) 
-1.68703

>  <r_i_glide_gscore>  (81) 
-6.01417

>  <r_i_glide_lipo>  (81) 
-2.18499

>  <r_i_glide_hbond>  (81) 
0

>  <r_i_glide_metal>  (81) 
-0

>  <r_i_glide_rewards>  (81) 
-2.58804

>  <r_i_glide_evdw>  (81) 
-21.6592

>  <r_i_glide_ecoul>  (81) 
-1.05455

>  <r_i_glide_erotb>  (81) 
0

>  <r_i_glide_esite>  (81) 
0

>  <r_i_glide_emodel>  (81) 
-31.7204

>  <r_i_glide_energy>  (81) 
-22.7138

>  <r_i_glide_einternal>  (81) 
0.00386067

>  <r_i_glide_intrahb_reward>  (81) 
-0

>  <i_i_glide_confnum>  (81) 
2

>  <i_i_glide_posenum>  (81) 
16

>  <r_i_glide_eff_state_penalty>  (81) 
0

>  <ligand_id>  (81) 
20

>  <original_smiles>  (81) 
COc1cc(N)c2ncccc2c1

>  <smiles>  (81) 
[H]c1nc2c(N([H])[H])c([H])c(OC([H])([H])[H])c([H])c2c([H])c1[H]

$$$$
20:0:2
     RDKit          3D

 23 24  0  0  1  0  0  0  0  0999 V2000
    3.2889   -1.7579   -4.2082 C   0  0  0  0  0  0  0  0  0  0  0  0
    4.1325   -1.2081   -3.2120 O   0  0  0  0  0  0  0  0  0  0  0  0
    4.1270   -1.7886   -1.9616 C   0  0  0  0  0  0  0  0  0  0  0  0
    4.9089   -1.1556   -0.9808 C   0  0  0  0  0  0  0  0  0  0  0  0
    5.0066   -1.6591    0.3267 C   0  0  0  0  0  0  0  0  0  0  0  0
    5.8296   -0.9902    1.2415 N   0  0  0  0  0  0  0  0  0  0  0  0
    4.2851   -2.8232    0.7013 C   0  0  0  0  0  0  0  0  0  0  0  0
    4.3677   -3.3137    1.9632 N   0  0  0  0  0  0  0  0  0  0  0  0
    3.6728   -4.4251    2.2887 C   0  0  0  0  0  0  0  0  0  0  0  0
    2.8540   -5.1157    1.3749 C   0  0  0  0  0  0  0  0  0  0  0  0
    2.7631   -4.6179    0.0622 C   0  0  0  0  0  0  0  0  0  0  0  0
    3.4836   -3.4585   -0.2881 C   0  0  0  0  0  0  0  0  0  0  0  0
    3.4073   -2.9546   -1.6056 C   0  0  0  0  0  0  0  0  0  0  0  0
    3.4087   -1.1706   -5.1188 H   0  0  0  0  0  0  0  0  0  0  0  0
    2.2392   -1.7210   -3.9133 H   0  0  0  0  0  0  0  0  0  0  0  0
    3.5686   -2.7876   -4.4319 H   0  0  0  0  0  0  0  0  0  0  0  0
    5.4407   -0.2587   -1.2501 H   0  0  0  0  0  0  0  0  0  0  0  0
    5.8917   -1.3133    2.1971 H   0  0  0  0  0  0  0  0  0  0  0  0
    6.3464   -0.1531    1.0098 H   0  0  0  0  0  0  0  0  0  0  0  0
    3.7794   -4.7788    3.3074 H   0  0  0  0  0  0  0  0  0  0  0  0
    2.3295   -6.0127    1.6732 H   0  0  0  0  0  0  0  0  0  0  0  0
    2.1638   -5.1262   -0.6772 H   0  0  0  0  0  0  0  0  0  0  0  0
    2.7868   -3.4734   -2.3196 H   0  0  0  0  0  0  0  0  0  0  0  0
  1  2  1  0
  1 14  1  0
  1 15  1  0
  1 16  1  0
  2  3  1  0
  3 13  2  0
  3  4  1  0
  4  5  2  0
  4 17  1  0
  5  6  1  0
  5  7  1  0
  6 18  1  0
  6 19  1  0
  7 12  2  0
  7  8  1  0
  8  9  2  0
  9 10  1  0
  9 20  1  0
 10 11  2  0
 10 21  1  0
 11 12  1  0
 11 22  1  0
 12 13  1  0
 13 23  1  0
M  END
>  <i_m_ct_stereo_status>  (82) 
1

>  <s_m_source_file>  (82) 
/var/tmp/pbs.5076255.sched01/tmp3_il56_a/09f63jmog.sdf

>  <i_m_source_file_index>  (82) 
31

>  <i_lp_mmshare_version>  (82) 
48012

>  <i_f3d_flags>  (82) 
0

>  <s_epik_input>  (82) 
W05IMl1jMVtjSF1jKE9bQ0gzXSlbY0hdYyhjMTIpW2NIXVtjSF1bY0hdbjI=

>  <s_epik_cmdline>  (82) 
J2VwaWtfcHl0aG9uJywgJy1waHQnLCAnMi4wJywgJy1waCcsICc3LjAnLCAnLXRuJywgJzgnLCAnLW1hJywgJzIwMCcsICctaW1hZScsICc8aW5maWxlLm1hZT4nLCAnLW9tYWUnLCAnPG91dGZpbGUubWFlPic=

>  <r_lp_tautomer_probability>  (82) 
1

>  <r_epik_Ionization_Penalty>  (82) 
3.9205e-05

>  <r_epik_Ionization_Penalty_Charging>  (82) 
0

>  <r_epik_Ionization_Penalty_Neutral>  (82) 
3.9205e-05

>  <r_epik_State_Penalty>  (82) 
-0

>  <r_epik_Charging_Adjusted_Penalty>  (82) 
0

>  <i_epik_Tot_Q>  (82) 
0

>  <i_epik_Tot_abs_Q>  (82) 
0

>  <s_lp_Force_Field>  (82) 
OPLS3e

>  <r_lp_Energy>  (82) 
23.4646

>  <b_lp_Chiralities_Consistent>  (82) 
1

>  <s_lp_Variant>  (82) 
20:0-1

>  <s_i_glide_gridfile>  (82) 
pfpi4k_grid

>  <i_i_glide_lignum>  (82) 
31

>  <i_i_glide_rotatable_bonds>  (82) 
1

>  <r_i_docking_score>  (82) 
-3.52195

>  <r_i_glide_ligand_efficiency>  (82) 
-0.27092

>  <r_i_glide_ligand_efficiency_sa>  (82) 
-0.637023

>  <r_i_glide_ligand_efficiency_ln>  (82) 
-0.98794

>  <r_i_glide_gscore>  (82) 
-3.52195

>  <r_i_glide_lipo>  (82) 
-0.0645875

>  <r_i_glide_hbond>  (82) 
-0.118029

>  <r_i_glide_metal>  (82) 
-0

>  <r_i_glide_rewards>  (82) 
-2.22137

>  <r_i_glide_evdw>  (82) 
-17.7683

>  <r_i_glide_ecoul>  (82) 
-1.53034

>  <r_i_glide_erotb>  (82) 
0

>  <r_i_glide_esite>  (82) 
0

>  <r_i_glide_emodel>  (82) 
-24.5334

>  <r_i_glide_energy>  (82) 
-19.2987

>  <r_i_glide_einternal>  (82) 
0.0176767

>  <r_i_glide_intrahb_reward>  (82) 
-0

>  <i_i_glide_confnum>  (82) 
2

>  <i_i_glide_posenum>  (82) 
5

>  <r_i_glide_eff_state_penalty>  (82) 
0

>  <ligand_id>  (82) 
20

>  <original_smiles>  (82) 
COc1cc(N)c2ncccc2c1

>  <smiles>  (82) 
[H]c1nc2c(N([H])[H])c([H])c(OC([H])([H])[H])c([H])c2c([H])c1[H]

$$$$
21:0:0
     RDKit          3D

 34 36  0  0  1  0  0  0  0  0999 V2000
    8.8518   -3.3448    0.3834 C   0  0  0  0  0  0  0  0  0  0  0  0
    8.2803   -4.3752    0.7100 C   0  0  0  0  0  0  0  0  0  0  0  0
    7.5882   -5.5453    1.0506 C   0  0  0  0  0  0  0  0  0  0  0  0
    8.0150   -6.7453    1.5576 C   0  0  0  0  0  0  0  0  0  0  0  0
    6.8465   -7.5236    1.6852 C   0  0  0  0  0  0  0  0  0  0  0  0
    6.5989   -8.8795    2.1358 C   0  0  0  0  0  0  0  0  0  0  0  0
    5.3280   -9.3200    2.1446 C   0  0  0  0  0  0  0  0  0  0  0  0
    4.2351   -8.5270    1.7624 N   0  0  0  0  0  0  0  0  0  0  0  0
    2.8643   -9.1487    1.7818 C   0  0  2  0  0  0  0  0  0  0  0  0
    1.8828   -8.1452    1.8724 O   0  0  0  0  0  0  0  0  0  0  0  0
    0.9803   -8.3735    2.9622 C   0  0  1  0  0  0  0  0  0  0  0  0
   -0.4607   -8.0641    2.5141 C   0  0  0  0  0  0  0  0  0  0  0  0
   -0.7940   -6.7256    2.8132 O   0  0  0  0  0  0  0  0  0  0  0  0
    1.2043   -9.8399    3.3480 C   0  0  1  0  0  0  0  0  0  0  0  0
    0.4301  -10.6576    2.4738 O   0  0  0  0  0  0  0  0  0  0  0  0
    2.6846   -9.9987    3.0521 C   0  0  1  0  0  0  0  0  0  0  0  0
    3.0239  -11.3628    2.8831 O   0  0  0  0  0  0  0  0  0  0  0  0
    4.4175   -7.2252    1.2113 C   0  0  0  0  0  0  0  0  0  0  0  0
    3.5335   -6.5198    0.7195 O   0  0  0  0  0  0  0  0  0  0  0  0
    5.8046   -6.7756    1.2680 C   0  0  0  0  0  0  0  0  0  0  0  0
    6.2256   -5.5587    0.8634 O   0  0  0  0  0  0  0  0  0  0  0  0
    9.3553   -2.4468    0.1015 H   0  0  0  0  0  0  0  0  0  0  0  0
    9.0194   -7.0357    1.8021 H   0  0  0  0  0  0  0  0  0  0  0  0
    7.4129   -9.5131    2.4358 H   0  0  0  0  0  0  0  0  0  0  0  0
    5.1868  -10.3498    2.4605 H   0  0  0  0  0  0  0  0  0  0  0  0
    2.7541   -9.7074    0.8551 H   0  0  0  0  0  0  0  0  0  0  0  0
    1.2709   -7.7362    3.8086 H   0  0  0  0  0  0  0  0  0  0  0  0
   -0.5832   -8.2509    1.4470 H   0  0  0  0  0  0  0  0  0  0  0  0
   -1.1758   -8.7035    3.0389 H   0  0  0  0  0  0  0  0  0  0  0  0
   -0.6869   -6.6189    3.7433 H   0  0  0  0  0  0  0  0  0  0  0  0
    0.9669  -10.0496    4.3982 H   0  0  0  0  0  0  0  0  0  0  0  0
    0.5878  -10.3866    1.5888 H   0  0  0  0  0  0  0  0  0  0  0  0
    3.2592   -9.5560    3.8738 H   0  0  0  0  0  0  0  0  0  0  0  0
    3.3708  -11.5065    2.0012 H   0  0  0  0  0  0  0  0  0  0  0  0
  1  2  3  0
  1 22  1  0
  2  3  1  0
  3 21  1  0
  3  4  2  0
  4  5  1  0
  4 23  1  0
  5 20  2  0
  5  6  1  0
  6  7  2  0
  6 24  1  0
  7  8  1  0
  7 25  1  0
  8  9  1  0
  8 18  1  0
  9 16  1  0
  9 10  1  0
  9 26  1  6
 10 11  1  0
 11 12  1  0
 11 14  1  0
 11 27  1  1
 12 13  1  0
 12 28  1  0
 12 29  1  0
 13 30  1  0
 14 15  1  0
 14 16  1  0
 14 31  1  1
 15 32  1  0
 16 17  1  0
 16 33  1  1
 17 34  1  0
 18 19  2  0
 18 20  1  0
 20 21  1  0
M  END
>  <i_m_ct_stereo_status>  (83) 
1

>  <s_m_source_file>  (83) 
/var/tmp/pbs.5076255.sched01/tmp3_il56_a/09f63jmog.sdf

>  <i_m_source_file_index>  (83) 
32

>  <i_lp_mmshare_version>  (83) 
48012

>  <i_f3d_flags>  (83) 
0

>  <s_epik_input>  (83) 
W0NIXSNDYyhbY0hdMSlvYyhjMTIpYyg9TyluKFtjSF1bY0hdMilbQ0BASF0zT1tDQEBIXShbQ0gyXVtPSF0pW0NAQEhdKFtPSF0pW0NASF0zW09IXQ==

>  <s_epik_cmdline>  (83) 
J2VwaWtfcHl0aG9uJywgJy1waHQnLCAnMi4wJywgJy1waCcsICc3LjAnLCAnLXRuJywgJzgnLCAnLW1hJywgJzIwMCcsICctaW1hZScsICc8aW5maWxlLm1hZT4nLCAnLW9tYWUnLCAnPG91dGZpbGUubWFlPic=

>  <r_lp_tautomer_probability>  (83) 
1

>  <r_epik_Ionization_Penalty>  (83) 
5.04384e-07

>  <r_epik_Ionization_Penalty_Charging>  (83) 
1.13779e-08

>  <r_epik_Ionization_Penalty_Neutral>  (83) 
4.93006e-07

>  <r_epik_State_Penalty>  (83) 
-0

>  <r_epik_Charging_Adjusted_Penalty>  (83) 
1.13779e-08

>  <i_epik_Tot_Q>  (83) 
0

>  <i_epik_Tot_abs_Q>  (83) 
0

>  <s_epik_Chemistry_Notes>  (83) 
This compound contains an acetal/aminal-like group ( X-CH(R)-Y where X, Y are N, S, or O) that may be acid/base labile, releasing an aldehyde.

>  <s_lp_Force_Field>  (83) 
OPLS3e

>  <r_lp_Energy>  (83) 
24.4908

>  <b_lp_Chiralities_Consistent>  (83) 
1

>  <s_lp_Variant>  (83) 
21:0-1

>  <s_i_glide_gridfile>  (83) 
pfpi4k_grid

>  <i_i_glide_lignum>  (83) 
32

>  <i_i_glide_rotatable_bonds>  (83) 
6

>  <r_i_docking_score>  (83) 
-4.00941

>  <r_i_glide_ligand_efficiency>  (83) 
-0.190924

>  <r_i_glide_ligand_efficiency_sa>  (83) 
-0.526745

>  <r_i_glide_ligand_efficiency_ln>  (83) 
-0.991318

>  <r_i_glide_gscore>  (83) 
-4.00941

>  <r_i_glide_lipo>  (83) 
-0.785496

>  <r_i_glide_hbond>  (83) 
0

>  <r_i_glide_metal>  (83) 
-0

>  <r_i_glide_rewards>  (83) 
-1.42325

>  <r_i_glide_evdw>  (83) 
-22.558

>  <r_i_glide_ecoul>  (83) 
-8.50718

>  <r_i_glide_erotb>  (83) 
0.644987

>  <r_i_glide_esite>  (83) 
-0.0416702

>  <r_i_glide_emodel>  (83) 
-34.1974

>  <r_i_glide_energy>  (83) 
-31.0651

>  <r_i_glide_einternal>  (83) 
11.719

>  <r_i_glide_intrahb_reward>  (83) 
-0

>  <i_i_glide_confnum>  (83) 
3

>  <i_i_glide_posenum>  (83) 
14

>  <r_i_glide_eff_state_penalty>  (83) 
0

>  <ligand_id>  (83) 
21

>  <original_smiles>  (83) 
C#Cc1cc2ccn(C3OC(CO)C(O)C3O)c(=O)c2o1

>  <smiles>  (83) 
[H]C#Cc1oc2c(=O)n(C3([H])OC([H])(C([H])([H])O[H])C([H])(O[H])C3([H])O[H])c([H])c([H])c2c1[H]

$$$$
21:0:1
     RDKit          3D

 34 36  0  0  1  0  0  0  0  0999 V2000
    1.4953  -10.6488    2.9585 C   0  0  0  0  0  0  0  0  0  0  0  0
    2.2554   -9.7752    2.5711 C   0  0  0  0  0  0  0  0  0  0  0  0
    3.0966   -8.7425    2.1469 C   0  0  0  0  0  0  0  0  0  0  0  0
    4.4617   -8.6079    2.1848 C   0  0  0  0  0  0  0  0  0  0  0  0
    4.6782   -7.3251    1.6000 C   0  0  0  0  0  0  0  0  0  0  0  0
    5.8886   -6.5977    1.3326 C   0  0  0  0  0  0  0  0  0  0  0  0
    5.7849   -5.3906    0.7114 C   0  0  0  0  0  0  0  0  0  0  0  0
    4.5546   -4.8441    0.3103 N   0  0  0  0  0  0  0  0  0  0  0  0
    4.5311   -3.4706   -0.3193 C   0  0  2  0  0  0  0  0  0  0  0  0
    3.4679   -3.3884   -1.2298 O   0  0  0  0  0  0  0  0  0  0  0  0
    3.8922   -2.9162   -2.5078 C   0  0  1  0  0  0  0  0  0  0  0  0
    2.8806   -1.9186   -3.0868 C   0  0  0  0  0  0  0  0  0  0  0  0
    3.3517   -1.4606   -4.3409 O   0  0  0  0  0  0  0  0  0  0  0  0
    5.2945   -2.3478   -2.2783 C   0  0  1  0  0  0  0  0  0  0  0  0
    5.2245   -1.0114   -1.8210 O   0  0  0  0  0  0  0  0  0  0  0  0
    5.7942   -3.2458   -1.1745 C   0  0  1  0  0  0  0  0  0  0  0  0
    6.8724   -2.6283   -0.4867 O   0  0  0  0  0  0  0  0  0  0  0  0
    3.3257   -5.4800    0.6491 C   0  0  0  0  0  0  0  0  0  0  0  0
    2.2042   -5.0154    0.4682 O   0  0  0  0  0  0  0  0  0  0  0  0
    3.4945   -6.7919    1.2754 C   0  0  0  0  0  0  0  0  0  0  0  0
    2.4973   -7.6291    1.6068 O   0  0  0  0  0  0  0  0  0  0  0  0
    0.8383  -11.4149    3.3027 H   0  0  0  0  0  0  0  0  0  0  0  0
    5.1820   -9.3150    2.5668 H   0  0  0  0  0  0  0  0  0  0  0  0
    6.8536   -6.9912    1.6482 H   0  0  0  0  0  0  0  0  0  0  0  0
    6.7324   -4.8823    0.5874 H   0  0  0  0  0  0  0  0  0  0  0  0
    4.3819   -2.7489    0.4792 H   0  0  0  0  0  0  0  0  0  0  0  0
    3.9737   -3.7794   -3.1722 H   0  0  0  0  0  0  0  0  0  0  0  0
    1.9060   -2.3822   -3.2107 H   0  0  0  0  0  0  0  0  0  0  0  0
    2.7303   -1.0680   -2.4238 H   0  0  0  0  0  0  0  0  0  0  0  0
    2.6457   -1.0082   -4.7841 H   0  0  0  0  0  0  0  0  0  0  0  0
    5.9375   -2.4205   -3.1622 H   0  0  0  0  0  0  0  0  0  0  0  0
    4.5607   -0.9745   -1.1484 H   0  0  0  0  0  0  0  0  0  0  0  0
    6.0968   -4.1781   -1.6357 H   0  0  0  0  0  0  0  0  0  0  0  0
    7.1130   -3.1703    0.2502 H   0  0  0  0  0  0  0  0  0  0  0  0
  1  2  3  0
  1 22  1  0
  2  3  1  0
  3 21  1  0
  3  4  2  0
  4  5  1  0
  4 23  1  0
  5 20  2  0
  5  6  1  0
  6  7  2  0
  6 24  1  0
  7  8  1  0
  7 25  1  0
  8  9  1  0
  8 18  1  0
  9 16  1  0
  9 10  1  0
  9 26  1  1
 10 11  1  0
 11 12  1  0
 11 14  1  0
 11 27  1  6
 12 13  1  0
 12 28  1  0
 12 29  1  0
 13 30  1  0
 14 15  1  0
 14 16  1  0
 14 31  1  6
 15 32  1  0
 16 17  1  0
 16 33  1  6
 17 34  1  0
 18 19  2  0
 18 20  1  0
 20 21  1  0
M  END
>  <i_m_ct_stereo_status>  (84) 
1

>  <s_m_source_file>  (84) 
/var/tmp/pbs.5076255.sched01/tmp3_il56_a/09f63jmog.sdf

>  <i_m_source_file_index>  (84) 
32

>  <i_lp_mmshare_version>  (84) 
48012

>  <i_f3d_flags>  (84) 
0

>  <s_epik_input>  (84) 
W0NIXSNDYyhbY0hdMSlvYyhjMTIpYyg9TyluKFtjSF1bY0hdMilbQ0BASF0zT1tDQEBIXShbQ0gyXVtPSF0pW0NAQEhdKFtPSF0pW0NASF0zW09IXQ==

>  <s_epik_cmdline>  (84) 
J2VwaWtfcHl0aG9uJywgJy1waHQnLCAnMi4wJywgJy1waCcsICc3LjAnLCAnLXRuJywgJzgnLCAnLW1hJywgJzIwMCcsICctaW1hZScsICc8aW5maWxlLm1hZT4nLCAnLW9tYWUnLCAnPG91dGZpbGUubWFlPic=

>  <r_lp_tautomer_probability>  (84) 
1

>  <r_epik_Ionization_Penalty>  (84) 
5.04384e-07

>  <r_epik_Ionization_Penalty_Charging>  (84) 
1.13779e-08

>  <r_epik_Ionization_Penalty_Neutral>  (84) 
4.93006e-07

>  <r_epik_State_Penalty>  (84) 
-0

>  <r_epik_Charging_Adjusted_Penalty>  (84) 
1.13779e-08

>  <i_epik_Tot_Q>  (84) 
0

>  <i_epik_Tot_abs_Q>  (84) 
0

>  <s_epik_Chemistry_Notes>  (84) 
This compound contains an acetal/aminal-like group ( X-CH(R)-Y where X, Y are N, S, or O) that may be acid/base labile, releasing an aldehyde.

>  <s_lp_Force_Field>  (84) 
OPLS3e

>  <r_lp_Energy>  (84) 
24.4908

>  <b_lp_Chiralities_Consistent>  (84) 
1

>  <s_lp_Variant>  (84) 
21:0-1

>  <s_i_glide_gridfile>  (84) 
pfpi4k_grid

>  <i_i_glide_lignum>  (84) 
32

>  <i_i_glide_rotatable_bonds>  (84) 
6

>  <r_i_docking_score>  (84) 
-3.66674

>  <r_i_glide_ligand_efficiency>  (84) 
-0.174607

>  <r_i_glide_ligand_efficiency_sa>  (84) 
-0.481727

>  <r_i_glide_ligand_efficiency_ln>  (84) 
-0.906595

>  <r_i_glide_gscore>  (84) 
-3.66674

>  <r_i_glide_lipo>  (84) 
-0.653

>  <r_i_glide_hbond>  (84) 
-0.0207888

>  <r_i_glide_metal>  (84) 
-0

>  <r_i_glide_rewards>  (84) 
-1.53294

>  <r_i_glide_evdw>  (84) 
-25.6409

>  <r_i_glide_ecoul>  (84) 
-5.48638

>  <r_i_glide_erotb>  (84) 
0.644987

>  <r_i_glide_esite>  (84) 
0

>  <r_i_glide_emodel>  (84) 
-33.7954

>  <r_i_glide_energy>  (84) 
-31.1273

>  <r_i_glide_einternal>  (84) 
10.6963

>  <r_i_glide_intrahb_reward>  (84) 
-0

>  <i_i_glide_confnum>  (84) 
5

>  <i_i_glide_posenum>  (84) 
26

>  <r_i_glide_eff_state_penalty>  (84) 
0

>  <ligand_id>  (84) 
21

>  <original_smiles>  (84) 
C#Cc1cc2ccn(C3OC(CO)C(O)C3O)c(=O)c2o1

>  <smiles>  (84) 
[H]C#Cc1oc2c(=O)n(C3([H])OC([H])(C([H])([H])O[H])C([H])(O[H])C3([H])O[H])c([H])c([H])c2c1[H]

$$$$
21:0:2
     RDKit          3D

 34 36  0  0  1  0  0  0  0  0999 V2000
    0.9285  -10.8381    2.9063 C   0  0  0  0  0  0  0  0  0  0  0  0
    1.7450  -10.0117    2.5341 C   0  0  0  0  0  0  0  0  0  0  0  0
    2.6470   -9.0264    2.1246 C   0  0  0  0  0  0  0  0  0  0  0  0
    4.0168   -8.9975    2.1051 C   0  0  0  0  0  0  0  0  0  0  0  0
    4.3030   -7.7028    1.5826 C   0  0  0  0  0  0  0  0  0  0  0  0
    5.5542   -7.0497    1.3040 C   0  0  0  0  0  0  0  0  0  0  0  0
    5.5133   -5.8011    0.7542 C   0  0  0  0  0  0  0  0  0  0  0  0
    4.3172   -5.1473    0.4246 N   0  0  0  0  0  0  0  0  0  0  0  0
    4.3876   -3.7429   -0.1367 C   0  0  2  0  0  0  0  0  0  0  0  0
    3.2869   -3.5007   -0.9690 O   0  0  0  0  0  0  0  0  0  0  0  0
    3.6831   -3.0051   -2.2527 C   0  0  1  0  0  0  0  0  0  0  0  0
    2.7239   -1.9067   -2.7267 C   0  0  0  0  0  0  0  0  0  0  0  0
    3.1492   -1.3934   -3.9770 O   0  0  0  0  0  0  0  0  0  0  0  0
    5.1434   -2.5675   -2.0766 C   0  0  1  0  0  0  0  0  0  0  0  0
    5.2107   -1.2594   -1.5242 O   0  0  0  0  0  0  0  0  0  0  0  0
    5.6207   -3.5697   -1.0505 C   0  0  1  0  0  0  0  0  0  0  0  0
    6.7688   -3.0858   -0.3889 O   0  0  0  0  0  0  0  0  0  0  0  0
    3.0566   -5.7157    0.7849 C   0  0  0  0  0  0  0  0  0  0  0  0
    1.9598   -5.1769    0.6672 O   0  0  0  0  0  0  0  0  0  0  0  0
    3.1531   -7.0680    1.3389 C   0  0  0  0  0  0  0  0  0  0  0  0
    2.1119   -7.8463    1.6734 O   0  0  0  0  0  0  0  0  0  0  0  0
    0.2236  -11.5610    3.2444 H   0  0  0  0  0  0  0  0  0  0  0  0
    4.6926   -9.7805    2.4167 H   0  0  0  0  0  0  0  0  0  0  0  0
    6.4944   -7.5309    1.5555 H   0  0  0  0  0  0  0  0  0  0  0  0
    6.4906   -5.3484    0.6181 H   0  0  0  0  0  0  0  0  0  0  0  0
    4.3374   -3.0639    0.7164 H   0  0  0  0  0  0  0  0  0  0  0  0
    3.6481   -3.8312   -2.9695 H   0  0  0  0  0  0  0  0  0  0  0  0
    1.7145   -2.3011   -2.8249 H   0  0  0  0  0  0  0  0  0  0  0  0
    2.6664   -1.1004   -1.9959 H   0  0  0  0  0  0  0  0  0  0  0  0
    2.6011   -0.6567   -4.2037 H   0  0  0  0  0  0  0  0  0  0  0  0
    5.7266   -2.6261   -3.0078 H   0  0  0  0  0  0  0  0  0  0  0  0
    4.5343   -1.2037   -0.8662 H   0  0  0  0  0  0  0  0  0  0  0  0
    5.8148   -4.5005   -1.5791 H   0  0  0  0  0  0  0  0  0  0  0  0
    6.4958   -2.4075    0.2056 H   0  0  0  0  0  0  0  0  0  0  0  0
  1  2  3  0
  1 22  1  0
  2  3  1  0
  3 21  1  0
  3  4  2  0
  4  5  1  0
  4 23  1  0
  5 20  2  0
  5  6  1  0
  6  7  2  0
  6 24  1  0
  7  8  1  0
  7 25  1  0
  8  9  1  0
  8 18  1  0
  9 16  1  0
  9 10  1  0
  9 26  1  1
 10 11  1  0
 11 12  1  0
 11 14  1  0
 11 27  1  6
 12 13  1  0
 12 28  1  0
 12 29  1  0
 13 30  1  0
 14 15  1  0
 14 16  1  0
 14 31  1  6
 15 32  1  0
 16 17  1  0
 16 33  1  6
 17 34  1  0
 18 19  2  0
 18 20  1  0
 20 21  1  0
M  END
>  <i_m_ct_stereo_status>  (85) 
1

>  <s_m_source_file>  (85) 
/var/tmp/pbs.5076255.sched01/tmp3_il56_a/09f63jmog.sdf

>  <i_m_source_file_index>  (85) 
32

>  <i_lp_mmshare_version>  (85) 
48012

>  <i_f3d_flags>  (85) 
0

>  <s_epik_input>  (85) 
W0NIXSNDYyhbY0hdMSlvYyhjMTIpYyg9TyluKFtjSF1bY0hdMilbQ0BASF0zT1tDQEBIXShbQ0gyXVtPSF0pW0NAQEhdKFtPSF0pW0NASF0zW09IXQ==

>  <s_epik_cmdline>  (85) 
J2VwaWtfcHl0aG9uJywgJy1waHQnLCAnMi4wJywgJy1waCcsICc3LjAnLCAnLXRuJywgJzgnLCAnLW1hJywgJzIwMCcsICctaW1hZScsICc8aW5maWxlLm1hZT4nLCAnLW9tYWUnLCAnPG91dGZpbGUubWFlPic=

>  <r_lp_tautomer_probability>  (85) 
1

>  <r_epik_Ionization_Penalty>  (85) 
5.04384e-07

>  <r_epik_Ionization_Penalty_Charging>  (85) 
1.13779e-08

>  <r_epik_Ionization_Penalty_Neutral>  (85) 
4.93006e-07

>  <r_epik_State_Penalty>  (85) 
-0

>  <r_epik_Charging_Adjusted_Penalty>  (85) 
1.13779e-08

>  <i_epik_Tot_Q>  (85) 
0

>  <i_epik_Tot_abs_Q>  (85) 
0

>  <s_epik_Chemistry_Notes>  (85) 
This compound contains an acetal/aminal-like group ( X-CH(R)-Y where X, Y are N, S, or O) that may be acid/base labile, releasing an aldehyde.

>  <s_lp_Force_Field>  (85) 
OPLS3e

>  <r_lp_Energy>  (85) 
24.4908

>  <b_lp_Chiralities_Consistent>  (85) 
1

>  <s_lp_Variant>  (85) 
21:0-1

>  <s_i_glide_gridfile>  (85) 
pfpi4k_grid

>  <i_i_glide_lignum>  (85) 
32

>  <i_i_glide_rotatable_bonds>  (85) 
6

>  <r_i_docking_score>  (85) 
-3.5661

>  <r_i_glide_ligand_efficiency>  (85) 
-0.169814

>  <r_i_glide_ligand_efficiency_sa>  (85) 
-0.468505

>  <r_i_glide_ligand_efficiency_ln>  (85) 
-0.881711

>  <r_i_glide_gscore>  (85) 
-3.5661

>  <r_i_glide_lipo>  (85) 
-0.661162

>  <r_i_glide_hbond>  (85) 
-0.0695527

>  <r_i_glide_metal>  (85) 
-0

>  <r_i_glide_rewards>  (85) 
-1.51723

>  <r_i_glide_evdw>  (85) 
-25.7997

>  <r_i_glide_ecoul>  (85) 
-4.48767

>  <r_i_glide_erotb>  (85) 
0.644987

>  <r_i_glide_esite>  (85) 
0

>  <r_i_glide_emodel>  (85) 
-32.9135

>  <r_i_glide_energy>  (85) 
-30.2874

>  <r_i_glide_einternal>  (85) 
10.3132

>  <r_i_glide_intrahb_reward>  (85) 
-0

>  <i_i_glide_confnum>  (85) 
5

>  <i_i_glide_posenum>  (85) 
13

>  <r_i_glide_eff_state_penalty>  (85) 
0

>  <ligand_id>  (85) 
21

>  <original_smiles>  (85) 
C#Cc1cc2ccn(C3OC(CO)C(O)C3O)c(=O)c2o1

>  <smiles>  (85) 
[H]C#Cc1oc2c(=O)n(C3([H])OC([H])(C([H])([H])O[H])C([H])(O[H])C3([H])O[H])c([H])c([H])c2c1[H]

$$$$
22:0:0
     RDKit          3D

 59 66  0  0  1  0  0  0  0  0999 V2000
    4.1938   -0.8715    0.6814 C   0  0  0  0  0  0  0  0  0  0  0  0
    4.2045   -2.3524    1.1083 C   0  0  1  0  0  0  0  0  0  0  0  0
    3.3204   -3.2292    0.3054 C   0  0  0  0  0  0  0  0  0  0  0  0
    3.2362   -4.3505    1.3634 C   0  0  1  0  0  0  0  0  0  0  0  0
    4.6207   -4.6332    2.2449 C   0  0  2  0  0  0  0  0  0  0  0  0
    4.4455   -3.6131    3.3706 C   0  0  2  0  0  0  0  0  0  0  0  0
    3.5627   -4.3823    4.3972 C   0  0  1  0  0  0  0  0  0  0  0  0
    3.0798   -3.5425    5.4273 O   0  0  0  0  0  0  0  0  0  0  0  0
    2.4089   -4.9456    3.5113 C   0  0  2  0  0  0  0  0  0  0  0  0
    2.6296   -6.5504    3.1048 C   0  0  2  0  0  0  0  0  0  0  0  0
    3.1261   -7.2466    1.6939 C   0  0  2  0  0  0  0  0  0  0  0  0
    2.7154   -8.7353    1.8447 C   0  0  0  0  0  0  0  0  0  0  0  0
    1.8621   -8.8543    3.1016 C   0  0  0  0  0  0  0  0  0  0  0  0
    1.4068   -7.4333    3.4713 C   0  0  1  0  0  0  0  0  0  0  0  0
    0.9508   -7.4096    4.9470 C   0  0  0  0  0  0  0  0  0  0  0  0
   -0.4487   -7.6383    4.8834 O   0  0  0  0  0  0  0  0  0  0  0  0
   -0.9666   -7.4527    3.6710 C   0  0  0  0  0  0  0  0  0  0  0  0
   -2.1466   -7.5338    3.3510 O   0  0  0  0  0  0  0  0  0  0  0  0
    0.1373   -7.0572    2.7043 C   0  0  0  0  0  0  0  0  0  0  0  0
    4.6083   -7.1309    1.0674 C   0  0  0  0  0  0  0  0  0  0  0  0
    5.3985   -8.0621    1.1950 O   0  0  0  0  0  0  0  0  0  0  0  0
    5.1423   -5.8339    0.2939 C   0  0  0  0  0  0  0  0  0  0  0  0
    5.6476   -4.6083    1.1973 C   0  0  2  0  0  0  0  0  0  0  0  0
    7.1555   -4.7312    1.3115 C   0  0  0  0  0  0  0  0  0  0  0  0
    7.7701   -3.8465    0.4902 C   0  0  0  0  0  0  0  0  0  0  0  0
    6.7542   -2.9022   -0.0257 C   0  0  0  0  0  0  0  0  0  0  0  0
    6.8122   -2.1110   -0.9698 O   0  0  0  0  0  0  0  0  0  0  0  0
    5.6102   -3.0707    0.9455 C   0  0  1  0  0  0  0  0  0  0  0  0
    2.4297   -3.7936    2.4232 C   0  0  1  0  0  0  0  0  0  0  0  0
    3.5471   -2.6841    2.5655 C   0  0  2  0  0  0  0  0  0  0  0  0
    3.1355   -1.5249    3.2637 O   0  0  0  0  0  0  0  0  0  0  0  0
    3.1954   -0.4374    0.7504 H   0  0  0  0  0  0  0  0  0  0  0  0
    4.5199   -0.7542   -0.3516 H   0  0  0  0  0  0  0  0  0  0  0  0
    4.8585   -0.2776    1.3075 H   0  0  0  0  0  0  0  0  0  0  0  0
    2.3498   -2.7710    0.0986 H   0  0  0  0  0  0  0  0  0  0  0  0
    3.7576   -3.5190   -0.6515 H   0  0  0  0  0  0  0  0  0  0  0  0
    2.6974   -5.1073    0.8349 H   0  0  0  0  0  0  0  0  0  0  0  0
    4.8200   -5.5265    2.8260 H   0  0  0  0  0  0  0  0  0  0  0  0
    5.3603   -3.1842    3.7789 H   0  0  0  0  0  0  0  0  0  0  0  0
    4.1207   -5.1732    4.8969 H   0  0  0  0  0  0  0  0  0  0  0  0
    2.5847   -4.0615    6.0416 H   0  0  0  0  0  0  0  0  0  0  0  0
    1.4745   -4.8529    4.0645 H   0  0  0  0  0  0  0  0  0  0  0  0
    3.3855   -6.8939    3.8118 H   0  0  0  0  0  0  0  0  0  0  0  0
    2.4431   -6.9617    0.8991 H   0  0  0  0  0  0  0  0  0  0  0  0
    2.1267   -9.0379    0.9778 H   0  0  0  0  0  0  0  0  0  0  0  0
    3.5457   -9.4399    1.9084 H   0  0  0  0  0  0  0  0  0  0  0  0
    1.0324   -9.5514    2.9688 H   0  0  0  0  0  0  0  0  0  0  0  0
    2.4884   -9.2643    3.8953 H   0  0  0  0  0  0  0  0  0  0  0  0
    1.4459   -8.1742    5.5494 H   0  0  0  0  0  0  0  0  0  0  0  0
    1.1294   -6.4491    5.4283 H   0  0  0  0  0  0  0  0  0  0  0  0
    0.0827   -5.9868    2.5153 H   0  0  0  0  0  0  0  0  0  0  0  0
    0.0401   -7.5884    1.7549 H   0  0  0  0  0  0  0  0  0  0  0  0
    5.9932   -6.1658   -0.2985 H   0  0  0  0  0  0  0  0  0  0  0  0
    4.4099   -5.5394   -0.4572 H   0  0  0  0  0  0  0  0  0  0  0  0
    7.6404   -5.5084    1.8858 H   0  0  0  0  0  0  0  0  0  0  0  0
    8.8333   -3.7525    0.3065 H   0  0  0  0  0  0  0  0  0  0  0  0
    6.1066   -2.6019    1.7986 H   0  0  0  0  0  0  0  0  0  0  0  0
    1.4518   -3.4381    2.1016 H   0  0  0  0  0  0  0  0  0  0  0  0
    2.5164   -1.0561    2.7238 H   0  0  0  0  0  0  0  0  0  0  0  0
  2  1  1  6
  1 32  1  0
  1 33  1  0
  1 34  1  0
  2 28  1  0
  2 30  1  0
  2  3  1  0
  3  4  1  0
  3 35  1  0
  3 36  1  0
  4 29  1  0
  4  5  1  0
  4 37  1  6
  5 23  1  0
  5  6  1  0
  5 38  1  1
  6 30  1  0
  6  7  1  0
  6 39  1  1
  7  8  1  0
  7  9  1  0
  7 40  1  1
  8 41  1  0
  9 10  1  0
  9 29  1  0
  9 42  1  1
 10 14  1  0
 10 11  1  0
 10 43  1  1
 11 12  1  0
 11 20  1  0
 11 44  1  6
 12 13  1  0
 12 45  1  0
 12 46  1  0
 14 13  1  6
 13 47  1  0
 13 48  1  0
 14 19  1  0
 14 15  1  0
 15 16  1  0
 15 49  1  0
 15 50  1  0
 16 17  1  0
 17 18  2  0
 17 19  1  0
 19 51  1  0
 19 52  1  0
 20 21  2  0
 20 22  1  0
 22 23  1  0
 22 53  1  0
 22 54  1  0
 23 28  1  0
 23 24  1  1
 24 25  2  0
 24 55  1  0
 25 26  1  0
 25 56  1  0
 26 27  2  0
 26 28  1  0
 28 57  1  1
 29 30  1  0
 29 58  1  6
 30 31  1  1
 31 59  1  0
M  END
>  <i_m_ct_stereo_status>  (86) 
1

>  <s_m_source_file>  (86) 
/var/tmp/pbs.5076255.sched01/tmp3_il56_a/09f63jmog.sdf

>  <i_m_source_file_index>  (86) 
33

>  <i_lp_mmshare_version>  (86) 
48012

>  <i_f3d_flags>  (86) 
0

>  <s_epik_input>  (86) 
W09IXVtDQEBIXTFbQ0BASF0yW0NAQF0zKFtPSF0pW0NAXShbQ0gzXSkoW0NIMl00KVtDQEhdKEMoPU8pW0NIXT1bQ0hdNSlbQ0BdNShbQ0gyXUMoPU8pW0NASF02W0NIMl1bQ0gyXTcpW0NAQEhdMltDQEhdNFtDQEhdM1tDQEhdMVtDQEhdNltDQF03OFtDSDJdT0MoPU8pW0NIMl04

>  <s_epik_cmdline>  (86) 
J2VwaWtfcHl0aG9uJywgJy1waHQnLCAnMi4wJywgJy1waCcsICc3LjAnLCAnLXRuJywgJzgnLCAnLW1hJywgJzIwMCcsICctaW1hZScsICc8aW5maWxlLm1hZT4nLCAnLW9tYWUnLCAnPG91dGZpbGUubWFlPic=

>  <r_lp_tautomer_probability>  (86) 
1

>  <r_epik_Ionization_Penalty>  (86) 
9.39872e-07

>  <r_epik_Ionization_Penalty_Charging>  (86) 
0

>  <r_epik_Ionization_Penalty_Neutral>  (86) 
9.39872e-07

>  <r_epik_State_Penalty>  (86) 
-0

>  <r_epik_Charging_Adjusted_Penalty>  (86) 
0

>  <i_epik_Tot_Q>  (86) 
0

>  <i_epik_Tot_abs_Q>  (86) 
0

>  <s_epik_Chemistry_Notes>  (86) 
This compound has an ester and may undergo hydrolysis at high or low pH.

>  <s_lp_Force_Field>  (86) 
OPLS3e

>  <r_lp_Energy>  (86) 
215.097

>  <b_lp_Chiralities_Consistent>  (86) 
1

>  <s_lp_Variant>  (86) 
22:0-1

>  <s_i_glide_gridfile>  (86) 
pfpi4k_grid

>  <i_i_glide_lignum>  (86) 
33

>  <i_i_glide_rotatable_bonds>  (86) 
2

>  <r_i_docking_score>  (86) 
-3.82828

>  <r_i_glide_ligand_efficiency>  (86) 
-0.123493

>  <r_i_glide_ligand_efficiency_sa>  (86) 
-0.387938

>  <r_i_glide_ligand_efficiency_ln>  (86) 
-0.863395

>  <r_i_glide_gscore>  (86) 
-3.82828

>  <r_i_glide_lipo>  (86) 
-0.648668

>  <r_i_glide_hbond>  (86) 
-0.16

>  <r_i_glide_metal>  (86) 
-0

>  <r_i_glide_rewards>  (86) 
-0.743707

>  <r_i_glide_evdw>  (86) 
-32.2015

>  <r_i_glide_ecoul>  (86) 
-4.00842

>  <r_i_glide_erotb>  (86) 
0

>  <r_i_glide_esite>  (86) 
-0.0645687

>  <r_i_glide_emodel>  (86) 
-44.4687

>  <r_i_glide_energy>  (86) 
-36.2099

>  <r_i_glide_einternal>  (86) 
0.351706

>  <r_i_glide_intrahb_reward>  (86) 
-0

>  <i_i_glide_confnum>  (86) 
1

>  <i_i_glide_posenum>  (86) 
20

>  <r_i_glide_eff_state_penalty>  (86) 
0

>  <ligand_id>  (86) 
22

>  <original_smiles>  (86) 
CC12CC3C4C5C(O)C(C6C(CCC67COC(=O)C7)C(=O)CC46C=CC(=O)C61)C3C52O

>  <smiles>  (86) 
[H]OC1([H])C2([H])C3([H])C4([H])C([H])([H])C5(C([H])([H])[H])C6([H])C(=O)C([H])=C([H])C6(C([H])([H])C(=O)C6([H])C([H])([H])C([H])([H])C7(C([H])([H])OC(=O)C7([H])[H])C62[H])C4([H])C1([H])C35O[H]

$$$$
22:0:1
     RDKit          3D

 59 66  0  0  1  0  0  0  0  0999 V2000
    4.0768   -0.7049    0.9300 C   0  0  0  0  0  0  0  0  0  0  0  0
    4.1118   -2.2085    1.2639 C   0  0  1  0  0  0  0  0  0  0  0  0
    3.1671   -3.0339    0.4787 C   0  0  0  0  0  0  0  0  0  0  0  0
    3.1571   -4.2187    1.4692 C   0  0  1  0  0  0  0  0  0  0  0  0
    4.6005   -4.5556    2.2244 C   0  0  2  0  0  0  0  0  0  0  0  0
    4.5169   -3.6047    3.4188 C   0  0  2  0  0  0  0  0  0  0  0  0
    3.7139   -4.4362    4.4605 C   0  0  1  0  0  0  0  0  0  0  0  0
    3.3238   -3.6587    5.5754 O   0  0  0  0  0  0  0  0  0  0  0  0
    2.4904   -4.9431    3.6354 C   0  0  2  0  0  0  0  0  0  0  0  0
    2.6699   -6.5199    3.1161 C   0  0  2  0  0  0  0  0  0  0  0  0
    3.0516   -7.1275    1.6307 C   0  0  2  0  0  0  0  0  0  0  0  0
    2.6461   -8.6231    1.7204 C   0  0  0  0  0  0  0  0  0  0  0  0
    1.8918   -8.8184    3.0286 C   0  0  0  0  0  0  0  0  0  0  0  0
    1.4736   -7.4238    3.5206 C   0  0  1  0  0  0  0  0  0  0  0  0
    1.1332   -7.4897    5.0249 C   0  0  0  0  0  0  0  0  0  0  0  0
   -0.2682   -7.7144    5.0555 O   0  0  0  0  0  0  0  0  0  0  0  0
   -0.8755   -7.4445    3.9014 C   0  0  0  0  0  0  0  0  0  0  0  0
   -2.0793   -7.4987    3.6690 O   0  0  0  0  0  0  0  0  0  0  0  0
    0.1520   -6.9994    2.8766 C   0  0  0  0  0  0  0  0  0  0  0  0
    4.4793   -6.9738    0.8939 C   0  0  0  0  0  0  0  0  0  0  0  0
    5.2651   -7.9186    0.8919 O   0  0  0  0  0  0  0  0  0  0  0  0
    4.9655   -5.6322    0.1653 C   0  0  0  0  0  0  0  0  0  0  0  0
    5.5457   -4.4658    1.1046 C   0  0  2  0  0  0  0  0  0  0  0  0
    7.0565   -4.5991    1.1000 C   0  0  0  0  0  0  0  0  0  0  0  0
    7.6157   -3.6670    0.2942 C   0  0  0  0  0  0  0  0  0  0  0  0
    6.5702   -2.6951   -0.0890 C   0  0  0  0  0  0  0  0  0  0  0  0
    6.5681   -1.8596   -0.9927 O   0  0  0  0  0  0  0  0  0  0  0  0
    5.4959   -2.9181    0.9538 C   0  0  1  0  0  0  0  0  0  0  0  0
    2.4324   -3.7298    2.6173 C   0  0  1  0  0  0  0  0  0  0  0  0
    3.5600   -2.6306    2.7413 C   0  0  2  0  0  0  0  0  0  0  0  0
    3.1808   -1.5190    3.5275 O   0  0  0  0  0  0  0  0  0  0  0  0
    3.0887   -0.2784    1.1068 H   0  0  0  0  0  0  0  0  0  0  0  0
    4.3197   -0.5239   -0.1172 H   0  0  0  0  0  0  0  0  0  0  0  0
    4.7915   -0.1488    1.5357 H   0  0  0  0  0  0  0  0  0  0  0  0
    2.1893   -2.5618    0.3797 H   0  0  0  0  0  0  0  0  0  0  0  0
    3.5266   -3.2639   -0.5257 H   0  0  0  0  0  0  0  0  0  0  0  0
    2.5730   -4.9394    0.9395 H   0  0  0  0  0  0  0  0  0  0  0  0
    4.8399   -5.4848    2.7299 H   0  0  0  0  0  0  0  0  0  0  0  0
    5.4636   -3.2065    3.7814 H   0  0  0  0  0  0  0  0  0  0  0  0
    4.3031   -5.2596    4.8643 H   0  0  0  0  0  0  0  0  0  0  0  0
    2.8723   -4.2139    6.1897 H   0  0  0  0  0  0  0  0  0  0  0  0
    1.6018   -4.8828    4.2630 H   0  0  0  0  0  0  0  0  0  0  0  0
    3.4759   -6.9070    3.7397 H   0  0  0  0  0  0  0  0  0  0  0  0
    2.3098   -6.7933    0.9102 H   0  0  0  0  0  0  0  0  0  0  0  0
    1.9881   -8.8678    0.8846 H   0  0  0  0  0  0  0  0  0  0  0  0
    3.4740   -9.3324    1.6742 H   0  0  0  0  0  0  0  0  0  0  0  0
    1.0522   -9.5058    2.9157 H   0  0  0  0  0  0  0  0  0  0  0  0
    2.5743   -9.2794    3.7438 H   0  0  0  0  0  0  0  0  0  0  0  0
    1.6706   -8.2899    5.5392 H   0  0  0  0  0  0  0  0  0  0  0  0
    1.3536   -6.5596    5.5470 H   0  0  0  0  0  0  0  0  0  0  0  0
    0.0892   -5.9188    2.7604 H   0  0  0  0  0  0  0  0  0  0  0  0
   -0.0232   -7.4699    1.9061 H   0  0  0  0  0  0  0  0  0  0  0  0
    5.7691   -5.9210   -0.5090 H   0  0  0  0  0  0  0  0  0  0  0  0
    4.1781   -5.2889   -0.5062 H   0  0  0  0  0  0  0  0  0  0  0  0
    7.5774   -5.4135    1.5806 H   0  0  0  0  0  0  0  0  0  0  0  0
    8.6569   -3.5620    0.0284 H   0  0  0  0  0  0  0  0  0  0  0  0
    6.0605   -2.5023    1.7905 H   0  0  0  0  0  0  0  0  0  0  0  0
    1.4330   -3.3521    2.3964 H   0  0  0  0  0  0  0  0  0  0  0  0
    3.9363   -0.9654    3.6458 H   0  0  0  0  0  0  0  0  0  0  0  0
  2  1  1  6
  1 32  1  0
  1 33  1  0
  1 34  1  0
  2 28  1  0
  2 30  1  0
  2  3  1  0
  3  4  1  0
  3 35  1  0
  3 36  1  0
  4 29  1  0
  4  5  1  0
  4 37  1  6
  5 23  1  0
  5  6  1  0
  5 38  1  1
  6 30  1  0
  6  7  1  0
  6 39  1  1
  7  8  1  0
  7  9  1  0
  7 40  1  1
  8 41  1  0
  9 10  1  0
  9 29  1  0
  9 42  1  1
 10 14  1  0
 10 11  1  0
 10 43  1  1
 11 12  1  0
 11 20  1  0
 11 44  1  6
 12 13  1  0
 12 45  1  0
 12 46  1  0
 14 13  1  6
 13 47  1  0
 13 48  1  0
 14 19  1  0
 14 15  1  0
 15 16  1  0
 15 49  1  0
 15 50  1  0
 16 17  1  0
 17 18  2  0
 17 19  1  0
 19 51  1  0
 19 52  1  0
 20 21  2  0
 20 22  1  0
 22 23  1  0
 22 53  1  0
 22 54  1  0
 23 28  1  0
 23 24  1  1
 24 25  2  0
 24 55  1  0
 25 26  1  0
 25 56  1  0
 26 27  2  0
 26 28  1  0
 28 57  1  1
 29 30  1  0
 29 58  1  6
 30 31  1  1
 31 59  1  0
M  END
>  <i_m_ct_stereo_status>  (87) 
1

>  <s_m_source_file>  (87) 
/var/tmp/pbs.5076255.sched01/tmp3_il56_a/09f63jmog.sdf

>  <i_m_source_file_index>  (87) 
33

>  <i_lp_mmshare_version>  (87) 
48012

>  <i_f3d_flags>  (87) 
0

>  <s_epik_input>  (87) 
W09IXVtDQEBIXTFbQ0BASF0yW0NAQF0zKFtPSF0pW0NAXShbQ0gzXSkoW0NIMl00KVtDQEhdKEMoPU8pW0NIXT1bQ0hdNSlbQ0BdNShbQ0gyXUMoPU8pW0NASF02W0NIMl1bQ0gyXTcpW0NAQEhdMltDQEhdNFtDQEhdM1tDQEhdMVtDQEhdNltDQF03OFtDSDJdT0MoPU8pW0NIMl04

>  <s_epik_cmdline>  (87) 
J2VwaWtfcHl0aG9uJywgJy1waHQnLCAnMi4wJywgJy1waCcsICc3LjAnLCAnLXRuJywgJzgnLCAnLW1hJywgJzIwMCcsICctaW1hZScsICc8aW5maWxlLm1hZT4nLCAnLW9tYWUnLCAnPG91dGZpbGUubWFlPic=

>  <r_lp_tautomer_probability>  (87) 
1

>  <r_epik_Ionization_Penalty>  (87) 
9.39872e-07

>  <r_epik_Ionization_Penalty_Charging>  (87) 
0

>  <r_epik_Ionization_Penalty_Neutral>  (87) 
9.39872e-07

>  <r_epik_State_Penalty>  (87) 
-0

>  <r_epik_Charging_Adjusted_Penalty>  (87) 
0

>  <i_epik_Tot_Q>  (87) 
0

>  <i_epik_Tot_abs_Q>  (87) 
0

>  <s_epik_Chemistry_Notes>  (87) 
This compound has an ester and may undergo hydrolysis at high or low pH.

>  <s_lp_Force_Field>  (87) 
OPLS3e

>  <r_lp_Energy>  (87) 
215.097

>  <b_lp_Chiralities_Consistent>  (87) 
1

>  <s_lp_Variant>  (87) 
22:0-1

>  <s_i_glide_gridfile>  (87) 
pfpi4k_grid

>  <i_i_glide_lignum>  (87) 
33

>  <i_i_glide_rotatable_bonds>  (87) 
2

>  <r_i_docking_score>  (87) 
-3.67562

>  <r_i_glide_ligand_efficiency>  (87) 
-0.118568

>  <r_i_glide_ligand_efficiency_sa>  (87) 
-0.372468

>  <r_i_glide_ligand_efficiency_ln>  (87) 
-0.828965

>  <r_i_glide_gscore>  (87) 
-3.67562

>  <r_i_glide_lipo>  (87) 
-0.612752

>  <r_i_glide_hbond>  (87) 
-0.16

>  <r_i_glide_metal>  (87) 
-0

>  <r_i_glide_rewards>  (87) 
-0.711244

>  <r_i_glide_evdw>  (87) 
-31.8458

>  <r_i_glide_ecoul>  (87) 
-3.60083

>  <r_i_glide_erotb>  (87) 
0

>  <r_i_glide_esite>  (87) 
-0.0592114

>  <r_i_glide_emodel>  (87) 
-43.3572

>  <r_i_glide_energy>  (87) 
-35.4466

>  <r_i_glide_einternal>  (87) 
0.36079

>  <r_i_glide_intrahb_reward>  (87) 
-0

>  <i_i_glide_confnum>  (87) 
1

>  <i_i_glide_posenum>  (87) 
21

>  <r_i_glide_eff_state_penalty>  (87) 
0

>  <ligand_id>  (87) 
22

>  <original_smiles>  (87) 
CC12CC3C4C5C(O)C(C6C(CCC67COC(=O)C7)C(=O)CC46C=CC(=O)C61)C3C52O

>  <smiles>  (87) 
[H]OC1([H])C2([H])C3([H])C4([H])C([H])([H])C5(C([H])([H])[H])C6([H])C(=O)C([H])=C([H])C6(C([H])([H])C(=O)C6([H])C([H])([H])C([H])([H])C7(C([H])([H])OC(=O)C7([H])[H])C62[H])C4([H])C1([H])C35O[H]

$$$$
22:0:2
     RDKit          3D

 59 66  0  0  1  0  0  0  0  0999 V2000
    3.7052   -1.1934   -1.7446 C   0  0  0  0  0  0  0  0  0  0  0  0
    4.1564   -1.9796   -0.4984 C   0  0  1  0  0  0  0  0  0  0  0  0
    3.3940   -3.2233   -0.2377 C   0  0  0  0  0  0  0  0  0  0  0  0
    3.8093   -3.3281    1.2480 C   0  0  1  0  0  0  0  0  0  0  0  0
    5.3624   -2.8399    1.6152 C   0  0  2  0  0  0  0  0  0  0  0  0
    5.1479   -1.3345    1.8155 C   0  0  2  0  0  0  0  0  0  0  0  0
    4.7120   -1.2498    3.3038 C   0  0  1  0  0  0  0  0  0  0  0  0
    4.2170    0.0280    3.6389 O   0  0  0  0  0  0  0  0  0  0  0  0
    3.5968   -2.3275    3.3988 C   0  0  2  0  0  0  0  0  0  0  0  0
    4.1298   -3.7616    4.0647 C   0  0  2  0  0  0  0  0  0  0  0  0
    4.5236   -5.2024    3.3564 C   0  0  2  0  0  0  0  0  0  0  0  0
    4.5395   -6.2096    4.5319 C   0  0  0  0  0  0  0  0  0  0  0  0
    3.9771   -5.4916    5.7523 C   0  0  0  0  0  0  0  0  0  0  0  0
    3.2458   -4.2394    5.2531 C   0  0  1  0  0  0  0  0  0  0  0  0
    3.0645   -3.2221    6.3946 C   0  0  0  0  0  0  0  0  0  0  0  0
    1.7990   -2.6260    6.1632 O   0  0  0  0  0  0  0  0  0  0  0  0
    1.0380   -3.3104    5.3091 C   0  0  0  0  0  0  0  0  0  0  0  0
   -0.0857   -3.0061    4.9277 O   0  0  0  0  0  0  0  0  0  0  0  0
    1.8027   -4.5354    4.8251 C   0  0  0  0  0  0  0  0  0  0  0  0
    5.7795   -5.4609    2.3698 C   0  0  0  0  0  0  0  0  0  0  0  0
    6.7928   -6.0065    2.7949 O   0  0  0  0  0  0  0  0  0  0  0  0
    5.7996   -5.0140    0.8309 C   0  0  0  0  0  0  0  0  0  0  0  0
    6.1308   -3.4712    0.5405 C   0  0  2  0  0  0  0  0  0  0  0  0
    7.6120   -3.3694    0.2295 C   0  0  0  0  0  0  0  0  0  0  0  0
    7.8017   -3.2182   -1.1026 C   0  0  0  0  0  0  0  0  0  0  0  0
    6.4851   -2.9794   -1.7365 C   0  0  0  0  0  0  0  0  0  0  0  0
    6.1274   -3.0672   -2.9087 O   0  0  0  0  0  0  0  0  0  0  0  0
    5.6427   -2.5161   -0.5867 C   0  0  1  0  0  0  0  0  0  0  0  0
    3.1031   -2.2549    1.9004 C   0  0  1  0  0  0  0  0  0  0  0  0
    3.8903   -1.2728    0.9502 C   0  0  2  0  0  0  0  0  0  0  0  0
    3.2960    0.0024    0.8772 O   0  0  0  0  0  0  0  0  0  0  0  0
    2.6590   -0.8951   -1.6785 H   0  0  0  0  0  0  0  0  0  0  0  0
    3.7898   -1.7967   -2.6468 H   0  0  0  0  0  0  0  0  0  0  0  0
    4.2955   -0.2877   -1.8759 H   0  0  0  0  0  0  0  0  0  0  0  0
    2.3154   -3.0874   -0.3631 H   0  0  0  0  0  0  0  0  0  0  0  0
    3.7023   -4.0546   -0.8748 H   0  0  0  0  0  0  0  0  0  0  0  0
    3.3963   -4.2738    1.5259 H   0  0  0  0  0  0  0  0  0  0  0  0
    5.8974   -3.0784    2.5275 H   0  0  0  0  0  0  0  0  0  0  0  0
    5.9778   -0.6817    1.5331 H   0  0  0  0  0  0  0  0  0  0  0  0
    5.5360   -1.4493    3.9864 H   0  0  0  0  0  0  0  0  0  0  0  0
    3.6107    0.2861    2.9545 H   0  0  0  0  0  0  0  0  0  0  0  0
    2.8292   -1.8780    4.0232 H   0  0  0  0  0  0  0  0  0  0  0  0
    5.0670   -3.4888    4.5519 H   0  0  0  0  0  0  0  0  0  0  0  0
    3.6568   -5.5849    2.8280 H   0  0  0  0  0  0  0  0  0  0  0  0
    3.8980   -7.0572    4.2869 H   0  0  0  0  0  0  0  0  0  0  0  0
    5.5198   -6.6276    4.7690 H   0  0  0  0  0  0  0  0  0  0  0  0
    3.3460   -6.1429    6.3570 H   0  0  0  0  0  0  0  0  0  0  0  0
    4.8165   -5.1999    6.3837 H   0  0  0  0  0  0  0  0  0  0  0  0
    3.0160   -3.7360    7.3571 H   0  0  0  0  0  0  0  0  0  0  0  0
    3.8724   -2.4921    6.4401 H   0  0  0  0  0  0  0  0  0  0  0  0
    1.7003   -4.6666    3.7489 H   0  0  0  0  0  0  0  0  0  0  0  0
    1.4011   -5.4183    5.3256 H   0  0  0  0  0  0  0  0  0  0  0  0
    6.5793   -5.6063    0.3534 H   0  0  0  0  0  0  0  0  0  0  0  0
    4.8822   -5.3476    0.3445 H   0  0  0  0  0  0  0  0  0  0  0  0
    8.3796   -3.5295    0.9725 H   0  0  0  0  0  0  0  0  0  0  0  0
    8.7448   -3.2024   -1.6368 H   0  0  0  0  0  0  0  0  0  0  0  0
    6.1452   -1.5591   -0.4297 H   0  0  0  0  0  0  0  0  0  0  0  0
    2.0218   -2.2995    1.7611 H   0  0  0  0  0  0  0  0  0  0  0  0
    2.4570   -0.0939    0.4272 H   0  0  0  0  0  0  0  0  0  0  0  0
  2  1  1  6
  1 32  1  0
  1 33  1  0
  1 34  1  0
  2 28  1  0
  2 30  1  0
  2  3  1  0
  3  4  1  0
  3 35  1  0
  3 36  1  0
  4 29  1  0
  4  5  1  0
  4 37  1  1
  5 23  1  0
  5  6  1  0
  5 38  1  1
  6 30  1  0
  6  7  1  0
  6 39  1  6
  7  8  1  0
  7  9  1  0
  7 40  1  1
  8 41  1  0
  9 10  1  0
  9 29  1  0
  9 42  1  1
 10 14  1  0
 10 11  1  0
 10 43  1  1
 11 12  1  0
 11 20  1  0
 11 44  1  6
 12 13  1  0
 12 45  1  0
 12 46  1  0
 14 13  1  1
 13 47  1  0
 13 48  1  0
 14 19  1  0
 14 15  1  0
 15 16  1  0
 15 49  1  0
 15 50  1  0
 16 17  1  0
 17 18  2  0
 17 19  1  0
 19 51  1  0
 19 52  1  0
 20 21  2  0
 20 22  1  0
 22 23  1  0
 22 53  1  0
 22 54  1  0
 23 28  1  0
 23 24  1  1
 24 25  2  0
 24 55  1  0
 25 26  1  0
 25 56  1  0
 26 27  2  0
 26 28  1  0
 28 57  1  1
 29 30  1  0
 29 58  1  1
 30 31  1  6
 31 59  1  0
M  END
>  <i_m_ct_stereo_status>  (88) 
1

>  <s_m_source_file>  (88) 
/var/tmp/pbs.5076255.sched01/tmp3_il56_a/09f63jmog.sdf

>  <i_m_source_file_index>  (88) 
33

>  <i_lp_mmshare_version>  (88) 
48012

>  <i_f3d_flags>  (88) 
0

>  <s_epik_input>  (88) 
W09IXVtDQEBIXTFbQ0BASF0yW0NAQF0zKFtPSF0pW0NAXShbQ0gzXSkoW0NIMl00KVtDQEhdKEMoPU8pW0NIXT1bQ0hdNSlbQ0BdNShbQ0gyXUMoPU8pW0NASF02W0NIMl1bQ0gyXTcpW0NAQEhdMltDQEhdNFtDQEhdM1tDQEhdMVtDQEhdNltDQF03OFtDSDJdT0MoPU8pW0NIMl04

>  <s_epik_cmdline>  (88) 
J2VwaWtfcHl0aG9uJywgJy1waHQnLCAnMi4wJywgJy1waCcsICc3LjAnLCAnLXRuJywgJzgnLCAnLW1hJywgJzIwMCcsICctaW1hZScsICc8aW5maWxlLm1hZT4nLCAnLW9tYWUnLCAnPG91dGZpbGUubWFlPic=

>  <r_lp_tautomer_probability>  (88) 
1

>  <r_epik_Ionization_Penalty>  (88) 
9.39872e-07

>  <r_epik_Ionization_Penalty_Charging>  (88) 
0

>  <r_epik_Ionization_Penalty_Neutral>  (88) 
9.39872e-07

>  <r_epik_State_Penalty>  (88) 
-0

>  <r_epik_Charging_Adjusted_Penalty>  (88) 
0

>  <i_epik_Tot_Q>  (88) 
0

>  <i_epik_Tot_abs_Q>  (88) 
0

>  <s_epik_Chemistry_Notes>  (88) 
This compound has an ester and may undergo hydrolysis at high or low pH.

>  <s_lp_Force_Field>  (88) 
OPLS3e

>  <r_lp_Energy>  (88) 
215.097

>  <b_lp_Chiralities_Consistent>  (88) 
1

>  <s_lp_Variant>  (88) 
22:0-1

>  <s_i_glide_gridfile>  (88) 
pfpi4k_grid

>  <i_i_glide_lignum>  (88) 
33

>  <i_i_glide_rotatable_bonds>  (88) 
2

>  <r_i_docking_score>  (88) 
-3.28271

>  <r_i_glide_ligand_efficiency>  (88) 
-0.105894

>  <r_i_glide_ligand_efficiency_sa>  (88) 
-0.332653

>  <r_i_glide_ligand_efficiency_ln>  (88) 
-0.740352

>  <r_i_glide_gscore>  (88) 
-3.28271

>  <r_i_glide_lipo>  (88) 
-0.597419

>  <r_i_glide_hbond>  (88) 
0

>  <r_i_glide_metal>  (88) 
-0

>  <r_i_glide_rewards>  (88) 
-1.07684

>  <r_i_glide_evdw>  (88) 
-28.0617

>  <r_i_glide_ecoul>  (88) 
-1.36909

>  <r_i_glide_erotb>  (88) 
0

>  <r_i_glide_esite>  (88) 
0

>  <r_i_glide_emodel>  (88) 
-41.4575

>  <r_i_glide_energy>  (88) 
-29.4308

>  <r_i_glide_einternal>  (88) 
0.0421906

>  <r_i_glide_intrahb_reward>  (88) 
-0.5

>  <i_i_glide_confnum>  (88) 
4

>  <i_i_glide_posenum>  (88) 
27

>  <r_i_glide_eff_state_penalty>  (88) 
0

>  <ligand_id>  (88) 
22

>  <original_smiles>  (88) 
CC12CC3C4C5C(O)C(C6C(CCC67COC(=O)C7)C(=O)CC46C=CC(=O)C61)C3C52O

>  <smiles>  (88) 
[H]OC1([H])C2([H])C3([H])C4([H])C([H])([H])C5(C([H])([H])[H])C6([H])C(=O)C([H])=C([H])C6(C([H])([H])C(=O)C6([H])C([H])([H])C([H])([H])C7(C([H])([H])OC(=O)C7([H])[H])C62[H])C4([H])C1([H])C35O[H]

$$$$
23:0:0
     RDKit          3D

 30 31  0  0  1  0  0  0  0  0999 V2000
    0.0294    5.7322    3.8631 C   0  0  0  0  0  0  0  0  0  0  0  0
   -0.5834    4.9539    4.8867 O   0  0  0  0  0  0  0  0  0  0  0  0
   -0.4407    3.5790    4.8514 C   0  0  0  0  0  0  0  0  0  0  0  0
    0.1907    2.9003    3.7775 C   0  0  0  0  0  0  0  0  0  0  0  0
    0.3151    1.4992    3.7732 C   0  0  0  0  0  0  0  0  0  0  0  0
    0.9366    0.9000    2.6994 O   0  0  0  0  0  0  0  0  0  0  0  0
    1.0715   -0.4670    2.6864 C   0  0  0  0  0  0  0  0  0  0  0  0
    0.6295   -1.2819    3.6652 C   0  0  0  0  0  0  0  0  0  0  0  0
   -0.0588   -0.7253    4.8364 C   0  0  0  0  0  0  0  0  0  0  0  0
   -0.5034   -1.4450    5.7315 O   0  0  0  0  0  0  0  0  0  0  0  0
   -0.1937    0.7497    4.8554 C   0  0  0  0  0  0  0  0  0  0  0  0
   -0.8170    1.4126    5.9303 C   0  0  0  0  0  0  0  0  0  0  0  0
   -0.9508    2.8174    5.9348 C   0  0  0  0  0  0  0  0  0  0  0  0
   -1.6387    3.4963    7.1186 C   0  0  0  0  0  0  0  0  0  0  0  0
   -0.7581    3.4636    8.3784 C   0  0  0  0  0  0  0  0  0  0  0  0
   -3.0363    2.9085    7.3841 C   0  0  0  0  0  0  0  0  0  0  0  0
   -0.1682    6.7853    4.0537 H   0  0  0  0  0  0  0  0  0  0  0  0
   -0.3785    5.4944    2.8804 H   0  0  0  0  0  0  0  0  0  0  0  0
    1.1113    5.5969    3.8489 H   0  0  0  0  0  0  0  0  0  0  0  0
    0.5905    3.4367    2.9284 H   0  0  0  0  0  0  0  0  0  0  0  0
    1.5644   -0.8118    1.7861 H   0  0  0  0  0  0  0  0  0  0  0  0
    0.7488   -2.3555    3.6037 H   0  0  0  0  0  0  0  0  0  0  0  0
   -1.1943    0.8408    6.7628 H   0  0  0  0  0  0  0  0  0  0  0  0
   -1.7879    4.5427    6.8784 H   0  0  0  0  0  0  0  0  0  0  0  0
    0.2182    3.9080    8.1803 H   0  0  0  0  0  0  0  0  0  0  0  0
   -0.5956    2.4454    8.7312 H   0  0  0  0  0  0  0  0  0  0  0  0
   -1.2172    4.0296    9.1894 H   0  0  0  0  0  0  0  0  0  0  0  0
   -3.6493    2.9468    6.4830 H   0  0  0  0  0  0  0  0  0  0  0  0
   -3.5514    3.4643    8.1677 H   0  0  0  0  0  0  0  0  0  0  0  0
   -2.9860    1.8693    7.7033 H   0  0  0  0  0  0  0  0  0  0  0  0
  1  2  1  0
  1 17  1  0
  1 18  1  0
  1 19  1  0
  2  3  1  0
  3 13  2  0
  3  4  1  0
  4  5  2  0
  4 20  1  0
  5 11  1  0
  5  6  1  0
  6  7  1  0
  7  8  2  0
  7 21  1  0
  8  9  1  0
  8 22  1  0
  9 10  2  0
  9 11  1  0
 11 12  2  0
 12 13  1  0
 12 23  1  0
 13 14  1  0
 14 15  1  0
 14 16  1  0
 14 24  1  0
 15 25  1  0
 15 26  1  0
 15 27  1  0
 16 28  1  0
 16 29  1  0
 16 30  1  0
M  END
>  <i_m_ct_stereo_status>  (89) 
1

>  <s_m_source_file>  (89) 
/var/tmp/pbs.5076255.sched01/tmp3_il56_a/09f63jmog.sdf

>  <i_m_source_file_index>  (89) 
34

>  <i_lp_mmshare_version>  (89) 
48012

>  <i_f3d_flags>  (89) 
0

>  <s_epik_input>  (89) 
W0NIM11PYyhbY0hdMSljKFtDSF0oW0NIM10pW0NIM10pW2NIXWMoYzEyKWMoPU8pW2NIXVtjSF1vMg==

>  <s_epik_cmdline>  (89) 
J2VwaWtfcHl0aG9uJywgJy1waHQnLCAnMi4wJywgJy1waCcsICc3LjAnLCAnLXRuJywgJzgnLCAnLW1hJywgJzIwMCcsICctaW1hZScsICc8aW5maWxlLm1hZT4nLCAnLW9tYWUnLCAnPG91dGZpbGUubWFlPic=

>  <r_lp_tautomer_probability>  (89) 
1

>  <r_epik_Ionization_Penalty>  (89) 
5.4572e-09

>  <r_epik_Ionization_Penalty_Charging>  (89) 
0

>  <r_epik_Ionization_Penalty_Neutral>  (89) 
5.4572e-09

>  <r_epik_State_Penalty>  (89) 
-0

>  <r_epik_Charging_Adjusted_Penalty>  (89) 
0

>  <i_epik_Tot_Q>  (89) 
0

>  <i_epik_Tot_abs_Q>  (89) 
0

>  <s_lp_Force_Field>  (89) 
OPLS3e

>  <r_lp_Energy>  (89) 
6.46201

>  <b_lp_Chiralities_Consistent>  (89) 
1

>  <s_lp_Variant>  (89) 
23:0-1

>  <s_i_glide_gridfile>  (89) 
pfpi4k_grid

>  <i_i_glide_lignum>  (89) 
34

>  <i_i_glide_rotatable_bonds>  (89) 
2

>  <r_i_docking_score>  (89) 
-3.32447

>  <r_i_glide_ligand_efficiency>  (89) 
-0.207779

>  <r_i_glide_ligand_efficiency_sa>  (89) 
-0.523571

>  <r_i_glide_ligand_efficiency_ln>  (89) 
-0.881217

>  <r_i_glide_gscore>  (89) 
-3.32447

>  <r_i_glide_lipo>  (89) 
-0.215633

>  <r_i_glide_hbond>  (89) 
0

>  <r_i_glide_metal>  (89) 
-0

>  <r_i_glide_rewards>  (89) 
-1.92103

>  <r_i_glide_evdw>  (89) 
-15.4531

>  <r_i_glide_ecoul>  (89) 
-2.76765

>  <r_i_glide_erotb>  (89) 
0

>  <r_i_glide_esite>  (89) 
0

>  <r_i_glide_emodel>  (89) 
-22.5328

>  <r_i_glide_energy>  (89) 
-18.2207

>  <r_i_glide_einternal>  (89) 
0.132209

>  <r_i_glide_intrahb_reward>  (89) 
-0

>  <i_i_glide_confnum>  (89) 
1

>  <i_i_glide_posenum>  (89) 
7

>  <r_i_glide_eff_state_penalty>  (89) 
0

>  <ligand_id>  (89) 
23

>  <original_smiles>  (89) 
COc1cc2occc(=O)c2cc1C(C)C

>  <smiles>  (89) 
[H]c1oc2c([H])c(OC([H])([H])[H])c(C([H])(C([H])([H])[H])C([H])([H])[H])c([H])c2c(=O)c1[H]

$$$$
23:0:1
     RDKit          3D

 30 31  0  0  1  0  0  0  0  0999 V2000
    0.5641   -0.7869    9.1079 C   0  0  0  0  0  0  0  0  0  0  0  0
   -0.2749    0.3621    9.1261 O   0  0  0  0  0  0  0  0  0  0  0  0
   -0.5824    0.9867    7.9334 C   0  0  0  0  0  0  0  0  0  0  0  0
   -0.2545    0.4317    6.6687 C   0  0  0  0  0  0  0  0  0  0  0  0
   -0.5884    1.0912    5.4700 C   0  0  0  0  0  0  0  0  0  0  0  0
   -0.2514    0.4930    4.2767 O   0  0  0  0  0  0  0  0  0  0  0  0
   -0.5529    1.1398    3.1006 C   0  0  0  0  0  0  0  0  0  0  0  0
   -1.1844    2.3267    3.0289 C   0  0  0  0  0  0  0  0  0  0  0  0
   -1.5932    3.0258    4.2539 C   0  0  0  0  0  0  0  0  0  0  0  0
   -2.1715    4.1152    4.2169 O   0  0  0  0  0  0  0  0  0  0  0  0
   -1.2575    2.3356    5.5217 C   0  0  0  0  0  0  0  0  0  0  0  0
   -1.5813    2.8975    6.7738 C   0  0  0  0  0  0  0  0  0  0  0  0
   -1.2679    2.2294    7.9800 C   0  0  0  0  0  0  0  0  0  0  0  0
   -1.6474    2.8634    9.3192 C   0  0  0  0  0  0  0  0  0  0  0  0
   -3.1061    3.3580    9.3359 C   0  0  0  0  0  0  0  0  0  0  0  0
   -0.6665    3.9836    9.7029 C   0  0  0  0  0  0  0  0  0  0  0  0
    0.6993   -1.1459   10.1273 H   0  0  0  0  0  0  0  0  0  0  0  0
    1.5476   -0.5462    8.7049 H   0  0  0  0  0  0  0  0  0  0  0  0
    0.1297   -1.6055    8.5343 H   0  0  0  0  0  0  0  0  0  0  0  0
    0.2607   -0.5124    6.5891 H   0  0  0  0  0  0  0  0  0  0  0  0
   -0.2186    0.5863    2.2334 H   0  0  0  0  0  0  0  0  0  0  0  0
   -1.3919    2.8022    2.0829 H   0  0  0  0  0  0  0  0  0  0  0  0
   -2.0783    3.8543    6.8055 H   0  0  0  0  0  0  0  0  0  0  0  0
   -1.5834    2.1046   10.1008 H   0  0  0  0  0  0  0  0  0  0  0  0
   -3.7870    2.5492    9.0734 H   0  0  0  0  0  0  0  0  0  0  0  0
   -3.2754    4.1768    8.6378 H   0  0  0  0  0  0  0  0  0  0  0  0
   -3.3867    3.7180   10.3258 H   0  0  0  0  0  0  0  0  0  0  0  0
    0.3600    3.6155    9.7198 H   0  0  0  0  0  0  0  0  0  0  0  0
   -0.8897    4.3745   10.6961 H   0  0  0  0  0  0  0  0  0  0  0  0
   -0.7089    4.8145    8.9989 H   0  0  0  0  0  0  0  0  0  0  0  0
  1  2  1  0
  1 17  1  0
  1 18  1  0
  1 19  1  0
  2  3  1  0
  3 13  2  0
  3  4  1  0
  4  5  2  0
  4 20  1  0
  5 11  1  0
  5  6  1  0
  6  7  1  0
  7  8  2  0
  7 21  1  0
  8  9  1  0
  8 22  1  0
  9 10  2  0
  9 11  1  0
 11 12  2  0
 12 13  1  0
 12 23  1  0
 13 14  1  0
 14 15  1  0
 14 16  1  0
 14 24  1  0
 15 25  1  0
 15 26  1  0
 15 27  1  0
 16 28  1  0
 16 29  1  0
 16 30  1  0
M  END
>  <i_m_ct_stereo_status>  (90) 
1

>  <s_m_source_file>  (90) 
/var/tmp/pbs.5076255.sched01/tmp3_il56_a/09f63jmog.sdf

>  <i_m_source_file_index>  (90) 
34

>  <i_lp_mmshare_version>  (90) 
48012

>  <i_f3d_flags>  (90) 
0

>  <s_epik_input>  (90) 
W0NIM11PYyhbY0hdMSljKFtDSF0oW0NIM10pW0NIM10pW2NIXWMoYzEyKWMoPU8pW2NIXVtjSF1vMg==

>  <s_epik_cmdline>  (90) 
J2VwaWtfcHl0aG9uJywgJy1waHQnLCAnMi4wJywgJy1waCcsICc3LjAnLCAnLXRuJywgJzgnLCAnLW1hJywgJzIwMCcsICctaW1hZScsICc8aW5maWxlLm1hZT4nLCAnLW9tYWUnLCAnPG91dGZpbGUubWFlPic=

>  <r_lp_tautomer_probability>  (90) 
1

>  <r_epik_Ionization_Penalty>  (90) 
5.4572e-09

>  <r_epik_Ionization_Penalty_Charging>  (90) 
0

>  <r_epik_Ionization_Penalty_Neutral>  (90) 
5.4572e-09

>  <r_epik_State_Penalty>  (90) 
-0

>  <r_epik_Charging_Adjusted_Penalty>  (90) 
0

>  <i_epik_Tot_Q>  (90) 
0

>  <i_epik_Tot_abs_Q>  (90) 
0

>  <s_lp_Force_Field>  (90) 
OPLS3e

>  <r_lp_Energy>  (90) 
6.46201

>  <b_lp_Chiralities_Consistent>  (90) 
1

>  <s_lp_Variant>  (90) 
23:0-1

>  <s_i_glide_gridfile>  (90) 
pfpi4k_grid

>  <i_i_glide_lignum>  (90) 
34

>  <i_i_glide_rotatable_bonds>  (90) 
2

>  <r_i_docking_score>  (90) 
-3.22533

>  <r_i_glide_ligand_efficiency>  (90) 
-0.201583

>  <r_i_glide_ligand_efficiency_sa>  (90) 
-0.507958

>  <r_i_glide_ligand_efficiency_ln>  (90) 
-0.854939

>  <r_i_glide_gscore>  (90) 
-3.22533

>  <r_i_glide_lipo>  (90) 
-0.0407739

>  <r_i_glide_hbond>  (90) 
-0.0559876

>  <r_i_glide_metal>  (90) 
-0

>  <r_i_glide_rewards>  (90) 
-1.92103

>  <r_i_glide_evdw>  (90) 
-15.5572

>  <r_i_glide_ecoul>  (90) 
-2.86453

>  <r_i_glide_erotb>  (90) 
0

>  <r_i_glide_esite>  (90) 
0

>  <r_i_glide_emodel>  (90) 
-22.4407

>  <r_i_glide_energy>  (90) 
-18.4217

>  <r_i_glide_einternal>  (90) 
0.417792

>  <r_i_glide_intrahb_reward>  (90) 
-0

>  <i_i_glide_confnum>  (90) 
1

>  <i_i_glide_posenum>  (90) 
1

>  <r_i_glide_eff_state_penalty>  (90) 
0

>  <ligand_id>  (90) 
23

>  <original_smiles>  (90) 
COc1cc2occc(=O)c2cc1C(C)C

>  <smiles>  (90) 
[H]c1oc2c([H])c(OC([H])([H])[H])c(C([H])(C([H])([H])[H])C([H])([H])[H])c([H])c2c(=O)c1[H]

$$$$
23:0:2
     RDKit          3D

 30 31  0  0  1  0  0  0  0  0999 V2000
   -2.7013    4.3677    2.6635 C   0  0  0  0  0  0  0  0  0  0  0  0
   -2.4242    3.9473    3.9929 O   0  0  0  0  0  0  0  0  0  0  0  0
   -1.6325    2.8328    4.1845 C   0  0  0  0  0  0  0  0  0  0  0  0
   -1.0120    2.1437    3.1114 C   0  0  0  0  0  0  0  0  0  0  0  0
   -0.1954    1.0230    3.3416 C   0  0  0  0  0  0  0  0  0  0  0  0
    0.3856    0.4016    2.2588 O   0  0  0  0  0  0  0  0  0  0  0  0
    1.1929   -0.6883    2.4727 C   0  0  0  0  0  0  0  0  0  0  0  0
    1.4548   -1.2147    3.6838 C   0  0  0  0  0  0  0  0  0  0  0  0
    0.8727   -0.6119    4.8882 C   0  0  0  0  0  0  0  0  0  0  0  0
    1.0814   -1.0747    6.0096 O   0  0  0  0  0  0  0  0  0  0  0  0
    0.0119    0.5709    4.6618 C   0  0  0  0  0  0  0  0  0  0  0  0
   -0.5916    1.2537    5.7364 C   0  0  0  0  0  0  0  0  0  0  0  0
   -1.4256    2.3719    5.5103 C   0  0  0  0  0  0  0  0  0  0  0  0
   -2.0826    3.0813    6.6958 C   0  0  0  0  0  0  0  0  0  0  0  0
   -1.1043    4.0466    7.3826 C   0  0  0  0  0  0  0  0  0  0  0  0
   -2.6933    2.0887    7.7020 C   0  0  0  0  0  0  0  0  0  0  0  0
   -3.3547    5.2396    2.6863 H   0  0  0  0  0  0  0  0  0  0  0  0
   -3.2161    3.5924    2.0944 H   0  0  0  0  0  0  0  0  0  0  0  0
   -1.7887    4.6635    2.1465 H   0  0  0  0  0  0  0  0  0  0  0  0
   -1.1321    2.4673    2.0887 H   0  0  0  0  0  0  0  0  0  0  0  0
    1.5797   -1.0850    1.5457 H   0  0  0  0  0  0  0  0  0  0  0  0
    2.0888   -2.0804    3.8036 H   0  0  0  0  0  0  0  0  0  0  0  0
   -0.4054    0.9103    6.7422 H   0  0  0  0  0  0  0  0  0  0  0  0
   -2.9174    3.6749    6.3216 H   0  0  0  0  0  0  0  0  0  0  0  0
   -0.6967    4.7649    6.6703 H   0  0  0  0  0  0  0  0  0  0  0  0
   -0.2654    3.5154    7.8318 H   0  0  0  0  0  0  0  0  0  0  0  0
   -1.6007    4.6121    8.1730 H   0  0  0  0  0  0  0  0  0  0  0  0
   -3.3862    1.4207    7.1936 H   0  0  0  0  0  0  0  0  0  0  0  0
   -3.2451    2.6082    8.4877 H   0  0  0  0  0  0  0  0  0  0  0  0
   -1.9381    1.4805    8.1983 H   0  0  0  0  0  0  0  0  0  0  0  0
  1  2  1  0
  1 17  1  0
  1 18  1  0
  1 19  1  0
  2  3  1  0
  3 13  2  0
  3  4  1  0
  4  5  2  0
  4 20  1  0
  5 11  1  0
  5  6  1  0
  6  7  1  0
  7  8  2  0
  7 21  1  0
  8  9  1  0
  8 22  1  0
  9 10  2  0
  9 11  1  0
 11 12  2  0
 12 13  1  0
 12 23  1  0
 13 14  1  0
 14 15  1  0
 14 16  1  0
 14 24  1  0
 15 25  1  0
 15 26  1  0
 15 27  1  0
 16 28  1  0
 16 29  1  0
 16 30  1  0
M  END
>  <i_m_ct_stereo_status>  (91) 
1

>  <s_m_source_file>  (91) 
/var/tmp/pbs.5076255.sched01/tmp3_il56_a/09f63jmog.sdf

>  <i_m_source_file_index>  (91) 
34

>  <i_lp_mmshare_version>  (91) 
48012

>  <i_f3d_flags>  (91) 
0

>  <s_epik_input>  (91) 
W0NIM11PYyhbY0hdMSljKFtDSF0oW0NIM10pW0NIM10pW2NIXWMoYzEyKWMoPU8pW2NIXVtjSF1vMg==

>  <s_epik_cmdline>  (91) 
J2VwaWtfcHl0aG9uJywgJy1waHQnLCAnMi4wJywgJy1waCcsICc3LjAnLCAnLXRuJywgJzgnLCAnLW1hJywgJzIwMCcsICctaW1hZScsICc8aW5maWxlLm1hZT4nLCAnLW9tYWUnLCAnPG91dGZpbGUubWFlPic=

>  <r_lp_tautomer_probability>  (91) 
1

>  <r_epik_Ionization_Penalty>  (91) 
5.4572e-09

>  <r_epik_Ionization_Penalty_Charging>  (91) 
0

>  <r_epik_Ionization_Penalty_Neutral>  (91) 
5.4572e-09

>  <r_epik_State_Penalty>  (91) 
-0

>  <r_epik_Charging_Adjusted_Penalty>  (91) 
0

>  <i_epik_Tot_Q>  (91) 
0

>  <i_epik_Tot_abs_Q>  (91) 
0

>  <s_lp_Force_Field>  (91) 
OPLS3e

>  <r_lp_Energy>  (91) 
6.46201

>  <b_lp_Chiralities_Consistent>  (91) 
1

>  <s_lp_Variant>  (91) 
23:0-1

>  <s_i_glide_gridfile>  (91) 
pfpi4k_grid

>  <i_i_glide_lignum>  (91) 
34

>  <i_i_glide_rotatable_bonds>  (91) 
2

>  <r_i_docking_score>  (91) 
-3.01543

>  <r_i_glide_ligand_efficiency>  (91) 
-0.188464

>  <r_i_glide_ligand_efficiency_sa>  (91) 
-0.4749

>  <r_i_glide_ligand_efficiency_ln>  (91) 
-0.7993

>  <r_i_glide_gscore>  (91) 
-3.01543

>  <r_i_glide_lipo>  (91) 
-0.0913426

>  <r_i_glide_hbond>  (91) 
-0.0193127

>  <r_i_glide_metal>  (91) 
-0

>  <r_i_glide_rewards>  (91) 
-1.92103

>  <r_i_glide_evdw>  (91) 
-16.2678

>  <r_i_glide_ecoul>  (91) 
-1.13567

>  <r_i_glide_erotb>  (91) 
0

>  <r_i_glide_esite>  (91) 
0

>  <r_i_glide_emodel>  (91) 
-21.1857

>  <r_i_glide_energy>  (91) 
-17.4035

>  <r_i_glide_einternal>  (91) 
0.357798

>  <r_i_glide_intrahb_reward>  (91) 
-0

>  <i_i_glide_confnum>  (91) 
2

>  <i_i_glide_posenum>  (91) 
29

>  <r_i_glide_eff_state_penalty>  (91) 
0

>  <ligand_id>  (91) 
23

>  <original_smiles>  (91) 
COc1cc2occc(=O)c2cc1C(C)C

>  <smiles>  (91) 
[H]c1oc2c([H])c(OC([H])([H])[H])c(C([H])(C([H])([H])[H])C([H])([H])[H])c([H])c2c(=O)c1[H]

$$$$
25:0:0
     RDKit          3D

 74 78  0  0  1  0  0  0  0  0999 V2000
    7.3052   -3.4391   -1.3729 C   0  0  0  0  0  0  0  0  0  0  0  0
    5.9763   -3.6172   -1.3676 C   0  0  0  0  0  0  0  0  0  0  0  0
    5.1879   -3.5414   -2.6631 C   0  0  0  0  0  0  0  0  0  0  0  0
    5.2227   -3.9368   -0.0743 C   0  0  2  0  0  0  0  0  0  0  0  0
    3.7736   -4.4371   -0.2178 C   0  0  0  0  0  0  0  0  0  0  0  0
    3.0760   -4.1214    1.1121 C   0  0  0  0  0  0  0  0  0  0  0  0
    4.1313   -3.4553    2.0278 C   0  0  2  0  0  0  0  0  0  0  0  0
    4.7994   -4.6036    2.8362 C   0  0  0  0  0  0  0  0  0  0  0  0
    3.4997   -2.4253    3.0249 C   0  0  1  0  0  0  0  0  0  0  0  0
    4.4354   -2.0444    4.2026 C   0  0  0  0  0  0  0  0  0  0  0  0
    3.8641   -0.9444    5.0728 C   0  0  0  0  0  0  0  0  0  0  0  0
    2.8347   -0.1394    4.7275 C   0  0  0  0  0  0  0  0  0  0  0  0
    2.1168    0.6771    5.8158 C   0  0  1  0  0  0  0  0  0  0  0  0
    2.6912    2.0703    6.0810 C   0  0  0  0  0  0  0  0  0  0  0  0
    2.1436    2.5694    7.4268 C   0  0  0  0  0  0  0  0  0  0  0  0
    0.6101    2.5595    7.4568 C   0  0  0  0  0  0  0  0  0  0  0  0
    0.0058    3.5444    7.8778 O   0  0  0  0  0  0  0  0  0  0  0  0
   -0.1281    1.2739    6.9746 C   0  0  0  0  0  0  0  0  0  0  0  0
   -0.0807    0.2441    8.1200 C   0  0  0  0  0  0  0  0  0  0  0  0
   -1.6126    1.6526    6.7058 C   0  0  0  0  0  0  0  0  0  0  0  0
    0.5655    0.7420    5.6626 C   0  0  2  0  0  0  0  0  0  0  0  0
    0.1199   -0.6097    5.0365 C   0  0  1  0  0  0  0  0  0  0  0  0
   -1.2803   -0.7932    4.9459 O   0  0  0  0  0  0  0  0  0  0  0  0
    0.7117   -0.7892    3.6006 C   0  0  0  0  0  0  0  0  0  0  0  0
    2.1529   -0.2169    3.3540 C   0  0  1  0  0  0  0  0  0  0  0  0
    2.0373    1.2008    2.7210 C   0  0  0  0  0  0  0  0  0  0  0  0
    2.9324   -1.1514    2.3413 C   0  0  1  0  0  0  0  0  0  0  0  0
    4.0362   -0.4979    1.4582 C   0  0  1  0  0  0  0  0  0  0  0  0
    5.0728    0.0450    2.2419 O   0  0  0  0  0  0  0  0  0  0  0  0
    4.6142   -1.4829    0.4234 C   0  0  1  0  0  0  0  0  0  0  0  0
    5.6259   -0.8174   -0.3153 O   0  0  0  0  0  0  0  0  0  0  0  0
    5.1337   -2.8279    1.0081 C   0  0  2  0  0  0  0  0  0  0  0  0
    7.8390   -3.2355   -2.2957 H   0  0  0  0  0  0  0  0  0  0  0  0
    7.8786   -3.5002   -0.4562 H   0  0  0  0  0  0  0  0  0  0  0  0
    4.4357   -2.7558   -2.6202 H   0  0  0  0  0  0  0  0  0  0  0  0
    4.6984   -4.4964   -2.8487 H   0  0  0  0  0  0  0  0  0  0  0  0
    5.8378   -3.3487   -3.5134 H   0  0  0  0  0  0  0  0  0  0  0  0
    5.8022   -4.7595    0.3454 H   0  0  0  0  0  0  0  0  0  0  0  0
    3.2321   -3.9113   -1.0061 H   0  0  0  0  0  0  0  0  0  0  0  0
    3.7449   -5.5028   -0.4463 H   0  0  0  0  0  0  0  0  0  0  0  0
    2.2328   -3.4631    0.9101 H   0  0  0  0  0  0  0  0  0  0  0  0
    2.6522   -5.0232    1.5555 H   0  0  0  0  0  0  0  0  0  0  0  0
    5.7474   -4.2918    3.2730 H   0  0  0  0  0  0  0  0  0  0  0  0
    5.0021   -5.4863    2.2302 H   0  0  0  0  0  0  0  0  0  0  0  0
    4.1499   -4.9423    3.6446 H   0  0  0  0  0  0  0  0  0  0  0  0
    2.6547   -2.9360    3.4880 H   0  0  0  0  0  0  0  0  0  0  0  0
    4.5753   -2.9033    4.8598 H   0  0  0  0  0  0  0  0  0  0  0  0
    5.4316   -1.7535    3.8692 H   0  0  0  0  0  0  0  0  0  0  0  0
    4.2800   -0.8857    6.0675 H   0  0  0  0  0  0  0  0  0  0  0  0
    2.3148    0.0949    6.7142 H   0  0  0  0  0  0  0  0  0  0  0  0
    3.7815    2.0459    6.1160 H   0  0  0  0  0  0  0  0  0  0  0  0
    2.4142    2.7588    5.2812 H   0  0  0  0  0  0  0  0  0  0  0  0
    2.4995    1.9300    8.2353 H   0  0  0  0  0  0  0  0  0  0  0  0
    2.5025    3.5746    7.6424 H   0  0  0  0  0  0  0  0  0  0  0  0
   -0.5696   -0.6833    7.8320 H   0  0  0  0  0  0  0  0  0  0  0  0
   -0.5877    0.6286    9.0068 H   0  0  0  0  0  0  0  0  0  0  0  0
    0.9381    0.0024    8.4208 H   0  0  0  0  0  0  0  0  0  0  0  0
   -2.2581    0.7862    6.5770 H   0  0  0  0  0  0  0  0  0  0  0  0
   -1.7021    2.2738    5.8103 H   0  0  0  0  0  0  0  0  0  0  0  0
   -2.0507    2.2189    7.5307 H   0  0  0  0  0  0  0  0  0  0  0  0
    0.3107    1.4991    4.9284 H   0  0  0  0  0  0  0  0  0  0  0  0
    0.4984   -1.4117    5.6733 H   0  0  0  0  0  0  0  0  0  0  0  0
   -1.6326   -0.1108    4.3885 H   0  0  0  0  0  0  0  0  0  0  0  0
    0.6862   -1.8574    3.3797 H   0  0  0  0  0  0  0  0  0  0  0  0
    0.0438   -0.3378    2.8666 H   0  0  0  0  0  0  0  0  0  0  0  0
    1.6644    1.1414    1.6989 H   0  0  0  0  0  0  0  0  0  0  0  0
    2.9981    1.7149    2.6986 H   0  0  0  0  0  0  0  0  0  0  0  0
    1.3592    1.8719    3.2354 H   0  0  0  0  0  0  0  0  0  0  0  0
    2.1786   -1.4522    1.6182 H   0  0  0  0  0  0  0  0  0  0  0  0
    3.6236    0.3314    0.8845 H   0  0  0  0  0  0  0  0  0  0  0  0
    4.6795    0.6893    2.8148 H   0  0  0  0  0  0  0  0  0  0  0  0
    3.8081   -1.6975   -0.2739 H   0  0  0  0  0  0  0  0  0  0  0  0
    5.2974    0.0358   -0.5691 H   0  0  0  0  0  0  0  0  0  0  0  0
    6.1046   -2.6670    1.4788 H   0  0  0  0  0  0  0  0  0  0  0  0
  1  2  2  0
  1 33  1  0
  1 34  1  0
  2  3  1  0
  2  4  1  0
  3 35  1  0
  3 36  1  0
  3 37  1  0
  4 32  1  0
  4  5  1  0
  4 38  1  1
  5  6  1  0
  5 39  1  0
  5 40  1  0
  6  7  1  0
  6 41  1  0
  6 42  1  0
  7 32  1  0
  7  8  1  1
  7  9  1  0
  8 43  1  0
  8 44  1  0
  8 45  1  0
  9 27  1  0
  9 10  1  0
  9 46  1  1
 10 11  1  0
 10 47  1  0
 10 48  1  0
 11 12  2  0
 11 49  1  0
 12 25  1  0
 12 13  1  0
 13 21  1  0
 13 14  1  0
 13 50  1  1
 14 15  1  0
 14 51  1  0
 14 52  1  0
 15 16  1  0
 15 53  1  0
 15 54  1  0
 16 17  2  0
 16 18  1  0
 18 19  1  0
 18 20  1  0
 18 21  1  0
 19 55  1  0
 19 56  1  0
 19 57  1  0
 20 58  1  0
 20 59  1  0
 20 60  1  0
 21 22  1  0
 21 61  1  6
 22 23  1  0
 22 24  1  0
 22 62  1  1
 23 63  1  0
 24 25  1  0
 24 64  1  0
 24 65  1  0
 25 26  1  6
 25 27  1  0
 26 66  1  0
 26 67  1  0
 26 68  1  0
 27 28  1  0
 27 69  1  6
 28 29  1  0
 28 30  1  0
 28 70  1  6
 29 71  1  0
 30 31  1  0
 30 32  1  0
 30 72  1  6
 31 73  1  0
 32 74  1  1
M  END
>  <i_m_ct_stereo_status>  (92) 
1

>  <s_m_source_file>  (92) 
/var/tmp/pbs.5076255.sched01/tmp3_il56_a/09f63jmog.sdf

>  <i_m_source_file_index>  (92) 
36

>  <i_lp_mmshare_version>  (92) 
48012

>  <i_f3d_flags>  (92) 
0

>  <s_epik_input>  (92) 
W0NIMl09QyhbQ0gzXSlbQ0BIXShbQ0gyXVtDSDJdMSlbQ0BIXTJbQ0BIXShbT0hdKVtDQEhdKFtPSF0pW0NAQEhdKFtDQEhdM1tDQEBdMTJbQ0gzXSlbQ0BdNChbQ0gzXSlDKD1bQ0hdW0NIMl0zKVtDQEBIXTVbQ0BASF0oW0NAQEhdKFtPSF0pW0NIMl00KUMoW0NIM10pKFtDSDNdKUMoPU8pW0NIMl1bQ0gyXTU=

>  <s_epik_cmdline>  (92) 
J2VwaWtfcHl0aG9uJywgJy1waHQnLCAnMi4wJywgJy1waCcsICc3LjAnLCAnLXRuJywgJzgnLCAnLW1hJywgJzIwMCcsICctaW1hZScsICc8aW5maWxlLm1hZT4nLCAnLW9tYWUnLCAnPG91dGZpbGUubWFlPic=

>  <r_lp_tautomer_probability>  (92) 
1

>  <r_epik_Ionization_Penalty>  (92) 
1.79132e-06

>  <r_epik_Ionization_Penalty_Charging>  (92) 
0

>  <r_epik_Ionization_Penalty_Neutral>  (92) 
1.79132e-06

>  <r_epik_State_Penalty>  (92) 
-0

>  <r_epik_Charging_Adjusted_Penalty>  (92) 
0

>  <i_epik_Tot_Q>  (92) 
0

>  <i_epik_Tot_abs_Q>  (92) 
0

>  <s_lp_Force_Field>  (92) 
OPLS3e

>  <r_lp_Energy>  (92) 
57.954

>  <b_lp_Chiralities_Consistent>  (92) 
1

>  <s_lp_Variant>  (92) 
25:0-1

>  <s_i_glide_gridfile>  (92) 
pfpi4k_grid

>  <i_i_glide_lignum>  (92) 
36

>  <i_i_glide_rotatable_bonds>  (92) 
4

>  <r_i_docking_score>  (92) 
-3.14425

>  <r_i_glide_ligand_efficiency>  (92) 
-0.0982577

>  <r_i_glide_ligand_efficiency_sa>  (92) 
-0.311949

>  <r_i_glide_ligand_efficiency_ln>  (92) 
-0.704083

>  <r_i_glide_gscore>  (92) 
-3.14425

>  <r_i_glide_lipo>  (92) 
-0.548514

>  <r_i_glide_hbond>  (92) 
0

>  <r_i_glide_metal>  (92) 
-0

>  <r_i_glide_rewards>  (92) 
-0.391154

>  <r_i_glide_evdw>  (92) 
-26.0252

>  <r_i_glide_ecoul>  (92) 
-6.70208

>  <r_i_glide_erotb>  (92) 
0.102005

>  <r_i_glide_esite>  (92) 
-9.2295e-06

>  <r_i_glide_emodel>  (92) 
-36.8422

>  <r_i_glide_energy>  (92) 
-32.7273

>  <r_i_glide_einternal>  (92) 
4.58387

>  <r_i_glide_intrahb_reward>  (92) 
-0

>  <i_i_glide_confnum>  (92) 
2

>  <i_i_glide_posenum>  (92) 
40

>  <r_i_glide_eff_state_penalty>  (92) 
0

>  <ligand_id>  (92) 
25

>  <original_smiles>  (92) 
C=C(C)C1CCC2(C)C3CC=C4C5CCC(=O)C(C)(C)C5C(O)CC4(C)C3C(O)C(O)C12

>  <smiles>  (92) 
[H]OC1([H])C([H])([H])C2(C([H])([H])[H])C(=C([H])C([H])([H])C3([H])C2([H])C([H])(O[H])C([H])(O[H])C2([H])C([H])(C(=C([H])[H])C([H])([H])[H])C([H])([H])C([H])([H])C23C([H])([H])[H])C2([H])C([H])([H])C([H])([H])C(=O)C(C([H])([H])[H])(C([H])([H])[H])C12[H]

$$$$
25:0:1
     RDKit          3D

 74 78  0  0  1  0  0  0  0  0999 V2000
    6.2436   -3.9101   -0.4512 C   0  0  0  0  0  0  0  0  0  0  0  0
    4.9324   -3.7268   -0.2596 C   0  0  0  0  0  0  0  0  0  0  0  0
    4.0178   -3.4558   -1.4504 C   0  0  0  0  0  0  0  0  0  0  0  0
    4.3288   -3.8177    1.1465 C   0  0  2  0  0  0  0  0  0  0  0  0
    2.9670   -4.5221    1.2698 C   0  0  0  0  0  0  0  0  0  0  0  0
    2.3380   -3.9787    2.5652 C   0  0  0  0  0  0  0  0  0  0  0  0
    3.3432   -2.9831    3.1911 C   0  0  2  0  0  0  0  0  0  0  0  0
    4.2232   -3.8102    4.1695 C   0  0  0  0  0  0  0  0  0  0  0  0
    2.6404   -1.8253    3.9819 C   0  0  1  0  0  0  0  0  0  0  0  0
    3.5935   -1.0568    4.9356 C   0  0  0  0  0  0  0  0  0  0  0  0
    2.9364    0.1455    5.5796 C   0  0  0  0  0  0  0  0  0  0  0  0
    1.7863    0.7159    5.1693 C   0  0  0  0  0  0  0  0  0  0  0  0
    1.0428    1.6829    6.1074 C   0  0  1  0  0  0  0  0  0  0  0  0
    1.4325    3.1557    5.9844 C   0  0  0  0  0  0  0  0  0  0  0  0
    0.9226    3.8976    7.2281 C   0  0  0  0  0  0  0  0  0  0  0  0
   -0.5883    3.7124    7.4200 C   0  0  0  0  0  0  0  0  0  0  0  0
   -1.2908    4.6876    7.6764 O   0  0  0  0  0  0  0  0  0  0  0  0
   -1.1717    2.2706    7.3255 C   0  0  0  0  0  0  0  0  0  0  0  0
   -0.9019    1.5636    8.6701 C   0  0  0  0  0  0  0  0  0  0  0  0
   -2.7059    2.4013    7.1353 C   0  0  0  0  0  0  0  0  0  0  0  0
   -0.5069    1.5263    6.1051 C   0  0  2  0  0  0  0  0  0  0  0  0
   -0.7972    0.0240    5.8581 C   0  0  1  0  0  0  0  0  0  0  0  0
   -2.1594   -0.3215    5.9499 O   0  0  0  0  0  0  0  0  0  0  0  0
   -0.3031   -0.4356    4.4511 C   0  0  0  0  0  0  0  0  0  0  0  0
    1.0181    0.2233    3.9297 C   0  0  1  0  0  0  0  0  0  0  0  0
    0.6631    1.4216    3.0019 C   0  0  0  0  0  0  0  0  0  0  0  0
    1.8409   -0.8333    3.0901 C   0  0  1  0  0  0  0  0  0  0  0  0
    2.7697   -0.2776    1.9771 C   0  0  1  0  0  0  0  0  0  0  0  0
    3.7723    0.5529    2.5196 O   0  0  0  0  0  0  0  0  0  0  0  0
    3.4223   -1.3936    1.1452 C   0  0  1  0  0  0  0  0  0  0  0  0
    4.2919   -0.7746    0.2187 O   0  0  0  0  0  0  0  0  0  0  0  0
    4.1667   -2.4994    1.9548 C   0  0  2  0  0  0  0  0  0  0  0  0
    6.6724   -3.8490   -1.4399 H   0  0  0  0  0  0  0  0  0  0  0  0
    6.9178   -4.1248    0.3705 H   0  0  0  0  0  0  0  0  0  0  0  0
    3.4579   -2.5305   -1.3818 H   0  0  0  0  0  0  0  0  0  0  0  0
    3.2873   -4.2527   -1.5475 H   0  0  0  0  0  0  0  0  0  0  0  0
    4.5842   -3.4537   -2.3803 H   0  0  0  0  0  0  0  0  0  0  0  0
    5.0407   -4.4355    1.6989 H   0  0  0  0  0  0  0  0  0  0  0  0
    2.3050   -4.2559    0.4471 H   0  0  0  0  0  0  0  0  0  0  0  0
    3.0565   -5.6103    1.2697 H   0  0  0  0  0  0  0  0  0  0  0  0
    1.4184   -3.4737    2.3097 H   0  0  0  0  0  0  0  0  0  0  0  0
    2.0671   -4.7878    3.2478 H   0  0  0  0  0  0  0  0  0  0  0  0
    5.1449   -3.2891    4.4211 H   0  0  0  0  0  0  0  0  0  0  0  0
    4.4997   -4.7844    3.7680 H   0  0  0  0  0  0  0  0  0  0  0  0
    3.6817   -4.0150    5.0943 H   0  0  0  0  0  0  0  0  0  0  0  0
    1.9139   -2.3065    4.6367 H   0  0  0  0  0  0  0  0  0  0  0  0
    3.9033   -1.7058    5.7535 H   0  0  0  0  0  0  0  0  0  0  0  0
    4.5122   -0.7362    4.4438 H   0  0  0  0  0  0  0  0  0  0  0  0
    3.4141    0.4935    6.4850 H   0  0  0  0  0  0  0  0  0  0  0  0
    1.3853    1.3618    7.0922 H   0  0  0  0  0  0  0  0  0  0  0  0
    2.5143    3.2708    5.9083 H   0  0  0  0  0  0  0  0  0  0  0  0
    1.0020    3.5918    5.0808 H   0  0  0  0  0  0  0  0  0  0  0  0
    1.4199    3.5179    8.1220 H   0  0  0  0  0  0  0  0  0  0  0  0
    1.1496    4.9601    7.1715 H   0  0  0  0  0  0  0  0  0  0  0  0
   -1.2783    0.5433    8.6654 H   0  0  0  0  0  0  0  0  0  0  0  0
   -1.3931    2.0888    9.4917 H   0  0  0  0  0  0  0  0  0  0  0  0
    0.1579    1.5224    8.9124 H   0  0  0  0  0  0  0  0  0  0  0  0
   -3.2265    1.4590    7.2827 H   0  0  0  0  0  0  0  0  0  0  0  0
   -2.9514    2.7661    6.1352 H   0  0  0  0  0  0  0  0  0  0  0  0
   -3.1620    3.0925    7.8469 H   0  0  0  0  0  0  0  0  0  0  0  0
   -0.9201    2.0486    5.2469 H   0  0  0  0  0  0  0  0  0  0  0  0
   -0.2637   -0.5515    6.6191 H   0  0  0  0  0  0  0  0  0  0  0  0
   -2.6180    0.0986    5.2331 H   0  0  0  0  0  0  0  0  0  0  0  0
   -0.1930   -1.5200    4.4866 H   0  0  0  0  0  0  0  0  0  0  0  0
   -1.0787   -0.2610    3.7033 H   0  0  0  0  0  0  0  0  0  0  0  0
    0.2304    1.0802    2.0612 H   0  0  0  0  0  0  0  0  0  0  0  0
    1.5427    2.0212    2.7671 H   0  0  0  0  0  0  0  0  0  0  0  0
   -0.0587    2.1166    3.4136 H   0  0  0  0  0  0  0  0  0  0  0  0
    1.0851   -1.3905    2.5403 H   0  0  0  0  0  0  0  0  0  0  0  0
    2.1911    0.3204    1.2673 H   0  0  0  0  0  0  0  0  0  0  0  0
    4.0235    1.1756    1.8517 H   0  0  0  0  0  0  0  0  0  0  0  0
    2.6204   -1.8613    0.5791 H   0  0  0  0  0  0  0  0  0  0  0  0
    3.7536   -0.3636   -0.4535 H   0  0  0  0  0  0  0  0  0  0  0  0
    5.1390   -2.1199    2.2724 H   0  0  0  0  0  0  0  0  0  0  0  0
  1  2  2  0
  1 33  1  0
  1 34  1  0
  2  3  1  0
  2  4  1  0
  3 35  1  0
  3 36  1  0
  3 37  1  0
  4 32  1  0
  4  5  1  0
  4 38  1  1
  5  6  1  0
  5 39  1  0
  5 40  1  0
  6  7  1  0
  6 41  1  0
  6 42  1  0
  7 32  1  0
  7  8  1  1
  7  9  1  0
  8 43  1  0
  8 44  1  0
  8 45  1  0
  9 27  1  0
  9 10  1  0
  9 46  1  1
 10 11  1  0
 10 47  1  0
 10 48  1  0
 11 12  2  0
 11 49  1  0
 12 25  1  0
 12 13  1  0
 13 21  1  0
 13 14  1  0
 13 50  1  1
 14 15  1  0
 14 51  1  0
 14 52  1  0
 15 16  1  0
 15 53  1  0
 15 54  1  0
 16 17  2  0
 16 18  1  0
 18 19  1  0
 18 20  1  0
 18 21  1  0
 19 55  1  0
 19 56  1  0
 19 57  1  0
 20 58  1  0
 20 59  1  0
 20 60  1  0
 21 22  1  0
 21 61  1  6
 22 23  1  0
 22 24  1  0
 22 62  1  1
 23 63  1  0
 24 25  1  0
 24 64  1  0
 24 65  1  0
 25 26  1  6
 25 27  1  0
 26 66  1  0
 26 67  1  0
 26 68  1  0
 27 28  1  0
 27 69  1  6
 28 29  1  0
 28 30  1  0
 28 70  1  6
 29 71  1  0
 30 31  1  0
 30 32  1  0
 30 72  1  6
 31 73  1  0
 32 74  1  1
M  END
>  <i_m_ct_stereo_status>  (93) 
1

>  <s_m_source_file>  (93) 
/var/tmp/pbs.5076255.sched01/tmp3_il56_a/09f63jmog.sdf

>  <i_m_source_file_index>  (93) 
36

>  <i_lp_mmshare_version>  (93) 
48012

>  <i_f3d_flags>  (93) 
0

>  <s_epik_input>  (93) 
W0NIMl09QyhbQ0gzXSlbQ0BIXShbQ0gyXVtDSDJdMSlbQ0BIXTJbQ0BIXShbT0hdKVtDQEhdKFtPSF0pW0NAQEhdKFtDQEhdM1tDQEBdMTJbQ0gzXSlbQ0BdNChbQ0gzXSlDKD1bQ0hdW0NIMl0zKVtDQEBIXTVbQ0BASF0oW0NAQEhdKFtPSF0pW0NIMl00KUMoW0NIM10pKFtDSDNdKUMoPU8pW0NIMl1bQ0gyXTU=

>  <s_epik_cmdline>  (93) 
J2VwaWtfcHl0aG9uJywgJy1waHQnLCAnMi4wJywgJy1waCcsICc3LjAnLCAnLXRuJywgJzgnLCAnLW1hJywgJzIwMCcsICctaW1hZScsICc8aW5maWxlLm1hZT4nLCAnLW9tYWUnLCAnPG91dGZpbGUubWFlPic=

>  <r_lp_tautomer_probability>  (93) 
1

>  <r_epik_Ionization_Penalty>  (93) 
1.79132e-06

>  <r_epik_Ionization_Penalty_Charging>  (93) 
0

>  <r_epik_Ionization_Penalty_Neutral>  (93) 
1.79132e-06

>  <r_epik_State_Penalty>  (93) 
-0

>  <r_epik_Charging_Adjusted_Penalty>  (93) 
0

>  <i_epik_Tot_Q>  (93) 
0

>  <i_epik_Tot_abs_Q>  (93) 
0

>  <s_lp_Force_Field>  (93) 
OPLS3e

>  <r_lp_Energy>  (93) 
57.954

>  <b_lp_Chiralities_Consistent>  (93) 
1

>  <s_lp_Variant>  (93) 
25:0-1

>  <s_i_glide_gridfile>  (93) 
pfpi4k_grid

>  <i_i_glide_lignum>  (93) 
36

>  <i_i_glide_rotatable_bonds>  (93) 
4

>  <r_i_docking_score>  (93) 
-2.96291

>  <r_i_glide_ligand_efficiency>  (93) 
-0.092591

>  <r_i_glide_ligand_efficiency_sa>  (93) 
-0.293958

>  <r_i_glide_ligand_efficiency_ln>  (93) 
-0.663477

>  <r_i_glide_gscore>  (93) 
-2.96291

>  <r_i_glide_lipo>  (93) 
-0.226031

>  <r_i_glide_hbond>  (93) 
-0.138799

>  <r_i_glide_metal>  (93) 
-0

>  <r_i_glide_rewards>  (93) 
-0.391154

>  <r_i_glide_evdw>  (93) 
-25.0703

>  <r_i_glide_ecoul>  (93) 
-7.0356

>  <r_i_glide_erotb>  (93) 
0.102005

>  <r_i_glide_esite>  (93) 
-7.77874e-05

>  <r_i_glide_emodel>  (93) 
-35.9887

>  <r_i_glide_energy>  (93) 
-32.1059

>  <r_i_glide_einternal>  (93) 
3.96154

>  <r_i_glide_intrahb_reward>  (93) 
-0

>  <i_i_glide_confnum>  (93) 
2

>  <i_i_glide_posenum>  (93) 
6

>  <r_i_glide_eff_state_penalty>  (93) 
0

>  <ligand_id>  (93) 
25

>  <original_smiles>  (93) 
C=C(C)C1CCC2(C)C3CC=C4C5CCC(=O)C(C)(C)C5C(O)CC4(C)C3C(O)C(O)C12

>  <smiles>  (93) 
[H]OC1([H])C([H])([H])C2(C([H])([H])[H])C(=C([H])C([H])([H])C3([H])C2([H])C([H])(O[H])C([H])(O[H])C2([H])C([H])(C(=C([H])[H])C([H])([H])[H])C([H])([H])C([H])([H])C23C([H])([H])[H])C2([H])C([H])([H])C([H])([H])C(=O)C(C([H])([H])[H])(C([H])([H])[H])C12[H]

$$$$
25:0:2
     RDKit          3D

 74 78  0  0  1  0  0  0  0  0999 V2000
    6.2293   -3.9021   -0.5835 C   0  0  0  0  0  0  0  0  0  0  0  0
    4.9253   -3.7215   -0.3621 C   0  0  0  0  0  0  0  0  0  0  0  0
    3.9885   -3.4514   -1.5358 C   0  0  0  0  0  0  0  0  0  0  0  0
    4.3451   -3.8183    1.0547 C   0  0  2  0  0  0  0  0  0  0  0  0
    2.9904   -4.5335    1.2061 C   0  0  0  0  0  0  0  0  0  0  0  0
    2.3741   -3.9905    2.5078 C   0  0  0  0  0  0  0  0  0  0  0  0
    3.3835   -2.9835    3.1113 C   0  0  2  0  0  0  0  0  0  0  0  0
    4.2953   -3.7953    4.0740 C   0  0  0  0  0  0  0  0  0  0  0  0
    2.6883   -1.8284    3.9107 C   0  0  1  0  0  0  0  0  0  0  0  0
    3.6545   -1.0460    4.8414 C   0  0  0  0  0  0  0  0  0  0  0  0
    2.9988    0.1536    5.4909 C   0  0  0  0  0  0  0  0  0  0  0  0
    1.8348    0.7088    5.1002 C   0  0  0  0  0  0  0  0  0  0  0  0
    1.1008    1.6739    6.0474 C   0  0  1  0  0  0  0  0  0  0  0  0
    1.4730    3.1507    5.9079 C   0  0  0  0  0  0  0  0  0  0  0  0
    0.9813    3.8944    7.1560 C   0  0  0  0  0  0  0  0  0  0  0  0
   -0.5247    3.6966    7.3823 C   0  0  0  0  0  0  0  0  0  0  0  0
   -1.2272    4.6578    7.6607 O   0  0  0  0  0  0  0  0  0  0  0  0
   -1.0940    2.2466    7.3037 C   0  0  0  0  0  0  0  0  0  0  0  0
   -0.7904    1.5555    8.6476 C   0  0  0  0  0  0  0  0  0  0  0  0
   -2.6314    2.3596    7.1386 C   0  0  0  0  0  0  0  0  0  0  0  0
   -0.4467    1.5023    6.0758 C   0  0  2  0  0  0  0  0  0  0  0  0
   -0.7336   -0.0051    5.8410 C   0  0  1  0  0  0  0  0  0  0  0  0
   -2.0900   -0.3660    5.9556 O   0  0  0  0  0  0  0  0  0  0  0  0
   -0.2554   -0.4666    4.4287 C   0  0  0  0  0  0  0  0  0  0  0  0
    1.0472    0.2030    3.8776 C   0  0  1  0  0  0  0  0  0  0  0  0
    0.6621    1.3928    2.9505 C   0  0  0  0  0  0  0  0  0  0  0  0
    1.8620   -0.8507    3.0272 C   0  0  1  0  0  0  0  0  0  0  0  0
    2.7673   -0.2961    1.8911 C   0  0  1  0  0  0  0  0  0  0  0  0
    3.7958    0.5244    2.3963 O   0  0  0  0  0  0  0  0  0  0  0  0
    3.4182   -1.4090    1.0602 C   0  0  1  0  0  0  0  0  0  0  0  0
    4.2711   -0.7955    0.1133 O   0  0  0  0  0  0  0  0  0  0  0  0
    4.1854   -2.5008    1.8611 C   0  0  2  0  0  0  0  0  0  0  0  0
    6.6368   -3.8379   -1.5815 H   0  0  0  0  0  0  0  0  0  0  0  0
    6.9218   -4.1169    0.2220 H   0  0  0  0  0  0  0  0  0  0  0  0
    3.4198   -2.5330   -1.4695 H   0  0  0  0  0  0  0  0  0  0  0  0
    3.2481   -4.2434   -1.5984 H   0  0  0  0  0  0  0  0  0  0  0  0
    4.5286   -3.4698   -2.4820 H   0  0  0  0  0  0  0  0  0  0  0  0
    5.0756   -4.4255    1.5938 H   0  0  0  0  0  0  0  0  0  0  0  0
    2.3134   -4.2838    0.3915 H   0  0  0  0  0  0  0  0  0  0  0  0
    3.0944   -5.6195    1.2122 H   0  0  0  0  0  0  0  0  0  0  0  0
    1.4209   -3.5148    2.2750 H   0  0  0  0  0  0  0  0  0  0  0  0
    2.1366   -4.8004    3.1990 H   0  0  0  0  0  0  0  0  0  0  0  0
    5.2169   -3.2641    4.3035 H   0  0  0  0  0  0  0  0  0  0  0  0
    4.5777   -4.7678    3.6728 H   0  0  0  0  0  0  0  0  0  0  0  0
    3.7798   -4.0016    5.0123 H   0  0  0  0  0  0  0  0  0  0  0  0
    1.9830   -2.3150    4.5844 H   0  0  0  0  0  0  0  0  0  0  0  0
    3.9885   -1.6875    5.6565 H   0  0  0  0  0  0  0  0  0  0  0  0
    4.5644   -0.7234    4.3342 H   0  0  0  0  0  0  0  0  0  0  0  0
    3.4930    0.5119    6.3836 H   0  0  0  0  0  0  0  0  0  0  0  0
    1.4662    1.3616    7.0277 H   0  0  0  0  0  0  0  0  0  0  0  0
    2.5511    3.2761    5.8109 H   0  0  0  0  0  0  0  0  0  0  0  0
    1.0214    3.5771    5.0106 H   0  0  0  0  0  0  0  0  0  0  0  0
    1.4997    3.5258    8.0420 H   0  0  0  0  0  0  0  0  0  0  0  0
    1.1954    4.9592    7.0901 H   0  0  0  0  0  0  0  0  0  0  0  0
   -1.1594    0.5361    8.6578 H   0  0  0  0  0  0  0  0  0  0  0  0
   -1.2692    2.0808    9.4768 H   0  0  0  0  0  0  0  0  0  0  0  0
    0.2749    1.5227    8.8687 H   0  0  0  0  0  0  0  0  0  0  0  0
   -3.1394    1.4093    7.2846 H   0  0  0  0  0  0  0  0  0  0  0  0
   -2.8978    2.7219    6.1437 H   0  0  0  0  0  0  0  0  0  0  0  0
   -3.0843    3.0437    7.8589 H   0  0  0  0  0  0  0  0  0  0  0  0
   -0.8827    2.0152    5.2230 H   0  0  0  0  0  0  0  0  0  0  0  0
   -0.1820   -0.5718    6.5973 H   0  0  0  0  0  0  0  0  0  0  0  0
   -2.5675    0.0424    5.2340 H   0  0  0  0  0  0  0  0  0  0  0  0
   -0.1340   -1.5504    4.4695 H   0  0  0  0  0  0  0  0  0  0  0  0
   -1.0479   -0.3059    3.6941 H   0  0  0  0  0  0  0  0  0  0  0  0
    0.2163    1.0405    2.0205 H   0  0  0  0  0  0  0  0  0  0  0  0
    1.5256    2.0041    2.6948 H   0  0  0  0  0  0  0  0  0  0  0  0
   -0.0604    2.0812    3.3720 H   0  0  0  0  0  0  0  0  0  0  0  0
    1.0987   -1.4202    2.4960 H   0  0  0  0  0  0  0  0  0  0  0  0
    2.1794    0.2985    1.1879 H   0  0  0  0  0  0  0  0  0  0  0  0
    3.4471    1.3871    2.5524 H   0  0  0  0  0  0  0  0  0  0  0  0
    2.6109   -1.8843    0.5133 H   0  0  0  0  0  0  0  0  0  0  0  0
    3.7174   -0.3397   -0.5134 H   0  0  0  0  0  0  0  0  0  0  0  0
    5.1603   -2.1090    2.1576 H   0  0  0  0  0  0  0  0  0  0  0  0
  1  2  2  0
  1 33  1  0
  1 34  1  0
  2  3  1  0
  2  4  1  0
  3 35  1  0
  3 36  1  0
  3 37  1  0
  4 32  1  0
  4  5  1  0
  4 38  1  1
  5  6  1  0
  5 39  1  0
  5 40  1  0
  6  7  1  0
  6 41  1  0
  6 42  1  0
  7 32  1  0
  7  8  1  1
  7  9  1  0
  8 43  1  0
  8 44  1  0
  8 45  1  0
  9 27  1  0
  9 10  1  0
  9 46  1  1
 10 11  1  0
 10 47  1  0
 10 48  1  0
 11 12  2  0
 11 49  1  0
 12 25  1  0
 12 13  1  0
 13 21  1  0
 13 14  1  0
 13 50  1  1
 14 15  1  0
 14 51  1  0
 14 52  1  0
 15 16  1  0
 15 53  1  0
 15 54  1  0
 16 17  2  0
 16 18  1  0
 18 19  1  0
 18 20  1  0
 18 21  1  0
 19 55  1  0
 19 56  1  0
 19 57  1  0
 20 58  1  0
 20 59  1  0
 20 60  1  0
 21 22  1  0
 21 61  1  6
 22 23  1  0
 22 24  1  0
 22 62  1  1
 23 63  1  0
 24 25  1  0
 24 64  1  0
 24 65  1  0
 25 26  1  6
 25 27  1  0
 26 66  1  0
 26 67  1  0
 26 68  1  0
 27 28  1  0
 27 69  1  6
 28 29  1  0
 28 30  1  0
 28 70  1  6
 29 71  1  0
 30 31  1  0
 30 32  1  0
 30 72  1  6
 31 73  1  0
 32 74  1  1
M  END
>  <i_m_ct_stereo_status>  (94) 
1

>  <s_m_source_file>  (94) 
/var/tmp/pbs.5076255.sched01/tmp3_il56_a/09f63jmog.sdf

>  <i_m_source_file_index>  (94) 
36

>  <i_lp_mmshare_version>  (94) 
48012

>  <i_f3d_flags>  (94) 
0

>  <s_epik_input>  (94) 
W0NIMl09QyhbQ0gzXSlbQ0BIXShbQ0gyXVtDSDJdMSlbQ0BIXTJbQ0BIXShbT0hdKVtDQEhdKFtPSF0pW0NAQEhdKFtDQEhdM1tDQEBdMTJbQ0gzXSlbQ0BdNChbQ0gzXSlDKD1bQ0hdW0NIMl0zKVtDQEBIXTVbQ0BASF0oW0NAQEhdKFtPSF0pW0NIMl00KUMoW0NIM10pKFtDSDNdKUMoPU8pW0NIMl1bQ0gyXTU=

>  <s_epik_cmdline>  (94) 
J2VwaWtfcHl0aG9uJywgJy1waHQnLCAnMi4wJywgJy1waCcsICc3LjAnLCAnLXRuJywgJzgnLCAnLW1hJywgJzIwMCcsICctaW1hZScsICc8aW5maWxlLm1hZT4nLCAnLW9tYWUnLCAnPG91dGZpbGUubWFlPic=

>  <r_lp_tautomer_probability>  (94) 
1

>  <r_epik_Ionization_Penalty>  (94) 
1.79132e-06

>  <r_epik_Ionization_Penalty_Charging>  (94) 
0

>  <r_epik_Ionization_Penalty_Neutral>  (94) 
1.79132e-06

>  <r_epik_State_Penalty>  (94) 
-0

>  <r_epik_Charging_Adjusted_Penalty>  (94) 
0

>  <i_epik_Tot_Q>  (94) 
0

>  <i_epik_Tot_abs_Q>  (94) 
0

>  <s_lp_Force_Field>  (94) 
OPLS3e

>  <r_lp_Energy>  (94) 
57.954

>  <b_lp_Chiralities_Consistent>  (94) 
1

>  <s_lp_Variant>  (94) 
25:0-1

>  <s_i_glide_gridfile>  (94) 
pfpi4k_grid

>  <i_i_glide_lignum>  (94) 
36

>  <i_i_glide_rotatable_bonds>  (94) 
4

>  <r_i_docking_score>  (94) 
-2.9187

>  <r_i_glide_ligand_efficiency>  (94) 
-0.0912093

>  <r_i_glide_ligand_efficiency_sa>  (94) 
-0.289572

>  <r_i_glide_ligand_efficiency_ln>  (94) 
-0.653576

>  <r_i_glide_gscore>  (94) 
-2.9187

>  <r_i_glide_lipo>  (94) 
-0.202335

>  <r_i_glide_hbond>  (94) 
-0.134882

>  <r_i_glide_metal>  (94) 
-0

>  <r_i_glide_rewards>  (94) 
-0.391154

>  <r_i_glide_evdw>  (94) 
-25.1774

>  <r_i_glide_ecoul>  (94) 
-6.88937

>  <r_i_glide_erotb>  (94) 
0.102005

>  <r_i_glide_esite>  (94) 
-5.65393e-05

>  <r_i_glide_emodel>  (94) 
-35.9178

>  <r_i_glide_energy>  (94) 
-32.0668

>  <r_i_glide_einternal>  (94) 
3.60977

>  <r_i_glide_intrahb_reward>  (94) 
-0

>  <i_i_glide_confnum>  (94) 
2

>  <i_i_glide_posenum>  (94) 
11

>  <r_i_glide_eff_state_penalty>  (94) 
0

>  <ligand_id>  (94) 
25

>  <original_smiles>  (94) 
C=C(C)C1CCC2(C)C3CC=C4C5CCC(=O)C(C)(C)C5C(O)CC4(C)C3C(O)C(O)C12

>  <smiles>  (94) 
[H]OC1([H])C([H])([H])C2(C([H])([H])[H])C(=C([H])C([H])([H])C3([H])C2([H])C([H])(O[H])C([H])(O[H])C2([H])C([H])(C(=C([H])[H])C([H])([H])[H])C([H])([H])C([H])([H])C23C([H])([H])[H])C2([H])C([H])([H])C([H])([H])C(=O)C(C([H])([H])[H])(C([H])([H])[H])C12[H]

$$$$
27:0:0
     RDKit          3D

 55 58  0  0  1  0  0  0  0  0999 V2000
    4.7602   -3.2645   -2.9247 C   0  0  0  0  0  0  0  0  0  0  0  0
    3.4580   -2.6682   -1.8229 S   0  0  0  0  0  0  0  0  0  0  0  0
    3.3417   -3.9863   -0.5656 C   0  0  0  0  0  0  0  0  0  0  0  0
    2.2212   -4.5891   -0.2985 N   0  0  0  0  0  0  0  0  0  0  0  0
    2.1872   -5.6236    0.6446 C   0  0  0  0  0  0  0  0  0  0  0  0
    0.9980   -6.2581    0.8062 N   0  0  0  0  0  0  0  0  0  0  0  0
    0.9145   -7.2609    1.7013 C   0  0  0  0  0  0  0  0  0  0  0  0
    1.9903   -7.6447    2.5285 C   0  0  0  0  0  0  0  0  0  0  0  0
    3.2275   -6.9830    2.3757 C   0  0  0  0  0  0  0  0  0  0  0  0
    3.3289   -5.9801    1.3915 C   0  0  0  0  0  0  0  0  0  0  0  0
    4.6115   -5.2426    1.1180 C   0  0  0  0  0  0  0  0  0  0  0  0
    5.6184   -5.4427    1.7909 O   0  0  0  0  0  0  0  0  0  0  0  0
    4.5356   -4.3035    0.1432 N   0  0  0  0  0  0  0  0  0  0  0  0
    5.7361   -3.5809   -0.0817 O   0  0  0  0  0  0  0  0  0  0  0  0
    5.7438   -2.2646    0.4943 C   0  0  0  0  0  0  0  0  0  0  0  0
    5.1516   -2.1734    1.9140 C   0  0  0  0  0  0  0  0  0  0  0  0
    5.0100   -0.7269    2.3959 C   0  0  0  0  0  0  0  0  0  0  0  0
    3.7932   -0.5420    3.2197 N   0  0  0  0  0  0  0  0  0  0  0  0
    2.5328   -0.5738    2.4128 C   0  0  0  0  0  0  0  0  0  0  0  0
    1.2988   -0.4134    3.3021 C   0  0  0  0  0  0  0  0  0  0  0  0
    1.4261    0.7549    4.1613 N   0  0  0  0  0  0  0  0  0  0  0  0
    0.4258    1.7423    4.1865 C   0  0  0  0  0  0  0  0  0  0  0  0
    0.7878    3.1071    4.0948 C   0  0  0  0  0  0  0  0  0  0  0  0
   -0.2019    4.1098    4.1216 C   0  0  0  0  0  0  0  0  0  0  0  0
    0.2504    5.7683    4.0396 Cl  0  0  0  0  0  0  0  0  0  0  0  0
   -1.5567    3.7609    4.2226 C   0  0  0  0  0  0  0  0  0  0  0  0
   -1.9242    2.4135    4.3195 C   0  0  0  0  0  0  0  0  0  0  0  0
   -0.9473    1.4009    4.3218 C   0  0  0  0  0  0  0  0  0  0  0  0
   -1.4848   -0.2266    4.5654 Cl  0  0  0  0  0  0  0  0  0  0  0  0
    2.6579    0.8967    4.9281 C   0  0  0  0  0  0  0  0  0  0  0  0
    3.8835    0.7047    4.0240 C   0  0  0  0  0  0  0  0  0  0  0  0
    4.8576   -2.5659   -3.7508 H   0  0  0  0  0  0  0  0  0  0  0  0
    4.4886   -4.2424   -3.3155 H   0  0  0  0  0  0  0  0  0  0  0  0
    5.7255   -3.3348   -2.4332 H   0  0  0  0  0  0  0  0  0  0  0  0
   -0.0386   -7.7507    1.7700 H   0  0  0  0  0  0  0  0  0  0  0  0
    1.8655   -8.4407    3.2482 H   0  0  0  0  0  0  0  0  0  0  0  0
    4.0682   -7.2546    3.0030 H   0  0  0  0  0  0  0  0  0  0  0  0
    6.7706   -1.9009    0.5093 H   0  0  0  0  0  0  0  0  0  0  0  0
    5.2302   -1.5584   -0.1615 H   0  0  0  0  0  0  0  0  0  0  0  0
    4.1684   -2.6324    1.9322 H   0  0  0  0  0  0  0  0  0  0  0  0
    5.7532   -2.7461    2.6212 H   0  0  0  0  0  0  0  0  0  0  0  0
    5.9197   -0.4621    2.9504 H   0  0  0  0  0  0  0  0  0  0  0  0
    4.9502   -0.0286    1.5539 H   0  0  0  0  0  0  0  0  0  0  0  0
    2.5539    0.2343    1.6822 H   0  0  0  0  0  0  0  0  0  0  0  0
    2.3983   -1.4894    1.8335 H   0  0  0  0  0  0  0  0  0  0  0  0
    0.4193   -0.3465    2.6604 H   0  0  0  0  0  0  0  0  0  0  0  0
    1.1762   -1.2970    3.9340 H   0  0  0  0  0  0  0  0  0  0  0  0
    1.8192    3.4008    3.9971 H   0  0  0  0  0  0  0  0  0  0  0  0
   -2.3125    4.5201    4.2440 H   0  0  0  0  0  0  0  0  0  0  0  0
   -2.9650    2.1465    4.4109 H   0  0  0  0  0  0  0  0  0  0  0  0
    2.7203    1.8604    5.4371 H   0  0  0  0  0  0  0  0  0  0  0  0
    2.6624    0.1335    5.7083 H   0  0  0  0  0  0  0  0  0  0  0  0
    4.7966    0.7054    4.6224 H   0  0  0  0  0  0  0  0  0  0  0  0
    3.9377    1.5390    3.3275 H   0  0  0  0  0  0  0  0  0  0  0  0
    3.7336   -1.3055    3.8803 H   0  0  0  0  0  0  0  0  0  0  0  0
  1  2  1  0
  1 32  1  0
  1 33  1  0
  1 34  1  0
  2  3  1  0
  3 13  1  0
  3  4  2  0
  4  5  1  0
  5 10  2  0
  5  6  1  0
  6  7  2  0
  7  8  1  0
  7 35  1  0
  8  9  2  0
  8 36  1  0
  9 10  1  0
  9 37  1  0
 10 11  1  0
 11 12  2  0
 11 13  1  0
 13 14  1  0
 14 15  1  0
 15 16  1  0
 15 38  1  0
 15 39  1  0
 16 17  1  0
 16 40  1  0
 16 41  1  0
 17 18  1  0
 17 42  1  0
 17 43  1  0
 18 31  1  0
 18 19  1  0
 18 55  1  0
 19 20  1  0
 19 44  1  0
 19 45  1  0
 20 21  1  0
 20 46  1  0
 20 47  1  0
 21 22  1  0
 21 30  1  0
 22 28  1  0
 22 23  2  0
 23 24  1  0
 23 48  1  0
 24 25  1  0
 24 26  2  0
 26 27  1  0
 26 49  1  0
 27 28  2  0
 27 50  1  0
 28 29  1  0
 30 31  1  0
 30 51  1  0
 30 52  1  0
 31 53  1  0
 31 54  1  0
M  CHG  1  18   1
M  END
>  <i_m_ct_stereo_status>  (95) 
1

>  <s_m_source_file>  (95) 
/var/tmp/pbs.5076255.sched01/tmp3_il56_a/09f63jmog.sdf

>  <i_m_source_file_index>  (95) 
38

>  <i_lp_mmshare_version>  (95) 
48012

>  <i_f3d_flags>  (95) 
0

>  <s_epik_input>  (95) 
bjFbY0hdW2NIXVtjSF1jKGMxMiljKD1PKW4oYyhuMilTW0NIM10pT1tDSDJdW0NIMl1bQ0gyXU4zW0NIMl1bQ0gyXU4oW0NIMl1bQ0gyXTMpYzRbY0hdYyhDbClbY0hdW2NIXWM0Q2w=

>  <s_epik_cmdline>  (95) 
J2VwaWtfcHl0aG9uJywgJy1waHQnLCAnMi4wJywgJy1waCcsICc3LjAnLCAnLXRuJywgJzgnLCAnLW1hJywgJzIwMCcsICctaW1hZScsICc8aW5maWxlLm1hZT4nLCAnLW9tYWUnLCAnPG91dGZpbGUubWFlPic=

>  <r_epik_Ionization_Penalty>  (95) 
0.352293

>  <r_epik_Ionization_Penalty_Charging>  (95) 
0.352292

>  <r_epik_Ionization_Penalty_Neutral>  (95) 
5.24354e-07

>  <r_epik_State_Penalty>  (95) 
0.348603

>  <r_epik_Charging_Adjusted_Penalty>  (95) 
0.700895

>  <i_epik_Tot_Q>  (95) 
1

>  <i_epik_Tot_abs_Q>  (95) 
1

>  <s_lp_Force_Field>  (95) 
OPLS3e

>  <r_lp_Energy>  (95) 
65.0311

>  <b_lp_Chiralities_Consistent>  (95) 
1

>  <s_lp_Variant>  (95) 
27:0-1

>  <s_i_glide_gridfile>  (95) 
pfpi4k_grid

>  <i_i_glide_lignum>  (95) 
38

>  <i_i_glide_rotatable_bonds>  (95) 
7

>  <r_i_docking_score>  (95) 
-3.03513

>  <r_i_glide_ligand_efficiency>  (95) 
-0.0979075

>  <r_i_glide_ligand_efficiency_sa>  (95) 
-0.307565

>  <r_i_glide_ligand_efficiency_ln>  (95) 
-0.684515

>  <r_i_glide_gscore>  (95) 
-3.03513

>  <r_i_glide_lipo>  (95) 
-0.463166

>  <r_i_glide_hbond>  (95) 
-0.16

>  <r_i_glide_metal>  (95) 
-0

>  <r_i_glide_rewards>  (95) 
-0.157904

>  <r_i_glide_evdw>  (95) 
-33.8819

>  <r_i_glide_ecoul>  (95) 
-6.73917

>  <r_i_glide_erotb>  (95) 
0.525176

>  <r_i_glide_esite>  (95) 
-0.0742681

>  <r_i_glide_emodel>  (95) 
-41.9191

>  <r_i_glide_energy>  (95) 
-40.6211

>  <r_i_glide_einternal>  (95) 
12.0286

>  <r_i_glide_intrahb_reward>  (95) 
-0

>  <i_i_glide_confnum>  (95) 
4

>  <i_i_glide_posenum>  (95) 
1

>  <r_i_glide_eff_state_penalty>  (95) 
0

>  <ligand_id>  (95) 
27

>  <original_smiles>  (95) 
CSc1nc2ncccc2c(=O)n1OCCCN1CCN(c2cc(Cl)ccc2Cl)CC1

>  <smiles>  (95) 
[H]c1nc2nc(SC([H])([H])[H])n(OC([H])([H])C([H])([H])C([H])([H])[N+]3([H])C([H])([H])C([H])([H])N(c4c([H])c(Cl)c([H])c([H])c4Cl)C([H])([H])C3([H])[H])c(=O)c2c([H])c1[H]

$$$$
27:0:1
     RDKit          3D

 55 58  0  0  1  0  0  0  0  0999 V2000
    7.9202   -2.9593   -1.4274 C   0  0  0  0  0  0  0  0  0  0  0  0
    6.1497   -3.1552   -1.7858 S   0  0  0  0  0  0  0  0  0  0  0  0
    5.5314   -4.0996   -0.3156 C   0  0  0  0  0  0  0  0  0  0  0  0
    5.0013   -5.2885   -0.3507 N   0  0  0  0  0  0  0  0  0  0  0  0
    4.5504   -5.8781    0.8415 C   0  0  0  0  0  0  0  0  0  0  0  0
    4.0278   -7.1158    0.7463 N   0  0  0  0  0  0  0  0  0  0  0  0
    3.5688   -7.7180    1.8600 C   0  0  0  0  0  0  0  0  0  0  0  0
    3.5891   -7.1144    3.1369 C   0  0  0  0  0  0  0  0  0  0  0  0
    4.1400   -5.8202    3.2479 C   0  0  0  0  0  0  0  0  0  0  0  0
    4.6346   -5.2025    2.0819 C   0  0  0  0  0  0  0  0  0  0  0  0
    5.2761   -3.8509    2.0973 C   0  0  0  0  0  0  0  0  0  0  0  0
    5.3993   -3.2313    3.1560 O   0  0  0  0  0  0  0  0  0  0  0  0
    5.6357   -3.3673    0.8927 N   0  0  0  0  0  0  0  0  0  0  0  0
    6.2719   -2.1015    0.8916 O   0  0  0  0  0  0  0  0  0  0  0  0
    5.3883   -1.0306    0.5470 C   0  0  0  0  0  0  0  0  0  0  0  0
    4.3871   -0.7312    1.6649 C   0  0  0  0  0  0  0  0  0  0  0  0
    3.5632    0.5216    1.3913 C   0  0  0  0  0  0  0  0  0  0  0  0
    2.8901    1.0149    2.6332 N   0  0  0  0  0  0  0  0  0  0  0  0
    1.8597    0.0601    3.1545 C   0  0  0  0  0  0  0  0  0  0  0  0
    1.2098    0.5814    4.4400 C   0  0  0  0  0  0  0  0  0  0  0  0
    0.7793    1.9527    4.2497 N   0  0  0  0  0  0  0  0  0  0  0  0
   -0.5343    2.3188    4.5287 C   0  0  0  0  0  0  0  0  0  0  0  0
   -1.3806    2.6995    3.4637 C   0  0  0  0  0  0  0  0  0  0  0  0
   -2.7103    3.0549    3.7444 C   0  0  0  0  0  0  0  0  0  0  0  0
   -3.7939    3.4942    2.4754 Cl  0  0  0  0  0  0  0  0  0  0  0  0
   -3.1542    3.0449    5.0747 C   0  0  0  0  0  0  0  0  0  0  0  0
   -2.3326    2.6736    6.1380 C   0  0  0  0  0  0  0  0  0  0  0  0
   -1.0064    2.3050    5.8658 C   0  0  0  0  0  0  0  0  0  0  0  0
    0.0133    1.8630    7.1893 Cl  0  0  0  0  0  0  0  0  0  0  0  0
    1.6919    2.9381    3.7069 C   0  0  0  0  0  0  0  0  0  0  0  0
    2.3447    2.3900    2.4381 C   0  0  0  0  0  0  0  0  0  0  0  0
    8.4217   -2.5505   -2.3016 H   0  0  0  0  0  0  0  0  0  0  0  0
    8.4052   -3.9010   -1.1865 H   0  0  0  0  0  0  0  0  0  0  0  0
    8.1114   -2.2574   -0.6264 H   0  0  0  0  0  0  0  0  0  0  0  0
    3.1687   -8.7101    1.7168 H   0  0  0  0  0  0  0  0  0  0  0  0
    3.2071   -7.6462    4.0004 H   0  0  0  0  0  0  0  0  0  0  0  0
    4.1828   -5.3223    4.2170 H   0  0  0  0  0  0  0  0  0  0  0  0
    6.0211   -0.1563    0.3929 H   0  0  0  0  0  0  0  0  0  0  0  0
    4.8559   -1.1855   -0.3948 H   0  0  0  0  0  0  0  0  0  0  0  0
    3.6797   -1.5575    1.7449 H   0  0  0  0  0  0  0  0  0  0  0  0
    4.9236   -0.6425    2.6142 H   0  0  0  0  0  0  0  0  0  0  0  0
    4.2127    1.2776    0.9563 H   0  0  0  0  0  0  0  0  0  0  0  0
    2.8275    0.2959    0.6172 H   0  0  0  0  0  0  0  0  0  0  0  0
    1.1049   -0.0604    2.3799 H   0  0  0  0  0  0  0  0  0  0  0  0
    2.2726   -0.9292    3.3524 H   0  0  0  0  0  0  0  0  0  0  0  0
    0.3721   -0.0536    4.7288 H   0  0  0  0  0  0  0  0  0  0  0  0
    1.9309    0.5622    5.2528 H   0  0  0  0  0  0  0  0  0  0  0  0
   -1.0309    2.7145    2.4366 H   0  0  0  0  0  0  0  0  0  0  0  0
   -4.1793    3.3092    5.2784 H   0  0  0  0  0  0  0  0  0  0  0  0
   -2.7269    2.6582    7.1403 H   0  0  0  0  0  0  0  0  0  0  0  0
    1.1908    3.8848    3.4982 H   0  0  0  0  0  0  0  0  0  0  0  0
    2.4567    3.1310    4.4545 H   0  0  0  0  0  0  0  0  0  0  0  0
    3.1160    3.0948    2.1179 H   0  0  0  0  0  0  0  0  0  0  0  0
    1.6065    2.3486    1.6364 H   0  0  0  0  0  0  0  0  0  0  0  0
    3.5950    1.0977    3.3554 H   0  0  0  0  0  0  0  0  0  0  0  0
  1  2  1  0
  1 32  1  0
  1 33  1  0
  1 34  1  0
  2  3  1  0
  3 13  1  0
  3  4  2  0
  4  5  1  0
  5 10  2  0
  5  6  1  0
  6  7  2  0
  7  8  1  0
  7 35  1  0
  8  9  2  0
  8 36  1  0
  9 10  1  0
  9 37  1  0
 10 11  1  0
 11 12  2  0
 11 13  1  0
 13 14  1  0
 14 15  1  0
 15 16  1  0
 15 38  1  0
 15 39  1  0
 16 17  1  0
 16 40  1  0
 16 41  1  0
 17 18  1  0
 17 42  1  0
 17 43  1  0
 18 31  1  0
 18 19  1  0
 18 55  1  0
 19 20  1  0
 19 44  1  0
 19 45  1  0
 20 21  1  0
 20 46  1  0
 20 47  1  0
 21 22  1  0
 21 30  1  0
 22 28  1  0
 22 23  2  0
 23 24  1  0
 23 48  1  0
 24 25  1  0
 24 26  2  0
 26 27  1  0
 26 49  1  0
 27 28  2  0
 27 50  1  0
 28 29  1  0
 30 31  1  0
 30 51  1  0
 30 52  1  0
 31 53  1  0
 31 54  1  0
M  CHG  1  18   1
M  END
>  <i_m_ct_stereo_status>  (96) 
1

>  <s_m_source_file>  (96) 
/var/tmp/pbs.5076255.sched01/tmp3_il56_a/09f63jmog.sdf

>  <i_m_source_file_index>  (96) 
38

>  <i_lp_mmshare_version>  (96) 
48012

>  <i_f3d_flags>  (96) 
0

>  <s_epik_input>  (96) 
bjFbY0hdW2NIXVtjSF1jKGMxMiljKD1PKW4oYyhuMilTW0NIM10pT1tDSDJdW0NIMl1bQ0gyXU4zW0NIMl1bQ0gyXU4oW0NIMl1bQ0gyXTMpYzRbY0hdYyhDbClbY0hdW2NIXWM0Q2w=

>  <s_epik_cmdline>  (96) 
J2VwaWtfcHl0aG9uJywgJy1waHQnLCAnMi4wJywgJy1waCcsICc3LjAnLCAnLXRuJywgJzgnLCAnLW1hJywgJzIwMCcsICctaW1hZScsICc8aW5maWxlLm1hZT4nLCAnLW9tYWUnLCAnPG91dGZpbGUubWFlPic=

>  <r_epik_Ionization_Penalty>  (96) 
0.352293

>  <r_epik_Ionization_Penalty_Charging>  (96) 
0.352292

>  <r_epik_Ionization_Penalty_Neutral>  (96) 
5.24354e-07

>  <r_epik_State_Penalty>  (96) 
0.348603

>  <r_epik_Charging_Adjusted_Penalty>  (96) 
0.700895

>  <i_epik_Tot_Q>  (96) 
1

>  <i_epik_Tot_abs_Q>  (96) 
1

>  <s_lp_Force_Field>  (96) 
OPLS3e

>  <r_lp_Energy>  (96) 
65.0311

>  <b_lp_Chiralities_Consistent>  (96) 
1

>  <s_lp_Variant>  (96) 
27:0-1

>  <s_i_glide_gridfile>  (96) 
pfpi4k_grid

>  <i_i_glide_lignum>  (96) 
38

>  <i_i_glide_rotatable_bonds>  (96) 
7

>  <r_i_docking_score>  (96) 
-2.59031

>  <r_i_glide_ligand_efficiency>  (96) 
-0.0835585

>  <r_i_glide_ligand_efficiency_sa>  (96) 
-0.262489

>  <r_i_glide_ligand_efficiency_ln>  (96) 
-0.584195

>  <r_i_glide_gscore>  (96) 
-2.59031

>  <r_i_glide_lipo>  (96) 
-0.769486

>  <r_i_glide_hbond>  (96) 
0

>  <r_i_glide_metal>  (96) 
-0

>  <r_i_glide_rewards>  (96) 
-0.402342

>  <r_i_glide_evdw>  (96) 
-26.8648

>  <r_i_glide_ecoul>  (96) 
-3.90325

>  <r_i_glide_erotb>  (96) 
0.525176

>  <r_i_glide_esite>  (96) 
-0.0149326

>  <r_i_glide_emodel>  (96) 
-32.3484

>  <r_i_glide_energy>  (96) 
-30.7681

>  <r_i_glide_einternal>  (96) 
9.20246

>  <r_i_glide_intrahb_reward>  (96) 
-0

>  <i_i_glide_confnum>  (96) 
4

>  <i_i_glide_posenum>  (96) 
22

>  <r_i_glide_eff_state_penalty>  (96) 
0

>  <ligand_id>  (96) 
27

>  <original_smiles>  (96) 
CSc1nc2ncccc2c(=O)n1OCCCN1CCN(c2cc(Cl)ccc2Cl)CC1

>  <smiles>  (96) 
[H]c1nc2nc(SC([H])([H])[H])n(OC([H])([H])C([H])([H])C([H])([H])[N+]3([H])C([H])([H])C([H])([H])N(c4c([H])c(Cl)c([H])c([H])c4Cl)C([H])([H])C3([H])[H])c(=O)c2c([H])c1[H]

$$$$
27:0:2
     RDKit          3D

 55 58  0  0  1  0  0  0  0  0999 V2000
    5.0550   -8.6408    1.0074 C   0  0  0  0  0  0  0  0  0  0  0  0
    4.8608   -6.8539    1.3473 S   0  0  0  0  0  0  0  0  0  0  0  0
    3.1674   -6.8912    2.0853 C   0  0  0  0  0  0  0  0  0  0  0  0
    2.3926   -7.9410    2.0580 N   0  0  0  0  0  0  0  0  0  0  0  0
    1.1719   -7.8778    2.7273 C   0  0  0  0  0  0  0  0  0  0  0  0
    0.4166   -8.9951    2.6634 N   0  0  0  0  0  0  0  0  0  0  0  0
   -0.7649   -8.9819    3.3059 C   0  0  0  0  0  0  0  0  0  0  0  0
   -1.2636   -7.8625    4.0046 C   0  0  0  0  0  0  0  0  0  0  0  0
   -0.4678   -6.6999    4.0765 C   0  0  0  0  0  0  0  0  0  0  0  0
    0.7777   -6.7141    3.4348 C   0  0  0  0  0  0  0  0  0  0  0  0
    1.7142   -5.5369    3.4936 C   0  0  0  0  0  0  0  0  0  0  0  0
    1.5152   -4.5365    4.1830 O   0  0  0  0  0  0  0  0  0  0  0  0
    2.7752   -5.6630    2.6719 N   0  0  0  0  0  0  0  0  0  0  0  0
    3.7086   -4.6088    2.7556 O   0  0  0  0  0  0  0  0  0  0  0  0
    3.5181   -3.5900    1.7636 C   0  0  0  0  0  0  0  0  0  0  0  0
    2.4316   -2.5821    2.2284 C   0  0  0  0  0  0  0  0  0  0  0  0
    2.6746   -1.1586    1.7266 C   0  0  0  0  0  0  0  0  0  0  0  0
    1.9391   -0.1924    2.6194 N   0  0  0  0  0  0  0  0  0  0  0  0
    1.1426    0.8031    1.8559 C   0  0  0  0  0  0  0  0  0  0  0  0
    0.3736    1.7778    2.7522 C   0  0  0  0  0  0  0  0  0  0  0  0
    1.2490    2.3499    3.7662 N   0  0  0  0  0  0  0  0  0  0  0  0
    1.3519    3.7517    3.9050 C   0  0  0  0  0  0  0  0  0  0  0  0
    2.6304    4.3690    3.9248 C   0  0  0  0  0  0  0  0  0  0  0  0
    2.7468    5.7727    4.0668 C   0  0  0  0  0  0  0  0  0  0  0  0
    4.2825    6.5415    4.0922 Cl  0  0  0  0  0  0  0  0  0  0  0  0
    1.5933    6.5482    4.1720 C   0  0  0  0  0  0  0  0  0  0  0  0
    0.3317    5.9560    4.1568 C   0  0  0  0  0  0  0  0  0  0  0  0
    0.1934    4.5622    4.0367 C   0  0  0  0  0  0  0  0  0  0  0  0
   -1.4098    3.9150    4.0989 Cl  0  0  0  0  0  0  0  0  0  0  0  0
    2.0663    1.4482    4.5643 C   0  0  0  0  0  0  0  0  0  0  0  0
    2.8183    0.4513    3.6549 C   0  0  0  0  0  0  0  0  0  0  0  0
    5.9954   -8.8747    0.5118 H   0  0  0  0  0  0  0  0  0  0  0  0
    4.2373   -9.0336    0.3962 H   0  0  0  0  0  0  0  0  0  0  0  0
    5.0312   -9.1756    1.9571 H   0  0  0  0  0  0  0  0  0  0  0  0
   -1.3336   -9.8953    3.2635 H   0  0  0  0  0  0  0  0  0  0  0  0
   -2.2035   -7.9080    4.5250 H   0  0  0  0  0  0  0  0  0  0  0  0
   -0.7980   -5.8280    4.6298 H   0  0  0  0  0  0  0  0  0  0  0  0
    4.4747   -3.0638    1.6727 H   0  0  0  0  0  0  0  0  0  0  0  0
    3.3338   -3.9959    0.7634 H   0  0  0  0  0  0  0  0  0  0  0  0
    1.4318   -2.8895    1.9087 H   0  0  0  0  0  0  0  0  0  0  0  0
    2.3920   -2.5505    3.3244 H   0  0  0  0  0  0  0  0  0  0  0  0
    3.7411   -0.9489    1.7624 H   0  0  0  0  0  0  0  0  0  0  0  0
    2.4024   -1.0782    0.6698 H   0  0  0  0  0  0  0  0  0  0  0  0
    1.8515    1.3621    1.2518 H   0  0  0  0  0  0  0  0  0  0  0  0
    0.4321    0.2980    1.2022 H   0  0  0  0  0  0  0  0  0  0  0  0
   -0.0515    2.5510    2.1151 H   0  0  0  0  0  0  0  0  0  0  0  0
   -0.4496    1.2619    3.2339 H   0  0  0  0  0  0  0  0  0  0  0  0
    3.5183    3.7606    3.8179 H   0  0  0  0  0  0  0  0  0  0  0  0
    1.6678    7.6163    4.2662 H   0  0  0  0  0  0  0  0  0  0  0  0
   -0.5440    6.5648    4.2331 H   0  0  0  0  0  0  0  0  0  0  0  0
    2.7592    2.0064    5.1941 H   0  0  0  0  0  0  0  0  0  0  0  0
    1.4108    0.9088    5.2366 H   0  0  0  0  0  0  0  0  0  0  0  0
    3.3269   -0.2985    4.2695 H   0  0  0  0  0  0  0  0  0  0  0  0
    3.5897    1.0089    3.1265 H   0  0  0  0  0  0  0  0  0  0  0  0
    1.2451   -0.7066    3.1526 H   0  0  0  0  0  0  0  0  0  0  0  0
  1  2  1  0
  1 32  1  0
  1 33  1  0
  1 34  1  0
  2  3  1  0
  3 13  1  0
  3  4  2  0
  4  5  1  0
  5 10  2  0
  5  6  1  0
  6  7  2  0
  7  8  1  0
  7 35  1  0
  8  9  2  0
  8 36  1  0
  9 10  1  0
  9 37  1  0
 10 11  1  0
 11 12  2  0
 11 13  1  0
 13 14  1  0
 14 15  1  0
 15 16  1  0
 15 38  1  0
 15 39  1  0
 16 17  1  0
 16 40  1  0
 16 41  1  0
 17 18  1  0
 17 42  1  0
 17 43  1  0
 18 31  1  0
 18 19  1  0
 18 55  1  0
 19 20  1  0
 19 44  1  0
 19 45  1  0
 20 21  1  0
 20 46  1  0
 20 47  1  0
 21 22  1  0
 21 30  1  0
 22 28  1  0
 22 23  2  0
 23 24  1  0
 23 48  1  0
 24 25  1  0
 24 26  2  0
 26 27  1  0
 26 49  1  0
 27 28  2  0
 27 50  1  0
 28 29  1  0
 30 31  1  0
 30 51  1  0
 30 52  1  0
 31 53  1  0
 31 54  1  0
M  CHG  1  18   1
M  END
>  <i_m_ct_stereo_status>  (97) 
1

>  <s_m_source_file>  (97) 
/var/tmp/pbs.5076255.sched01/tmp3_il56_a/09f63jmog.sdf

>  <i_m_source_file_index>  (97) 
38

>  <i_lp_mmshare_version>  (97) 
48012

>  <i_f3d_flags>  (97) 
0

>  <s_epik_input>  (97) 
bjFbY0hdW2NIXVtjSF1jKGMxMiljKD1PKW4oYyhuMilTW0NIM10pT1tDSDJdW0NIMl1bQ0gyXU4zW0NIMl1bQ0gyXU4oW0NIMl1bQ0gyXTMpYzRbY0hdYyhDbClbY0hdW2NIXWM0Q2w=

>  <s_epik_cmdline>  (97) 
J2VwaWtfcHl0aG9uJywgJy1waHQnLCAnMi4wJywgJy1waCcsICc3LjAnLCAnLXRuJywgJzgnLCAnLW1hJywgJzIwMCcsICctaW1hZScsICc8aW5maWxlLm1hZT4nLCAnLW9tYWUnLCAnPG91dGZpbGUubWFlPic=

>  <r_epik_Ionization_Penalty>  (97) 
0.352293

>  <r_epik_Ionization_Penalty_Charging>  (97) 
0.352292

>  <r_epik_Ionization_Penalty_Neutral>  (97) 
5.24354e-07

>  <r_epik_State_Penalty>  (97) 
0.348603

>  <r_epik_Charging_Adjusted_Penalty>  (97) 
0.700895

>  <i_epik_Tot_Q>  (97) 
1

>  <i_epik_Tot_abs_Q>  (97) 
1

>  <s_lp_Force_Field>  (97) 
OPLS3e

>  <r_lp_Energy>  (97) 
65.0311

>  <b_lp_Chiralities_Consistent>  (97) 
1

>  <s_lp_Variant>  (97) 
27:0-1

>  <s_i_glide_gridfile>  (97) 
pfpi4k_grid

>  <i_i_glide_lignum>  (97) 
38

>  <i_i_glide_rotatable_bonds>  (97) 
7

>  <r_i_docking_score>  (97) 
-1.89138

>  <r_i_glide_ligand_efficiency>  (97) 
-0.0610121

>  <r_i_glide_ligand_efficiency_sa>  (97) 
-0.191662

>  <r_i_glide_ligand_efficiency_ln>  (97) 
-0.426563

>  <r_i_glide_gscore>  (97) 
-1.89138

>  <r_i_glide_lipo>  (97) 
-0.153776

>  <r_i_glide_hbond>  (97) 
0

>  <r_i_glide_metal>  (97) 
-0

>  <r_i_glide_rewards>  (97) 
-0.152763

>  <r_i_glide_evdw>  (97) 
-33.0316

>  <r_i_glide_ecoul>  (97) 
-2.53908

>  <r_i_glide_erotb>  (97) 
0.525176

>  <r_i_glide_esite>  (97) 
-0.0775718

>  <r_i_glide_emodel>  (97) 
-34.8881

>  <r_i_glide_energy>  (97) 
-35.5707

>  <r_i_glide_einternal>  (97) 
8.66509

>  <r_i_glide_intrahb_reward>  (97) 
-0

>  <i_i_glide_confnum>  (97) 
4

>  <i_i_glide_posenum>  (97) 
20

>  <r_i_glide_eff_state_penalty>  (97) 
0

>  <ligand_id>  (97) 
27

>  <original_smiles>  (97) 
CSc1nc2ncccc2c(=O)n1OCCCN1CCN(c2cc(Cl)ccc2Cl)CC1

>  <smiles>  (97) 
[H]c1nc2nc(SC([H])([H])[H])n(OC([H])([H])C([H])([H])C([H])([H])[N+]3([H])C([H])([H])C([H])([H])N(c4c([H])c(Cl)c([H])c([H])c4Cl)C([H])([H])C3([H])[H])c(=O)c2c([H])c1[H]

$$$$
27:1:0
     RDKit          3D

 54 57  0  0  1  0  0  0  0  0999 V2000
    5.2534   -5.4698    2.4165 C   0  0  0  0  0  0  0  0  0  0  0  0
    3.6808   -4.6182    2.2390 S   0  0  0  0  0  0  0  0  0  0  0  0
    3.7962   -3.7463    0.6192 C   0  0  0  0  0  0  0  0  0  0  0  0
    2.8520   -3.8438   -0.2625 N   0  0  0  0  0  0  0  0  0  0  0  0
    3.0037   -3.1701   -1.4657 C   0  0  0  0  0  0  0  0  0  0  0  0
    2.0247   -3.3882   -2.3470 N   0  0  0  0  0  0  0  0  0  0  0  0
    2.1307   -2.8179   -3.5544 C   0  0  0  0  0  0  0  0  0  0  0  0
    3.1853   -1.9606   -3.9306 C   0  0  0  0  0  0  0  0  0  0  0  0
    4.2076   -1.7172   -3.0001 C   0  0  0  0  0  0  0  0  0  0  0  0
    4.1289   -2.3524   -1.7501 C   0  0  0  0  0  0  0  0  0  0  0  0
    5.1754   -2.2162   -0.6986 C   0  0  0  0  0  0  0  0  0  0  0  0
    6.1657   -1.5035   -0.9020 O   0  0  0  0  0  0  0  0  0  0  0  0
    4.9320   -2.8806    0.4480 N   0  0  0  0  0  0  0  0  0  0  0  0
    5.9060   -2.7246    1.4765 O   0  0  0  0  0  0  0  0  0  0  0  0
    5.7351   -1.5145    2.2241 C   0  0  0  0  0  0  0  0  0  0  0  0
    4.5222   -1.5938    3.1364 C   0  0  0  0  0  0  0  0  0  0  0  0
    4.2719   -0.3543    3.9763 C   0  0  0  0  0  0  0  0  0  0  0  0
    3.0082   -0.4894    4.6997 N   0  0  0  0  0  0  0  0  0  0  0  0
    1.8456   -0.4502    3.7907 C   0  0  0  0  0  0  0  0  0  0  0  0
    0.5312   -0.5743    4.5632 C   0  0  0  0  0  0  0  0  0  0  0  0
    0.4550    0.4579    5.5815 N   0  0  0  0  0  0  0  0  0  0  0  0
   -0.6385    1.3419    5.6614 C   0  0  0  0  0  0  0  0  0  0  0  0
   -1.1955    1.8614    4.4609 C   0  0  0  0  0  0  0  0  0  0  0  0
   -2.2951    2.7400    4.4960 C   0  0  0  0  0  0  0  0  0  0  0  0
   -2.9712    3.3483    3.0297 Cl  0  0  0  0  0  0  0  0  0  0  0  0
   -2.8471    3.1015    5.7331 C   0  0  0  0  0  0  0  0  0  0  0  0
   -2.3232    2.5945    6.9303 C   0  0  0  0  0  0  0  0  0  0  0  0
   -1.2230    1.7175    6.9064 C   0  0  0  0  0  0  0  0  0  0  0  0
   -0.6866    1.0833    8.4261 Cl  0  0  0  0  0  0  0  0  0  0  0  0
    1.6230    0.5740    6.4435 C   0  0  0  0  0  0  0  0  0  0  0  0
    2.9126    0.6499    5.6138 C   0  0  0  0  0  0  0  0  0  0  0  0
    5.2245   -6.0293    3.3459 H   0  0  0  0  0  0  0  0  0  0  0  0
    6.1134   -4.8125    2.4663 H   0  0  0  0  0  0  0  0  0  0  0  0
    5.3635   -6.1553    1.5826 H   0  0  0  0  0  0  0  0  0  0  0  0
    1.3238   -3.0166   -4.2416 H   0  0  0  0  0  0  0  0  0  0  0  0
    3.1790   -1.4886   -4.9028 H   0  0  0  0  0  0  0  0  0  0  0  0
    5.0210   -1.0544   -3.2660 H   0  0  0  0  0  0  0  0  0  0  0  0
    6.5938   -1.3821    2.8620 H   0  0  0  0  0  0  0  0  0  0  0  0
    5.7076   -0.6175    1.6054 H   0  0  0  0  0  0  0  0  0  0  0  0
    3.6735   -1.7398    2.4840 H   0  0  0  0  0  0  0  0  0  0  0  0
    4.6117   -2.4491    3.8084 H   0  0  0  0  0  0  0  0  0  0  0  0
    5.0964   -0.2526    4.6847 H   0  0  0  0  0  0  0  0  0  0  0  0
    4.2497    0.5276    3.3388 H   0  0  0  0  0  0  0  0  0  0  0  0
    1.8741    0.4642    3.1953 H   0  0  0  0  0  0  0  0  0  0  0  0
    1.8255   -1.2883    3.0997 H   0  0  0  0  0  0  0  0  0  0  0  0
   -0.3057   -0.5359    3.8699 H   0  0  0  0  0  0  0  0  0  0  0  0
    0.4822   -1.5432    5.0531 H   0  0  0  0  0  0  0  0  0  0  0  0
   -0.7840    1.5944    3.4922 H   0  0  0  0  0  0  0  0  0  0  0  0
   -3.7077    3.7432    5.7619 H   0  0  0  0  0  0  0  0  0  0  0  0
   -2.7668    2.8534    7.8803 H   0  0  0  0  0  0  0  0  0  0  0  0
    1.5662    1.4769    7.0474 H   0  0  0  0  0  0  0  0  0  0  0  0
    1.6517   -0.2884    7.1075 H   0  0  0  0  0  0  0  0  0  0  0  0
    3.7698    0.6584    6.2904 H   0  0  0  0  0  0  0  0  0  0  0  0
    2.9443    1.5828    5.0461 H   0  0  0  0  0  0  0  0  0  0  0  0
  1  2  1  0
  1 32  1  0
  1 33  1  0
  1 34  1  0
  2  3  1  0
  3 13  1  0
  3  4  2  0
  4  5  1  0
  5 10  2  0
  5  6  1  0
  6  7  2  0
  7  8  1  0
  7 35  1  0
  8  9  2  0
  8 36  1  0
  9 10  1  0
  9 37  1  0
 10 11  1  0
 11 12  2  0
 11 13  1  0
 13 14  1  0
 14 15  1  0
 15 16  1  0
 15 38  1  0
 15 39  1  0
 16 17  1  0
 16 40  1  0
 16 41  1  0
 17 18  1  0
 17 42  1  0
 17 43  1  0
 18 31  1  0
 18 19  1  0
 19 20  1  0
 19 44  1  0
 19 45  1  0
 20 21  1  0
 20 46  1  0
 20 47  1  0
 21 22  1  0
 21 30  1  0
 22 28  1  0
 22 23  2  0
 23 24  1  0
 23 48  1  0
 24 25  1  0
 24 26  2  0
 26 27  1  0
 26 49  1  0
 27 28  2  0
 27 50  1  0
 28 29  1  0
 30 31  1  0
 30 51  1  0
 30 52  1  0
 31 53  1  0
 31 54  1  0
M  END
>  <i_m_ct_stereo_status>  (98) 
1

>  <s_m_source_file>  (98) 
/var/tmp/pbs.5076255.sched01/tmp3_il56_a/09f63jmog.sdf

>  <i_m_source_file_index>  (98) 
39

>  <i_lp_mmshare_version>  (98) 
48012

>  <i_f3d_flags>  (98) 
0

>  <s_epik_input>  (98) 
bjFbY0hdW2NIXVtjSF1jKGMxMiljKD1PKW4oYyhuMilTW0NIM10pT1tDSDJdW0NIMl1bQ0gyXU4zW0NIMl1bQ0gyXU4oW0NIMl1bQ0gyXTMpYzRbY0hdYyhDbClbY0hdW2NIXWM0Q2w=

>  <s_epik_cmdline>  (98) 
J2VwaWtfcHl0aG9uJywgJy1waHQnLCAnMi4wJywgJy1waCcsICc3LjAnLCAnLXRuJywgJzgnLCAnLW1hJywgJzIwMCcsICctaW1hZScsICc8aW5maWxlLm1hZT4nLCAnLW9tYWUnLCAnPG91dGZpbGUubWFlPic=

>  <r_epik_Ionization_Penalty>  (98) 
0.47546

>  <r_epik_Ionization_Penalty_Charging>  (98) 
2.0977e-11

>  <r_epik_Ionization_Penalty_Neutral>  (98) 
0.47546

>  <r_epik_State_Penalty>  (98) 
0.48003

>  <r_epik_Charging_Adjusted_Penalty>  (98) 
0.48003

>  <i_epik_Tot_Q>  (98) 
0

>  <i_epik_Tot_abs_Q>  (98) 
0

>  <s_lp_Force_Field>  (98) 
OPLS3e

>  <r_lp_Energy>  (98) 
64.3025

>  <b_lp_Chiralities_Consistent>  (98) 
1

>  <s_lp_Variant>  (98) 
27:0-2

>  <s_i_glide_gridfile>  (98) 
pfpi4k_grid

>  <i_i_glide_lignum>  (98) 
39

>  <i_i_glide_rotatable_bonds>  (98) 
7

>  <r_i_docking_score>  (98) 
-2.31413

>  <r_i_glide_ligand_efficiency>  (98) 
-0.0746493

>  <r_i_glide_ligand_efficiency_sa>  (98) 
-0.234502

>  <r_i_glide_ligand_efficiency_ln>  (98) 
-0.521907

>  <r_i_glide_gscore>  (98) 
-2.31413

>  <r_i_glide_lipo>  (98) 
-0.740409

>  <r_i_glide_hbond>  (98) 
-0.117792

>  <r_i_glide_metal>  (98) 
-0

>  <r_i_glide_rewards>  (98) 
-0.246447

>  <r_i_glide_evdw>  (98) 
-31.934

>  <r_i_glide_ecoul>  (98) 
-0.892108

>  <r_i_glide_erotb>  (98) 
0.527192

>  <r_i_glide_esite>  (98) 
-0.00615766

>  <r_i_glide_emodel>  (98) 
-33.9521

>  <r_i_glide_energy>  (98) 
-32.8261

>  <r_i_glide_einternal>  (98) 
6.37797

>  <r_i_glide_intrahb_reward>  (98) 
-0

>  <i_i_glide_confnum>  (98) 
4

>  <i_i_glide_posenum>  (98) 
37

>  <r_i_glide_eff_state_penalty>  (98) 
0

>  <ligand_id>  (98) 
27

>  <original_smiles>  (98) 
CSc1nc2ncccc2c(=O)n1OCCCN1CCN(c2cc(Cl)ccc2Cl)CC1

>  <smiles>  (98) 
[H]c1nc2nc(SC([H])([H])[H])n(OC([H])([H])C([H])([H])C([H])([H])N3C([H])([H])C([H])([H])N(c4c([H])c(Cl)c([H])c([H])c4Cl)C([H])([H])C3([H])[H])c(=O)c2c([H])c1[H]

$$$$
27:1:1
     RDKit          3D

 54 57  0  0  1  0  0  0  0  0999 V2000
    2.6741   -5.6637    2.1300 C   0  0  0  0  0  0  0  0  0  0  0  0
    4.1114   -4.5682    2.3519 S   0  0  0  0  0  0  0  0  0  0  0  0
    4.0329   -3.6526    0.7731 C   0  0  0  0  0  0  0  0  0  0  0  0
    3.1152   -3.8463   -0.1233 N   0  0  0  0  0  0  0  0  0  0  0  0
    3.1692   -3.1312   -1.3201 C   0  0  0  0  0  0  0  0  0  0  0  0
    2.1952   -3.4093   -2.2023 N   0  0  0  0  0  0  0  0  0  0  0  0
    2.2152   -2.7812   -3.3894 C   0  0  0  0  0  0  0  0  0  0  0  0
    3.1967   -1.8360   -3.7540 C   0  0  0  0  0  0  0  0  0  0  0  0
    4.2124   -1.5303   -2.8242 C   0  0  0  0  0  0  0  0  0  0  0  0
    4.1997   -2.2054   -1.5911 C   0  0  0  0  0  0  0  0  0  0  0  0
    5.2482   -1.9872   -0.5394 C   0  0  0  0  0  0  0  0  0  0  0  0
    6.1884   -1.2167   -0.7252 O   0  0  0  0  0  0  0  0  0  0  0  0
    5.0558   -2.6819    0.6033 N   0  0  0  0  0  0  0  0  0  0  0  0
    6.0433   -2.5137    1.6139 O   0  0  0  0  0  0  0  0  0  0  0  0
    5.8907   -1.2748    2.3282 C   0  0  0  0  0  0  0  0  0  0  0  0
    4.7307   -1.3913    3.3123 C   0  0  0  0  0  0  0  0  0  0  0  0
    4.3900   -0.0783    4.0186 C   0  0  0  0  0  0  0  0  0  0  0  0
    3.1443   -0.2066    4.7725 N   0  0  0  0  0  0  0  0  0  0  0  0
    1.9800   -0.2785    3.8695 C   0  0  0  0  0  0  0  0  0  0  0  0
    0.6764   -0.4148    4.6665 C   0  0  0  0  0  0  0  0  0  0  0  0
    0.5526    0.6722    5.6211 N   0  0  0  0  0  0  0  0  0  0  0  0
   -0.5828    1.4999    5.6578 C   0  0  0  0  0  0  0  0  0  0  0  0
   -1.1366    1.9680    4.4397 C   0  0  0  0  0  0  0  0  0  0  0  0
   -2.2831    2.7894    4.4461 C   0  0  0  0  0  0  0  0  0  0  0  0
   -2.9737    3.3452    2.9650 Cl  0  0  0  0  0  0  0  0  0  0  0  0
   -2.8746    3.1410    5.6692 C   0  0  0  0  0  0  0  0  0  0  0  0
   -2.3464    2.6776    6.8801 C   0  0  0  0  0  0  0  0  0  0  0  0
   -1.2049    1.8544    6.8856 C   0  0  0  0  0  0  0  0  0  0  0  0
   -0.6649    1.2648    8.4183 Cl  0  0  0  0  0  0  0  0  0  0  0  0
    1.7200    0.8964    6.4624 C   0  0  0  0  0  0  0  0  0  0  0  0
    3.0015    0.9862    5.6133 C   0  0  0  0  0  0  0  0  0  0  0  0
    2.5206   -6.3017    2.9997 H   0  0  0  0  0  0  0  0  0  0  0  0
    2.8443   -6.2971    1.2584 H   0  0  0  0  0  0  0  0  0  0  0  0
    1.7575   -5.0951    1.9549 H   0  0  0  0  0  0  0  0  0  0  0  0
    1.4143   -3.0480   -4.0591 H   0  0  0  0  0  0  0  0  0  0  0  0
    3.1359   -1.3527   -4.7180 H   0  0  0  0  0  0  0  0  0  0  0  0
    4.9720   -0.7932   -3.0635 H   0  0  0  0  0  0  0  0  0  0  0  0
    6.8044   -1.0264    2.8670 H   0  0  0  0  0  0  0  0  0  0  0  0
    5.7484   -0.4081    1.6803 H   0  0  0  0  0  0  0  0  0  0  0  0
    3.8728   -1.7077    2.7337 H   0  0  0  0  0  0  0  0  0  0  0  0
    4.9332   -2.1773    4.0431 H   0  0  0  0  0  0  0  0  0  0  0  0
    5.2165    0.1731    4.6881 H   0  0  0  0  0  0  0  0  0  0  0  0
    4.2970    0.7329    3.2925 H   0  0  0  0  0  0  0  0  0  0  0  0
    1.9545    0.6016    3.2256 H   0  0  0  0  0  0  0  0  0  0  0  0
    2.0110   -1.1518    3.2208 H   0  0  0  0  0  0  0  0  0  0  0  0
   -0.1689   -0.4550    3.9832 H   0  0  0  0  0  0  0  0  0  0  0  0
    0.6791   -1.3578    5.2134 H   0  0  0  0  0  0  0  0  0  0  0  0
   -0.6911    1.7070    3.4926 H   0  0  0  0  0  0  0  0  0  0  0  0
   -3.7677    3.7378    5.6866 H   0  0  0  0  0  0  0  0  0  0  0  0
   -2.8235    2.9269    7.8139 H   0  0  0  0  0  0  0  0  0  0  0  0
    1.6110    1.8217    7.0231 H   0  0  0  0  0  0  0  0  0  0  0  0
    1.8027    0.0759    7.1763 H   0  0  0  0  0  0  0  0  0  0  0  0
    3.8641    1.0794    6.2771 H   0  0  0  0  0  0  0  0  0  0  0  0
    2.9808    1.8806    4.9895 H   0  0  0  0  0  0  0  0  0  0  0  0
  1  2  1  0
  1 32  1  0
  1 33  1  0
  1 34  1  0
  2  3  1  0
  3 13  1  0
  3  4  2  0
  4  5  1  0
  5 10  2  0
  5  6  1  0
  6  7  2  0
  7  8  1  0
  7 35  1  0
  8  9  2  0
  8 36  1  0
  9 10  1  0
  9 37  1  0
 10 11  1  0
 11 12  2  0
 11 13  1  0
 13 14  1  0
 14 15  1  0
 15 16  1  0
 15 38  1  0
 15 39  1  0
 16 17  1  0
 16 40  1  0
 16 41  1  0
 17 18  1  0
 17 42  1  0
 17 43  1  0
 18 31  1  0
 18 19  1  0
 19 20  1  0
 19 44  1  0
 19 45  1  0
 20 21  1  0
 20 46  1  0
 20 47  1  0
 21 22  1  0
 21 30  1  0
 22 28  1  0
 22 23  2  0
 23 24  1  0
 23 48  1  0
 24 25  1  0
 24 26  2  0
 26 27  1  0
 26 49  1  0
 27 28  2  0
 27 50  1  0
 28 29  1  0
 30 31  1  0
 30 51  1  0
 30 52  1  0
 31 53  1  0
 31 54  1  0
M  END
>  <i_m_ct_stereo_status>  (99) 
1

>  <s_m_source_file>  (99) 
/var/tmp/pbs.5076255.sched01/tmp3_il56_a/09f63jmog.sdf

>  <i_m_source_file_index>  (99) 
39

>  <i_lp_mmshare_version>  (99) 
48012

>  <i_f3d_flags>  (99) 
0

>  <s_epik_input>  (99) 
bjFbY0hdW2NIXVtjSF1jKGMxMiljKD1PKW4oYyhuMilTW0NIM10pT1tDSDJdW0NIMl1bQ0gyXU4zW0NIMl1bQ0gyXU4oW0NIMl1bQ0gyXTMpYzRbY0hdYyhDbClbY0hdW2NIXWM0Q2w=

>  <s_epik_cmdline>  (99) 
J2VwaWtfcHl0aG9uJywgJy1waHQnLCAnMi4wJywgJy1waCcsICc3LjAnLCAnLXRuJywgJzgnLCAnLW1hJywgJzIwMCcsICctaW1hZScsICc8aW5maWxlLm1hZT4nLCAnLW9tYWUnLCAnPG91dGZpbGUubWFlPic=

>  <r_epik_Ionization_Penalty>  (99) 
0.47546

>  <r_epik_Ionization_Penalty_Charging>  (99) 
2.0977e-11

>  <r_epik_Ionization_Penalty_Neutral>  (99) 
0.47546

>  <r_epik_State_Penalty>  (99) 
0.48003

>  <r_epik_Charging_Adjusted_Penalty>  (99) 
0.48003

>  <i_epik_Tot_Q>  (99) 
0

>  <i_epik_Tot_abs_Q>  (99) 
0

>  <s_lp_Force_Field>  (99) 
OPLS3e

>  <r_lp_Energy>  (99) 
64.3025

>  <b_lp_Chiralities_Consistent>  (99) 
1

>  <s_lp_Variant>  (99) 
27:0-2

>  <s_i_glide_gridfile>  (99) 
pfpi4k_grid

>  <i_i_glide_lignum>  (99) 
39

>  <i_i_glide_rotatable_bonds>  (99) 
7

>  <r_i_docking_score>  (99) 
-2.30649

>  <r_i_glide_ligand_efficiency>  (99) 
-0.074403

>  <r_i_glide_ligand_efficiency_sa>  (99) 
-0.233728

>  <r_i_glide_ligand_efficiency_ln>  (99) 
-0.520185

>  <r_i_glide_gscore>  (99) 
-2.30649

>  <r_i_glide_lipo>  (99) 
-0.753484

>  <r_i_glide_hbond>  (99) 
-0.0928568

>  <r_i_glide_metal>  (99) 
-0

>  <r_i_glide_rewards>  (99) 
-0.234952

>  <r_i_glide_evdw>  (99) 
-32.6062

>  <r_i_glide_ecoul>  (99) 
-0.783079

>  <r_i_glide_erotb>  (99) 
0.527192

>  <r_i_glide_esite>  (99) 
-0.00461838

>  <r_i_glide_emodel>  (99) 
-37.0854

>  <r_i_glide_energy>  (99) 
-33.3893

>  <r_i_glide_einternal>  (99) 
1.66229

>  <r_i_glide_intrahb_reward>  (99) 
-0

>  <i_i_glide_confnum>  (99) 
4

>  <i_i_glide_posenum>  (99) 
32

>  <r_i_glide_eff_state_penalty>  (99) 
0

>  <ligand_id>  (99) 
27

>  <original_smiles>  (99) 
CSc1nc2ncccc2c(=O)n1OCCCN1CCN(c2cc(Cl)ccc2Cl)CC1

>  <smiles>  (99) 
[H]c1nc2nc(SC([H])([H])[H])n(OC([H])([H])C([H])([H])C([H])([H])N3C([H])([H])C([H])([H])N(c4c([H])c(Cl)c([H])c([H])c4Cl)C([H])([H])C3([H])[H])c(=O)c2c([H])c1[H]

$$$$
27:1:2
     RDKit          3D

 54 57  0  0  1  0  0  0  0  0999 V2000
    5.2672   -0.2328    5.3932 C   0  0  0  0  0  0  0  0  0  0  0  0
    4.0697   -0.2848    6.7729 S   0  0  0  0  0  0  0  0  0  0  0  0
    2.5286    0.0352    5.8562 C   0  0  0  0  0  0  0  0  0  0  0  0
    2.4952    0.3066    4.5933 N   0  0  0  0  0  0  0  0  0  0  0  0
    1.2854    0.6195    3.9771 C   0  0  0  0  0  0  0  0  0  0  0  0
    1.3652    0.9458    2.6777 N   0  0  0  0  0  0  0  0  0  0  0  0
    0.2368    1.3166    2.0441 C   0  0  0  0  0  0  0  0  0  0  0  0
   -1.0235    1.3487    2.6775 C   0  0  0  0  0  0  0  0  0  0  0  0
   -1.1100    0.9964    4.0384 C   0  0  0  0  0  0  0  0  0  0  0  0
    0.0670    0.6280    4.7045 C   0  0  0  0  0  0  0  0  0  0  0  0
    0.1076    0.2482    6.1596 C   0  0  0  0  0  0  0  0  0  0  0  0
   -0.9311    0.2030    6.8470 O   0  0  0  0  0  0  0  0  0  0  0  0
    1.3389   -0.0694    6.6243 N   0  0  0  0  0  0  0  0  0  0  0  0
    1.4360   -0.4138    8.0097 O   0  0  0  0  0  0  0  0  0  0  0  0
    1.0383   -1.7729    8.2979 C   0  0  0  0  0  0  0  0  0  0  0  0
    2.0322   -2.7543    7.6665 C   0  0  0  0  0  0  0  0  0  0  0  0
    1.7778   -4.2294    7.9778 C   0  0  0  0  0  0  0  0  0  0  0  0
    2.3851   -5.0842    6.9581 N   0  0  0  0  0  0  0  0  0  0  0  0
    1.6567   -4.9876    5.6808 C   0  0  0  0  0  0  0  0  0  0  0  0
    2.2802   -5.9051    4.6239 C   0  0  0  0  0  0  0  0  0  0  0  0
    2.3259   -7.2743    5.1086 N   0  0  0  0  0  0  0  0  0  0  0  0
    1.7764   -8.3277    4.3818 C   0  0  0  0  0  0  0  0  0  0  0  0
    0.4745   -8.1920    3.8466 C   0  0  0  0  0  0  0  0  0  0  0  0
   -0.1094   -9.2324    3.1086 C   0  0  0  0  0  0  0  0  0  0  0  0
   -1.7151   -9.0426    2.4937 Cl  0  0  0  0  0  0  0  0  0  0  0  0
    0.6069  -10.4156    2.8823 C   0  0  0  0  0  0  0  0  0  0  0  0
    1.9029  -10.5626    3.3932 C   0  0  0  0  0  0  0  0  0  0  0  0
    2.4946   -9.5286    4.1375 C   0  0  0  0  0  0  0  0  0  0  0  0
    4.1263   -9.7470    4.6741 Cl  0  0  0  0  0  0  0  0  0  0  0  0
    2.9368   -7.4403    6.4217 C   0  0  0  0  0  0  0  0  0  0  0  0
    2.3134   -6.4666    7.4422 C   0  0  0  0  0  0  0  0  0  0  0  0
    6.2742   -0.4732    5.7316 H   0  0  0  0  0  0  0  0  0  0  0  0
    5.2785    0.7707    4.9691 H   0  0  0  0  0  0  0  0  0  0  0  0
    5.0137   -0.9285    4.5880 H   0  0  0  0  0  0  0  0  0  0  0  0
    0.3587    1.5776    1.0067 H   0  0  0  0  0  0  0  0  0  0  0  0
   -1.8955    1.6450    2.1078 H   0  0  0  0  0  0  0  0  0  0  0  0
   -2.0741    1.0116    4.5475 H   0  0  0  0  0  0  0  0  0  0  0  0
    1.0159   -1.9291    9.3782 H   0  0  0  0  0  0  0  0  0  0  0  0
    0.0241   -1.9972    7.9483 H   0  0  0  0  0  0  0  0  0  0  0  0
    2.0036   -2.5859    6.5921 H   0  0  0  0  0  0  0  0  0  0  0  0
    3.0445   -2.5420    8.0157 H   0  0  0  0  0  0  0  0  0  0  0  0
    2.2459   -4.4236    8.9469 H   0  0  0  0  0  0  0  0  0  0  0  0
    0.7132   -4.4573    8.0784 H   0  0  0  0  0  0  0  0  0  0  0  0
    0.6103   -5.2388    5.8468 H   0  0  0  0  0  0  0  0  0  0  0  0
    1.6930   -3.9932    5.2375 H   0  0  0  0  0  0  0  0  0  0  0  0
    1.7187   -5.8267    3.6959 H   0  0  0  0  0  0  0  0  0  0  0  0
    3.2952   -5.5734    4.4034 H   0  0  0  0  0  0  0  0  0  0  0  0
   -0.0883   -7.2851    4.0156 H   0  0  0  0  0  0  0  0  0  0  0  0
    0.1786  -11.2114    2.2976 H   0  0  0  0  0  0  0  0  0  0  0  0
    2.4607  -11.4680    3.2050 H   0  0  0  0  0  0  0  0  0  0  0  0
    2.7961   -8.4633    6.7687 H   0  0  0  0  0  0  0  0  0  0  0  0
    4.0101   -7.2552    6.3424 H   0  0  0  0  0  0  0  0  0  0  0  0
    2.8319   -6.5627    8.3991 H   0  0  0  0  0  0  0  0  0  0  0  0
    1.2717   -6.7294    7.6180 H   0  0  0  0  0  0  0  0  0  0  0  0
  1  2  1  0
  1 32  1  0
  1 33  1  0
  1 34  1  0
  2  3  1  0
  3 13  1  0
  3  4  2  0
  4  5  1  0
  5 10  2  0
  5  6  1  0
  6  7  2  0
  7  8  1  0
  7 35  1  0
  8  9  2  0
  8 36  1  0
  9 10  1  0
  9 37  1  0
 10 11  1  0
 11 12  2  0
 11 13  1  0
 13 14  1  0
 14 15  1  0
 15 16  1  0
 15 38  1  0
 15 39  1  0
 16 17  1  0
 16 40  1  0
 16 41  1  0
 17 18  1  0
 17 42  1  0
 17 43  1  0
 18 31  1  0
 18 19  1  0
 19 20  1  0
 19 44  1  0
 19 45  1  0
 20 21  1  0
 20 46  1  0
 20 47  1  0
 21 22  1  0
 21 30  1  0
 22 28  1  0
 22 23  2  0
 23 24  1  0
 23 48  1  0
 24 25  1  0
 24 26  2  0
 26 27  1  0
 26 49  1  0
 27 28  2  0
 27 50  1  0
 28 29  1  0
 30 31  1  0
 30 51  1  0
 30 52  1  0
 31 53  1  0
 31 54  1  0
M  END
>  <i_m_ct_stereo_status>  (100) 
1

>  <s_m_source_file>  (100) 
/var/tmp/pbs.5076255.sched01/tmp3_il56_a/09f63jmog.sdf

>  <i_m_source_file_index>  (100) 
39

>  <i_lp_mmshare_version>  (100) 
48012

>  <i_f3d_flags>  (100) 
0

>  <s_epik_input>  (100) 
bjFbY0hdW2NIXVtjSF1jKGMxMiljKD1PKW4oYyhuMilTW0NIM10pT1tDSDJdW0NIMl1bQ0gyXU4zW0NIMl1bQ0gyXU4oW0NIMl1bQ0gyXTMpYzRbY0hdYyhDbClbY0hdW2NIXWM0Q2w=

>  <s_epik_cmdline>  (100) 
J2VwaWtfcHl0aG9uJywgJy1waHQnLCAnMi4wJywgJy1waCcsICc3LjAnLCAnLXRuJywgJzgnLCAnLW1hJywgJzIwMCcsICctaW1hZScsICc8aW5maWxlLm1hZT4nLCAnLW9tYWUnLCAnPG91dGZpbGUubWFlPic=

>  <r_epik_Ionization_Penalty>  (100) 
0.47546

>  <r_epik_Ionization_Penalty_Charging>  (100) 
2.0977e-11

>  <r_epik_Ionization_Penalty_Neutral>  (100) 
0.47546

>  <r_epik_State_Penalty>  (100) 
0.48003

>  <r_epik_Charging_Adjusted_Penalty>  (100) 
0.48003

>  <i_epik_Tot_Q>  (100) 
0

>  <i_epik_Tot_abs_Q>  (100) 
0

>  <s_lp_Force_Field>  (100) 
OPLS3e

>  <r_lp_Energy>  (100) 
64.3025

>  <b_lp_Chiralities_Consistent>  (100) 
1

>  <s_lp_Variant>  (100) 
27:0-2

>  <s_i_glide_gridfile>  (100) 
pfpi4k_grid

>  <i_i_glide_lignum>  (100) 
39

>  <i_i_glide_rotatable_bonds>  (100) 
7

>  <r_i_docking_score>  (100) 
-1.88243

>  <r_i_glide_ligand_efficiency>  (100) 
-0.0607235

>  <r_i_glide_ligand_efficiency_sa>  (100) 
-0.190756

>  <r_i_glide_ligand_efficiency_ln>  (100) 
-0.424545

>  <r_i_glide_gscore>  (100) 
-1.88243

>  <r_i_glide_lipo>  (100) 
-0.449929

>  <r_i_glide_hbond>  (100) 
-0.110085

>  <r_i_glide_metal>  (100) 
-0

>  <r_i_glide_rewards>  (100) 
-0.133561

>  <r_i_glide_evdw>  (100) 
-27.1812

>  <r_i_glide_ecoul>  (100) 
-2.33538

>  <r_i_glide_erotb>  (100) 
0.527192

>  <r_i_glide_esite>  (100) 
-0.00667671

>  <r_i_glide_emodel>  (100) 
-31.526

>  <r_i_glide_energy>  (100) 
-29.5166

>  <r_i_glide_einternal>  (100) 
2.29034

>  <r_i_glide_intrahb_reward>  (100) 
-0

>  <i_i_glide_confnum>  (100) 
4

>  <i_i_glide_posenum>  (100) 
18

>  <r_i_glide_eff_state_penalty>  (100) 
0

>  <ligand_id>  (100) 
27

>  <original_smiles>  (100) 
CSc1nc2ncccc2c(=O)n1OCCCN1CCN(c2cc(Cl)ccc2Cl)CC1

>  <smiles>  (100) 
[H]c1nc2nc(SC([H])([H])[H])n(OC([H])([H])C([H])([H])C([H])([H])N3C([H])([H])C([H])([H])N(c4c([H])c(Cl)c([H])c([H])c4Cl)C([H])([H])C3([H])[H])c(=O)c2c([H])c1[H]

$$$$
29:0:0
     RDKit          3D

 14 15  0  0  1  0  0  0  0  0999 V2000
   -8.8007   -3.6367   -5.5189 F   0  0  0  0  0  0  0  0  0  0  0  0
   -8.0069   -4.7302   -5.5879 C   0  0  0  0  0  0  0  0  0  0  0  0
   -7.0138   -4.9459   -4.6144 C   0  0  0  0  0  0  0  0  0  0  0  0
   -6.1946   -6.0869   -4.6858 C   0  0  0  0  0  0  0  0  0  0  0  0
   -6.3738   -7.0062   -5.7348 C   0  0  0  0  0  0  0  0  0  0  0  0
   -5.4911   -8.4968   -6.0630 S   0  0  0  0  0  0  0  0  0  0  0  0
   -6.5161   -8.7180   -7.4828 C   0  0  0  0  0  0  0  0  0  0  0  0
   -7.4415   -7.7854   -7.7228 N   0  0  0  0  0  0  0  0  0  0  0  0
   -7.3754   -6.8062   -6.7344 C   0  0  0  0  0  0  0  0  0  0  0  0
   -8.1808   -5.6512   -6.6374 C   0  0  0  0  0  0  0  0  0  0  0  0
   -6.8901   -4.2420   -3.8049 H   0  0  0  0  0  0  0  0  0  0  0  0
   -5.4396   -6.2645   -3.9362 H   0  0  0  0  0  0  0  0  0  0  0  0
   -6.4372   -9.5548   -8.1607 H   0  0  0  0  0  0  0  0  0  0  0  0
   -8.9440   -5.4781   -7.3805 H   0  0  0  0  0  0  0  0  0  0  0  0
  1  2  1  0
  2 10  2  0
  2  3  1  0
  3  4  2  0
  3 11  1  0
  4  5  1  0
  4 12  1  0
  5  9  2  0
  5  6  1  0
  6  7  1  0
  7  8  2  0
  7 13  1  0
  8  9  1  0
  9 10  1  0
 10 14  1  0
M  END
>  <i_m_ct_stereo_status>  (101) 
1

>  <s_m_source_file>  (101) 
/var/tmp/pbs.5076255.sched01/tmp3_il56_a/09f63jmog.sdf

>  <i_m_source_file_index>  (101) 
41

>  <i_lp_mmshare_version>  (101) 
48012

>  <i_f3d_flags>  (101) 
0

>  <s_epik_input>  (101) 
W2NIXTFbY0hdYyhGKVtjSF1jKGMxMiluW2NIXXMy

>  <s_epik_cmdline>  (101) 
J2VwaWtfcHl0aG9uJywgJy1waHQnLCAnMi4wJywgJy1waCcsICc3LjAnLCAnLXRuJywgJzgnLCAnLW1hJywgJzIwMCcsICctaW1hZScsICc8aW5maWxlLm1hZT4nLCAnLW9tYWUnLCAnPG91dGZpbGUubWFlPic=

>  <r_lp_tautomer_probability>  (101) 
1

>  <r_epik_Ionization_Penalty>  (101) 
1.11135e-06

>  <r_epik_Ionization_Penalty_Charging>  (101) 
0

>  <r_epik_Ionization_Penalty_Neutral>  (101) 
1.11135e-06

>  <r_epik_State_Penalty>  (101) 
-0

>  <r_epik_Charging_Adjusted_Penalty>  (101) 
0

>  <i_epik_Tot_Q>  (101) 
0

>  <i_epik_Tot_abs_Q>  (101) 
0

>  <s_lp_Force_Field>  (101) 
OPLS3e

>  <r_lp_Energy>  (101) 
6.18283

>  <b_lp_Chiralities_Consistent>  (101) 
1

>  <s_lp_Variant>  (101) 
29:0-1

>  <s_i_glide_gridfile>  (101) 
pfpi4k_grid

>  <i_i_glide_lignum>  (101) 
41

>  <i_i_glide_rotatable_bonds>  (101) 
0

>  <r_i_docking_score>  (101) 
-6.41127

>  <r_i_glide_ligand_efficiency>  (101) 
-0.641127

>  <r_i_glide_ligand_efficiency_sa>  (101) 
-1.38127

>  <r_i_glide_ligand_efficiency_ln>  (101) 
-1.94129

>  <r_i_glide_gscore>  (101) 
-6.41127

>  <r_i_glide_lipo>  (101) 
-2.16913

>  <r_i_glide_hbond>  (101) 
0

>  <r_i_glide_metal>  (101) 
-0

>  <r_i_glide_rewards>  (101) 
-3.22248

>  <r_i_glide_evdw>  (101) 
-20.8607

>  <r_i_glide_ecoul>  (101) 
0.155848

>  <r_i_glide_erotb>  (101) 
0

>  <r_i_glide_esite>  (101) 
0

>  <r_i_glide_emodel>  (101) 
-29.7975

>  <r_i_glide_energy>  (101) 
-20.7048

>  <r_i_glide_einternal>  (101) 
0

>  <r_i_glide_intrahb_reward>  (101) 
-0

>  <i_i_glide_confnum>  (101) 
2

>  <i_i_glide_posenum>  (101) 
7

>  <r_i_glide_eff_state_penalty>  (101) 
0

>  <ligand_id>  (101) 
29

>  <original_smiles>  (101) 
Fc1ccc2scnc2c1

>  <smiles>  (101) 
[H]c1nc2c([H])c(F)c([H])c([H])c2s1

$$$$
29:0:1
     RDKit          3D

 14 15  0  0  1  0  0  0  0  0999 V2000
  -10.0933   -4.2560   -7.6726 F   0  0  0  0  0  0  0  0  0  0  0  0
   -9.0679   -4.7623   -6.9493 C   0  0  0  0  0  0  0  0  0  0  0  0
   -8.6175   -4.0790   -5.8061 C   0  0  0  0  0  0  0  0  0  0  0  0
   -7.5460   -4.6033   -5.0572 C   0  0  0  0  0  0  0  0  0  0  0  0
   -6.9368   -5.8054   -5.4599 C   0  0  0  0  0  0  0  0  0  0  0  0
   -5.5797   -6.6566   -4.7249 S   0  0  0  0  0  0  0  0  0  0  0  0
   -5.7426   -7.8865   -5.9778 C   0  0  0  0  0  0  0  0  0  0  0  0
   -6.6983   -7.6994   -6.8930 N   0  0  0  0  0  0  0  0  0  0  0  0
   -7.3865   -6.5202   -6.6104 C   0  0  0  0  0  0  0  0  0  0  0  0
   -8.4571   -5.9673   -7.3455 C   0  0  0  0  0  0  0  0  0  0  0  0
   -9.0911   -3.1525   -5.5103 H   0  0  0  0  0  0  0  0  0  0  0  0
   -7.1850   -4.0869   -4.1803 H   0  0  0  0  0  0  0  0  0  0  0  0
   -5.1133   -8.7630   -6.0452 H   0  0  0  0  0  0  0  0  0  0  0  0
   -8.8102   -6.4878   -8.2218 H   0  0  0  0  0  0  0  0  0  0  0  0
  1  2  1  0
  2 10  2  0
  2  3  1  0
  3  4  2  0
  3 11  1  0
  4  5  1  0
  4 12  1  0
  5  9  2  0
  5  6  1  0
  6  7  1  0
  7  8  2  0
  7 13  1  0
  8  9  1  0
  9 10  1  0
 10 14  1  0
M  END
>  <i_m_ct_stereo_status>  (102) 
1

>  <s_m_source_file>  (102) 
/var/tmp/pbs.5076255.sched01/tmp3_il56_a/09f63jmog.sdf

>  <i_m_source_file_index>  (102) 
41

>  <i_lp_mmshare_version>  (102) 
48012

>  <i_f3d_flags>  (102) 
0

>  <s_epik_input>  (102) 
W2NIXTFbY0hdYyhGKVtjSF1jKGMxMiluW2NIXXMy

>  <s_epik_cmdline>  (102) 
J2VwaWtfcHl0aG9uJywgJy1waHQnLCAnMi4wJywgJy1waCcsICc3LjAnLCAnLXRuJywgJzgnLCAnLW1hJywgJzIwMCcsICctaW1hZScsICc8aW5maWxlLm1hZT4nLCAnLW9tYWUnLCAnPG91dGZpbGUubWFlPic=

>  <r_lp_tautomer_probability>  (102) 
1

>  <r_epik_Ionization_Penalty>  (102) 
1.11135e-06

>  <r_epik_Ionization_Penalty_Charging>  (102) 
0

>  <r_epik_Ionization_Penalty_Neutral>  (102) 
1.11135e-06

>  <r_epik_State_Penalty>  (102) 
-0

>  <r_epik_Charging_Adjusted_Penalty>  (102) 
0

>  <i_epik_Tot_Q>  (102) 
0

>  <i_epik_Tot_abs_Q>  (102) 
0

>  <s_lp_Force_Field>  (102) 
OPLS3e

>  <r_lp_Energy>  (102) 
6.18283

>  <b_lp_Chiralities_Consistent>  (102) 
1

>  <s_lp_Variant>  (102) 
29:0-1

>  <s_i_glide_gridfile>  (102) 
pfpi4k_grid

>  <i_i_glide_lignum>  (102) 
41

>  <i_i_glide_rotatable_bonds>  (102) 
0

>  <r_i_docking_score>  (102) 
-6.40752

>  <r_i_glide_ligand_efficiency>  (102) 
-0.640752

>  <r_i_glide_ligand_efficiency_sa>  (102) 
-1.38046

>  <r_i_glide_ligand_efficiency_ln>  (102) 
-1.94015

>  <r_i_glide_gscore>  (102) 
-6.40752

>  <r_i_glide_lipo>  (102) 
-2.13292

>  <r_i_glide_hbond>  (102) 
0

>  <r_i_glide_metal>  (102) 
-0

>  <r_i_glide_rewards>  (102) 
-2.95

>  <r_i_glide_evdw>  (102) 
-21.4327

>  <r_i_glide_ecoul>  (102) 
-1.32941

>  <r_i_glide_erotb>  (102) 
0

>  <r_i_glide_esite>  (102) 
-0.0535512

>  <r_i_glide_emodel>  (102) 
-31.8472

>  <r_i_glide_energy>  (102) 
-22.7621

>  <r_i_glide_einternal>  (102) 
0

>  <r_i_glide_intrahb_reward>  (102) 
-0

>  <i_i_glide_confnum>  (102) 
1

>  <i_i_glide_posenum>  (102) 
10

>  <r_i_glide_eff_state_penalty>  (102) 
0

>  <ligand_id>  (102) 
29

>  <original_smiles>  (102) 
Fc1ccc2scnc2c1

>  <smiles>  (102) 
[H]c1nc2c([H])c(F)c([H])c([H])c2s1

$$$$
29:0:2
     RDKit          3D

 14 15  0  0  1  0  0  0  0  0999 V2000
   -5.0018   -6.2589   -4.6644 F   0  0  0  0  0  0  0  0  0  0  0  0
   -6.1725   -6.0530   -5.3163 C   0  0  0  0  0  0  0  0  0  0  0  0
   -6.5848   -6.9594   -6.3099 C   0  0  0  0  0  0  0  0  0  0  0  0
   -7.7754   -6.7210   -7.0209 C   0  0  0  0  0  0  0  0  0  0  0  0
   -8.5479   -5.5811   -6.7267 C   0  0  0  0  0  0  0  0  0  0  0  0
  -10.0688   -5.0551   -7.4552 S   0  0  0  0  0  0  0  0  0  0  0  0
  -10.0535   -3.6816   -6.3504 C   0  0  0  0  0  0  0  0  0  0  0  0
   -9.0094   -3.5795   -5.5227 N   0  0  0  0  0  0  0  0  0  0  0  0
   -8.1532   -4.6569   -5.7146 C   0  0  0  0  0  0  0  0  0  0  0  0
   -6.9507   -4.9178   -5.0208 C   0  0  0  0  0  0  0  0  0  0  0  0
   -5.9734   -7.8204   -6.5403 H   0  0  0  0  0  0  0  0  0  0  0  0
   -8.0972   -7.4067   -7.7906 H   0  0  0  0  0  0  0  0  0  0  0  0
  -10.8282   -2.9260   -6.3201 H   0  0  0  0  0  0  0  0  0  0  0  0
   -6.6235   -4.2285   -4.2561 H   0  0  0  0  0  0  0  0  0  0  0  0
  1  2  1  0
  2 10  2  0
  2  3  1  0
  3  4  2  0
  3 11  1  0
  4  5  1  0
  4 12  1  0
  5  9  2  0
  5  6  1  0
  6  7  1  0
  7  8  2  0
  7 13  1  0
  8  9  1  0
  9 10  1  0
 10 14  1  0
M  END
>  <i_m_ct_stereo_status>  (103) 
1

>  <s_m_source_file>  (103) 
/var/tmp/pbs.5076255.sched01/tmp3_il56_a/09f63jmog.sdf

>  <i_m_source_file_index>  (103) 
41

>  <i_lp_mmshare_version>  (103) 
48012

>  <i_f3d_flags>  (103) 
0

>  <s_epik_input>  (103) 
W2NIXTFbY0hdYyhGKVtjSF1jKGMxMiluW2NIXXMy

>  <s_epik_cmdline>  (103) 
J2VwaWtfcHl0aG9uJywgJy1waHQnLCAnMi4wJywgJy1waCcsICc3LjAnLCAnLXRuJywgJzgnLCAnLW1hJywgJzIwMCcsICctaW1hZScsICc8aW5maWxlLm1hZT4nLCAnLW9tYWUnLCAnPG91dGZpbGUubWFlPic=

>  <r_lp_tautomer_probability>  (103) 
1

>  <r_epik_Ionization_Penalty>  (103) 
1.11135e-06

>  <r_epik_Ionization_Penalty_Charging>  (103) 
0

>  <r_epik_Ionization_Penalty_Neutral>  (103) 
1.11135e-06

>  <r_epik_State_Penalty>  (103) 
-0

>  <r_epik_Charging_Adjusted_Penalty>  (103) 
0

>  <i_epik_Tot_Q>  (103) 
0

>  <i_epik_Tot_abs_Q>  (103) 
0

>  <s_lp_Force_Field>  (103) 
OPLS3e

>  <r_lp_Energy>  (103) 
6.18283

>  <b_lp_Chiralities_Consistent>  (103) 
1

>  <s_lp_Variant>  (103) 
29:0-1

>  <s_i_glide_gridfile>  (103) 
pfpi4k_grid

>  <i_i_glide_lignum>  (103) 
41

>  <i_i_glide_rotatable_bonds>  (103) 
0

>  <r_i_docking_score>  (103) 
-6.13351

>  <r_i_glide_ligand_efficiency>  (103) 
-0.613351

>  <r_i_glide_ligand_efficiency_sa>  (103) 
-1.32142

>  <r_i_glide_ligand_efficiency_ln>  (103) 
-1.85718

>  <r_i_glide_gscore>  (103) 
-6.13351

>  <r_i_glide_lipo>  (103) 
-1.87891

>  <r_i_glide_hbond>  (103) 
0

>  <r_i_glide_metal>  (103) 
-0

>  <r_i_glide_rewards>  (103) 
-2.95

>  <r_i_glide_evdw>  (103) 
-21.6206

>  <r_i_glide_ecoul>  (103) 
-1.25151

>  <r_i_glide_erotb>  (103) 
0

>  <r_i_glide_esite>  (103) 
-0.0358452

>  <r_i_glide_emodel>  (103) 
-31.5677

>  <r_i_glide_energy>  (103) 
-22.8721

>  <r_i_glide_einternal>  (103) 
0

>  <r_i_glide_intrahb_reward>  (103) 
-0

>  <i_i_glide_confnum>  (103) 
1

>  <i_i_glide_posenum>  (103) 
3

>  <r_i_glide_eff_state_penalty>  (103) 
0

>  <ligand_id>  (103) 
29

>  <original_smiles>  (103) 
Fc1ccc2scnc2c1

>  <smiles>  (103) 
[H]c1nc2c([H])c(F)c([H])c([H])c2s1

$$$$
30:0:0
     RDKit          3D

 44 48  0  0  1  0  0  0  0  0999 V2000
    3.5724    0.0633   -4.3255 C   0  0  0  0  0  0  0  0  0  0  0  0
    3.8383   -1.1252   -3.5463 N   0  0  0  0  0  0  0  0  0  0  0  0
    4.1384   -1.2570   -2.2128 C   0  0  0  0  0  0  0  0  0  0  0  0
    4.3219   -2.5885   -1.9316 C   0  0  0  0  0  0  0  0  0  0  0  0
    4.6606   -3.2429   -0.6545 C   0  0  0  0  0  0  0  0  0  0  0  0
    4.7499   -2.5447    0.4224 N   0  0  0  0  0  0  0  0  0  0  0  0
    5.0678   -3.1259    1.6413 C   0  0  0  0  0  0  0  0  0  0  0  0
    5.2136   -4.4516    1.7740 C   0  0  0  0  0  0  0  0  0  0  0  0
    5.6202   -5.1046    3.0965 C   0  0  0  0  0  0  0  0  0  0  0  0
    4.4406   -5.7171    3.8951 C   0  0  0  0  0  0  0  0  0  0  0  0
    3.3633   -6.2441    2.9764 C   0  0  2  0  0  0  0  0  0  0  0  0
    2.0229   -5.6036    2.9208 C   0  0  0  0  0  0  0  0  0  0  0  0
    1.7396   -4.4199    3.0759 O   0  0  0  0  0  0  0  0  0  0  0  0
    1.2771   -6.9665    2.7257 C   0  0  0  0  0  0  0  0  0  0  0  0
    0.3929   -7.3567    3.9177 C   0  0  0  0  0  0  0  0  0  0  0  0
    0.5503   -7.1545    1.4010 C   0  0  0  0  0  0  0  0  0  0  0  0
    2.6925   -7.5817    2.7495 C   0  0  1  0  0  0  0  0  0  0  0  0
    3.8459   -7.1217    1.8610 C   0  0  1  0  0  0  0  0  0  0  0  0
    3.8700   -6.3477    0.5723 C   0  0  0  0  0  0  0  0  0  0  0  0
    5.0538   -5.3499    0.5327 C   0  0  1  0  0  0  0  0  0  0  0  0
    4.9010   -4.6061   -0.6755 O   0  0  0  0  0  0  0  0  0  0  0  0
    4.0888   -3.1945   -3.2075 C   0  0  0  0  0  0  0  0  0  0  0  0
    3.8178   -2.3209   -4.1587 N   0  0  0  0  0  0  0  0  0  0  0  0
    3.6435    0.9471   -3.6927 H   0  0  0  0  0  0  0  0  0  0  0  0
    2.5773    0.0101   -4.7654 H   0  0  0  0  0  0  0  0  0  0  0  0
    4.2999    0.1622   -5.1239 H   0  0  0  0  0  0  0  0  0  0  0  0
    4.2135   -0.3939   -1.5562 H   0  0  0  0  0  0  0  0  0  0  0  0
    5.1825   -2.4420    2.4715 H   0  0  0  0  0  0  0  0  0  0  0  0
    6.3541   -5.8813    2.8664 H   0  0  0  0  0  0  0  0  0  0  0  0
    6.1332   -4.3724    3.7113 H   0  0  0  0  0  0  0  0  0  0  0  0
    4.7898   -6.5328    4.5278 H   0  0  0  0  0  0  0  0  0  0  0  0
    4.0044   -4.9570    4.5430 H   0  0  0  0  0  0  0  0  0  0  0  0
    0.1316   -8.4215    3.9162 H   0  0  0  0  0  0  0  0  0  0  0  0
   -0.5521   -6.8190    3.8873 H   0  0  0  0  0  0  0  0  0  0  0  0
    0.8500   -7.1362    4.8796 H   0  0  0  0  0  0  0  0  0  0  0  0
    0.3242   -8.2132    1.2824 H   0  0  0  0  0  0  0  0  0  0  0  0
    1.1431   -6.8692    0.5386 H   0  0  0  0  0  0  0  0  0  0  0  0
   -0.4047   -6.6318    1.3476 H   0  0  0  0  0  0  0  0  0  0  0  0
    2.8725   -8.3670    3.4866 H   0  0  0  0  0  0  0  0  0  0  0  0
    4.7783   -7.6544    2.0322 H   0  0  0  0  0  0  0  0  0  0  0  0
    3.9389   -7.0353   -0.2718 H   0  0  0  0  0  0  0  0  0  0  0  0
    2.9558   -5.7651    0.4680 H   0  0  0  0  0  0  0  0  0  0  0  0
    5.9852   -5.9188    0.4645 H   0  0  0  0  0  0  0  0  0  0  0  0
    4.1310   -4.2390   -3.4614 H   0  0  0  0  0  0  0  0  0  0  0  0
  1  2  1  0
  1 24  1  0
  1 25  1  0
  1 26  1  0
  2 23  1  0
  2  3  1  0
  3  4  2  0
  3 27  1  0
  4  5  1  0
  4 22  1  0
  5 21  1  0
  5  6  2  0
  6  7  1  0
  7  8  2  0
  7 28  1  0
  8 20  1  0
  8  9  1  0
  9 10  1  0
  9 29  1  0
  9 30  1  0
 11 10  1  1
 10 31  1  0
 10 32  1  0
 11 17  1  0
 11 18  1  0
 11 12  1  0
 12 13  2  0
 12 14  1  0
 14 15  1  0
 14 16  1  0
 14 17  1  0
 15 33  1  0
 15 34  1  0
 15 35  1  0
 16 36  1  0
 16 37  1  0
 16 38  1  0
 17 18  1  0
 17 39  1  1
 18 19  1  0
 18 40  1  1
 19 20  1  0
 19 41  1  0
 19 42  1  0
 20 21  1  0
 20 43  1  6
 22 23  2  0
 22 44  1  0
M  END
>  <i_m_ct_stereo_status>  (104) 
1

>  <s_m_source_file>  (104) 
/var/tmp/pbs.5076255.sched01/tmppnbbzaq8/41bb87crku.sdf

>  <i_m_source_file_index>  (104) 
1

>  <i_lp_mmshare_version>  (104) 
48012

>  <i_f3d_flags>  (104) 
0

>  <s_epik_input>  (104) 
W0NIM11uMVtjSF1jKFtjSF1uMSlDKE8yKT1OW0NIXT1DKFtDSDJdW0NIMl0zKVtDQEhdMltDSDJdW0NAQEhdNFtDQEBIXShbQ0BAXTM0NSlDKEM1PU8pKFtDSDNdKVtDSDNd

>  <s_epik_cmdline>  (104) 
J2VwaWtfcHl0aG9uJywgJy1waHQnLCAnMi4wJywgJy1waCcsICc3LjAnLCAnLXRuJywgJzgnLCAnLW1hJywgJzIwMCcsICctaW1hZScsICc8aW5maWxlLm1hZT4nLCAnLW9tYWUnLCAnPG91dGZpbGUubWFlPic=

>  <r_lp_tautomer_probability>  (104) 
1

>  <r_epik_Ionization_Penalty>  (104) 
2.35381e-06

>  <r_epik_Ionization_Penalty_Charging>  (104) 
0

>  <r_epik_Ionization_Penalty_Neutral>  (104) 
2.35381e-06

>  <r_epik_State_Penalty>  (104) 
-0

>  <r_epik_Charging_Adjusted_Penalty>  (104) 
0

>  <i_epik_Tot_Q>  (104) 
0

>  <i_epik_Tot_abs_Q>  (104) 
0

>  <s_epik_Chemistry_Notes>  (104) 
This compound has an imine and may undergo hydrolysis.

>  <s_lp_Force_Field>  (104) 
OPLS3e

>  <r_lp_Energy>  (104) 
34.8946

>  <b_lp_Chiralities_Consistent>  (104) 
1

>  <s_lp_Variant>  (104) 
30:0-1

>  <s_i_glide_gridfile>  (104) 
pfpi4k_grid

>  <i_i_glide_lignum>  (104) 
1

>  <i_i_glide_rotatable_bonds>  (104) 
1

>  <r_i_docking_score>  (104) 
-3.93242

>  <r_i_glide_ligand_efficiency>  (104) 
-0.170975

>  <r_i_glide_ligand_efficiency_sa>  (104) 
-0.486229

>  <r_i_glide_ligand_efficiency_ln>  (104) 
-0.950894

>  <r_i_glide_gscore>  (104) 
-3.93242

>  <r_i_glide_lipo>  (104) 
-0.550911

>  <r_i_glide_hbond>  (104) 
-0.32

>  <r_i_glide_metal>  (104) 
-0

>  <r_i_glide_rewards>  (104) 
-1.63343

>  <r_i_glide_evdw>  (104) 
-27.3646

>  <r_i_glide_ecoul>  (104) 
-1.60567

>  <r_i_glide_erotb>  (104) 
0.191265

>  <r_i_glide_esite>  (104) 
-0.0102618

>  <r_i_glide_emodel>  (104) 
-36.228

>  <r_i_glide_energy>  (104) 
-28.9702

>  <r_i_glide_einternal>  (104) 
0.105734

>  <r_i_glide_intrahb_reward>  (104) 
-0

>  <i_i_glide_confnum>  (104) 
2

>  <i_i_glide_posenum>  (104) 
16

>  <r_i_glide_eff_state_penalty>  (104) 
0

>  <ligand_id>  (104) 
30

>  <original_smiles>  (104) 
Cn1cc(C2=NC=C3CCC45C(=O)C(C)(C)C4C5CC3O2)cn1

>  <smiles>  (104) 
[H]C1=C2C([H])([H])C([H])([H])C34C(=O)C(C([H])([H])[H])(C([H])([H])[H])C3([H])C4([H])C([H])([H])C2([H])OC(c2c([H])nn(C([H])([H])[H])c2[H])=N1

$$$$
30:0:1
     RDKit          3D

 44 48  0  0  1  0  0  0  0  0999 V2000
    3.1836   -0.9285   -3.6264 C   0  0  0  0  0  0  0  0  0  0  0  0
    3.7244   -1.9832   -2.8016 N   0  0  0  0  0  0  0  0  0  0  0  0
    3.6045   -2.1881   -1.4482 C   0  0  0  0  0  0  0  0  0  0  0  0
    4.2669   -3.3473   -1.1221 C   0  0  0  0  0  0  0  0  0  0  0  0
    4.4460   -3.9963    0.1915 C   0  0  0  0  0  0  0  0  0  0  0  0
    4.3736   -3.2874    1.2642 N   0  0  0  0  0  0  0  0  0  0  0  0
    4.5816   -3.8455    2.5191 C   0  0  0  0  0  0  0  0  0  0  0  0
    4.7105   -5.1641    2.6857 C   0  0  0  0  0  0  0  0  0  0  0  0
    4.9567   -5.8016    4.0547 C   0  0  0  0  0  0  0  0  0  0  0  0
    3.6775   -6.3809    4.7151 C   0  0  0  0  0  0  0  0  0  0  0  0
    2.7078   -6.9085    3.6814 C   0  0  2  0  0  0  0  0  0  0  0  0
    1.3897   -6.2568    3.4674 C   0  0  0  0  0  0  0  0  0  0  0  0
    1.1036   -5.0640    3.5292 O   0  0  0  0  0  0  0  0  0  0  0  0
    0.6509   -7.6113    3.2137 C   0  0  0  0  0  0  0  0  0  0  0  0
   -0.3726   -7.9724    4.3014 C   0  0  0  0  0  0  0  0  0  0  0  0
    0.0774   -7.8053    1.8163 C   0  0  0  0  0  0  0  0  0  0  0  0
    2.0459   -8.2403    3.4035 C   0  0  1  0  0  0  0  0  0  0  0  0
    3.3005   -7.8132    2.6474 C   0  0  1  0  0  0  0  0  0  0  0  0
    3.4889   -7.0611    1.3586 C   0  0  0  0  0  0  0  0  0  0  0  0
    4.6877   -6.0835    1.4483 C   0  0  1  0  0  0  0  0  0  0  0  0
    4.7125   -5.3537    0.2188 O   0  0  0  0  0  0  0  0  0  0  0  0
    4.7589   -3.7710   -2.3992 C   0  0  0  0  0  0  0  0  0  0  0  0
    4.4517   -2.9481   -3.3849 N   0  0  0  0  0  0  0  0  0  0  0  0
    2.6121   -0.2398   -3.0026 H   0  0  0  0  0  0  0  0  0  0  0  0
    2.5161   -1.3485   -4.3799 H   0  0  0  0  0  0  0  0  0  0  0  0
    3.9878   -0.3845   -4.1226 H   0  0  0  0  0  0  0  0  0  0  0  0
    3.0575   -1.4901   -0.8199 H   0  0  0  0  0  0  0  0  0  0  0  0
    4.6204   -3.1432    3.3453 H   0  0  0  0  0  0  0  0  0  0  0  0
    5.6963   -6.5954    3.9220 H   0  0  0  0  0  0  0  0  0  0  0  0
    5.4160   -5.0634    4.7071 H   0  0  0  0  0  0  0  0  0  0  0  0
    3.9314   -7.1964    5.3890 H   0  0  0  0  0  0  0  0  0  0  0  0
    3.1786   -5.6104    5.3028 H   0  0  0  0  0  0  0  0  0  0  0  0
   -0.6518   -9.0331    4.2820 H   0  0  0  0  0  0  0  0  0  0  0  0
   -1.2983   -7.4199    4.1486 H   0  0  0  0  0  0  0  0  0  0  0  0
   -0.0265   -7.7424    5.3067 H   0  0  0  0  0  0  0  0  0  0  0  0
   -0.1508   -8.8569    1.6829 H   0  0  0  0  0  0  0  0  0  0  0  0
    0.7743   -7.5488    1.0281 H   0  0  0  0  0  0  0  0  0  0  0  0
   -0.8519   -7.2613    1.6502 H   0  0  0  0  0  0  0  0  0  0  0  0
    2.1290   -9.0061    4.1730 H   0  0  0  0  0  0  0  0  0  0  0  0
    4.1978   -8.3552    2.9354 H   0  0  0  0  0  0  0  0  0  0  0  0
    3.6424   -7.7691    0.5421 H   0  0  0  0  0  0  0  0  0  0  0  0
    2.6009   -6.4679    1.1474 H   0  0  0  0  0  0  0  0  0  0  0  0
    5.6092   -6.6677    1.5036 H   0  0  0  0  0  0  0  0  0  0  0  0
    5.3409   -4.6488   -2.6188 H   0  0  0  0  0  0  0  0  0  0  0  0
  1  2  1  0
  1 24  1  0
  1 25  1  0
  1 26  1  0
  2 23  1  0
  2  3  1  0
  3  4  2  0
  3 27  1  0
  4  5  1  0
  4 22  1  0
  5 21  1  0
  5  6  2  0
  6  7  1  0
  7  8  2  0
  7 28  1  0
  8 20  1  0
  8  9  1  0
  9 10  1  0
  9 29  1  0
  9 30  1  0
 11 10  1  1
 10 31  1  0
 10 32  1  0
 11 17  1  0
 11 18  1  0
 11 12  1  0
 12 13  2  0
 12 14  1  0
 14 15  1  0
 14 16  1  0
 14 17  1  0
 15 33  1  0
 15 34  1  0
 15 35  1  0
 16 36  1  0
 16 37  1  0
 16 38  1  0
 17 18  1  0
 17 39  1  1
 18 19  1  0
 18 40  1  1
 19 20  1  0
 19 41  1  0
 19 42  1  0
 20 21  1  0
 20 43  1  1
 22 23  2  0
 22 44  1  0
M  END
>  <i_m_ct_stereo_status>  (105) 
1

>  <s_m_source_file>  (105) 
/var/tmp/pbs.5076255.sched01/tmppnbbzaq8/41bb87crku.sdf

>  <i_m_source_file_index>  (105) 
1

>  <i_lp_mmshare_version>  (105) 
48012

>  <i_f3d_flags>  (105) 
0

>  <s_epik_input>  (105) 
W0NIM11uMVtjSF1jKFtjSF1uMSlDKE8yKT1OW0NIXT1DKFtDSDJdW0NIMl0zKVtDQEhdMltDSDJdW0NAQEhdNFtDQEBIXShbQ0BAXTM0NSlDKEM1PU8pKFtDSDNdKVtDSDNd

>  <s_epik_cmdline>  (105) 
J2VwaWtfcHl0aG9uJywgJy1waHQnLCAnMi4wJywgJy1waCcsICc3LjAnLCAnLXRuJywgJzgnLCAnLW1hJywgJzIwMCcsICctaW1hZScsICc8aW5maWxlLm1hZT4nLCAnLW9tYWUnLCAnPG91dGZpbGUubWFlPic=

>  <r_lp_tautomer_probability>  (105) 
1

>  <r_epik_Ionization_Penalty>  (105) 
2.35381e-06

>  <r_epik_Ionization_Penalty_Charging>  (105) 
0

>  <r_epik_Ionization_Penalty_Neutral>  (105) 
2.35381e-06

>  <r_epik_State_Penalty>  (105) 
-0

>  <r_epik_Charging_Adjusted_Penalty>  (105) 
0

>  <i_epik_Tot_Q>  (105) 
0

>  <i_epik_Tot_abs_Q>  (105) 
0

>  <s_epik_Chemistry_Notes>  (105) 
This compound has an imine and may undergo hydrolysis.

>  <s_lp_Force_Field>  (105) 
OPLS3e

>  <r_lp_Energy>  (105) 
34.8946

>  <b_lp_Chiralities_Consistent>  (105) 
1

>  <s_lp_Variant>  (105) 
30:0-1

>  <s_i_glide_gridfile>  (105) 
pfpi4k_grid

>  <i_i_glide_lignum>  (105) 
1

>  <i_i_glide_rotatable_bonds>  (105) 
1

>  <r_i_docking_score>  (105) 
-2.9721

>  <r_i_glide_ligand_efficiency>  (105) 
-0.129222

>  <r_i_glide_ligand_efficiency_sa>  (105) 
-0.36749

>  <r_i_glide_ligand_efficiency_ln>  (105) 
-0.718682

>  <r_i_glide_gscore>  (105) 
-2.9721

>  <r_i_glide_lipo>  (105) 
-0.398456

>  <r_i_glide_hbond>  (105) 
0

>  <r_i_glide_metal>  (105) 
-0

>  <r_i_glide_rewards>  (105) 
-1.31903

>  <r_i_glide_evdw>  (105) 
-24.1228

>  <r_i_glide_ecoul>  (105) 
-1.49007

>  <r_i_glide_erotb>  (105) 
0.191265

>  <r_i_glide_esite>  (105) 
-0.0162325

>  <r_i_glide_emodel>  (105) 
-30.551

>  <r_i_glide_energy>  (105) 
-25.6128

>  <r_i_glide_einternal>  (105) 
0.770737

>  <r_i_glide_intrahb_reward>  (105) 
-0

>  <i_i_glide_confnum>  (105) 
2

>  <i_i_glide_posenum>  (105) 
21

>  <r_i_glide_eff_state_penalty>  (105) 
0

>  <ligand_id>  (105) 
30

>  <original_smiles>  (105) 
Cn1cc(C2=NC=C3CCC45C(=O)C(C)(C)C4C5CC3O2)cn1

>  <smiles>  (105) 
[H]C1=C2C([H])([H])C([H])([H])C34C(=O)C(C([H])([H])[H])(C([H])([H])[H])C3([H])C4([H])C([H])([H])C2([H])OC(c2c([H])nn(C([H])([H])[H])c2[H])=N1

$$$$
30:0:2
     RDKit          3D

 44 48  0  0  1  0  0  0  0  0999 V2000
   -1.8382    2.6057    2.8997 C   0  0  0  0  0  0  0  0  0  0  0  0
   -0.9982    1.4693    3.2030 N   0  0  0  0  0  0  0  0  0  0  0  0
    0.1835    1.0912    2.5951 C   0  0  0  0  0  0  0  0  0  0  0  0
    0.6337   -0.0436    3.2161 C   0  0  0  0  0  0  0  0  0  0  0  0
    1.8507   -0.8071    2.9166 C   0  0  0  0  0  0  0  0  0  0  0  0
    1.9094   -2.0477    3.2479 N   0  0  0  0  0  0  0  0  0  0  0  0
    3.0302   -2.8156    3.0068 C   0  0  0  0  0  0  0  0  0  0  0  0
    4.0996   -2.3200    2.3464 C   0  0  0  0  0  0  0  0  0  0  0  0
    5.3672   -3.1323    2.1213 C   0  0  0  0  0  0  0  0  0  0  0  0
    5.4815   -3.7545    0.7024 C   0  0  0  0  0  0  0  0  0  0  0  0
    4.8144   -2.8740   -0.3407 C   0  0  2  0  0  0  0  0  0  0  0  0
    3.5889   -3.3203   -1.0532 C   0  0  0  0  0  0  0  0  0  0  0  0
    2.6489   -3.9783   -0.5741 O   0  0  0  0  0  0  0  0  0  0  0  0
    4.0104   -2.6610   -2.4059 C   0  0  0  0  0  0  0  0  0  0  0  0
    4.3090   -3.6775   -3.5075 C   0  0  0  0  0  0  0  0  0  0  0  0
    3.1244   -1.5218   -2.9069 C   0  0  0  0  0  0  0  0  0  0  0  0
    5.2495   -2.1894   -1.6184 C   0  0  1  0  0  0  0  0  0  0  0  0
    5.1911   -1.4325   -0.2923 C   0  0  1  0  0  0  0  0  0  0  0  0
    4.0914   -0.6403    0.3535 C   0  0  0  0  0  0  0  0  0  0  0  0
    4.0634   -0.8596    1.8787 C   0  0  1  0  0  0  0  0  0  0  0  0
    2.9077   -0.1438    2.3211 O   0  0  0  0  0  0  0  0  0  0  0  0
   -0.3835   -0.2826    4.1922 C   0  0  0  0  0  0  0  0  0  0  0  0
   -1.3362    0.6316    4.1969 N   0  0  0  0  0  0  0  0  0  0  0  0
   -1.3893    3.1860    2.0964 H   0  0  0  0  0  0  0  0  0  0  0  0
   -1.9409    3.2469    3.7790 H   0  0  0  0  0  0  0  0  0  0  0  0
   -2.8269    2.2730    2.5742 H   0  0  0  0  0  0  0  0  0  0  0  0
    0.6086    1.6587    1.7809 H   0  0  0  0  0  0  0  0  0  0  0  0
    2.9970   -3.8286    3.3829 H   0  0  0  0  0  0  0  0  0  0  0  0
    6.2086   -2.4613    2.2988 H   0  0  0  0  0  0  0  0  0  0  0  0
    5.4359   -3.9103    2.8804 H   0  0  0  0  0  0  0  0  0  0  0  0
    6.5260   -3.8846    0.4293 H   0  0  0  0  0  0  0  0  0  0  0  0
    5.0155   -4.7410    0.6924 H   0  0  0  0  0  0  0  0  0  0  0  0
    4.8865   -3.2475   -4.3219 H   0  0  0  0  0  0  0  0  0  0  0  0
    3.3833   -4.0402   -3.9505 H   0  0  0  0  0  0  0  0  0  0  0  0
    4.8571   -4.5480   -3.1492 H   0  0  0  0  0  0  0  0  0  0  0  0
    3.6347   -0.9380   -3.6700 H   0  0  0  0  0  0  0  0  0  0  0  0
    2.8598   -0.8141   -2.1296 H   0  0  0  0  0  0  0  0  0  0  0  0
    2.2010   -1.8861   -3.3561 H   0  0  0  0  0  0  0  0  0  0  0  0
    6.2176   -2.4510   -2.0353 H   0  0  0  0  0  0  0  0  0  0  0  0
    6.1612   -1.1982    0.1300 H   0  0  0  0  0  0  0  0  0  0  0  0
    4.2197    0.4176    0.1390 H   0  0  0  0  0  0  0  0  0  0  0  0
    3.1226   -0.9480   -0.0369 H   0  0  0  0  0  0  0  0  0  0  0  0
    4.9494   -0.3926    2.3181 H   0  0  0  0  0  0  0  0  0  0  0  0
   -0.4489   -1.0796    4.9130 H   0  0  0  0  0  0  0  0  0  0  0  0
  1  2  1  0
  1 24  1  0
  1 25  1  0
  1 26  1  0
  2 23  1  0
  2  3  1  0
  3  4  2  0
  3 27  1  0
  4  5  1  0
  4 22  1  0
  5 21  1  0
  5  6  2  0
  6  7  1  0
  7  8  2  0
  7 28  1  0
  8 20  1  0
  8  9  1  0
  9 10  1  0
  9 29  1  0
  9 30  1  0
 11 10  1  1
 10 31  1  0
 10 32  1  0
 11 17  1  0
 11 18  1  0
 11 12  1  0
 12 13  2  0
 12 14  1  0
 14 15  1  0
 14 16  1  0
 14 17  1  0
 15 33  1  0
 15 34  1  0
 15 35  1  0
 16 36  1  0
 16 37  1  0
 16 38  1  0
 17 18  1  0
 17 39  1  6
 18 19  1  0
 18 40  1  1
 19 20  1  0
 19 41  1  0
 19 42  1  0
 20 21  1  0
 20 43  1  1
 22 23  2  0
 22 44  1  0
M  END
>  <i_m_ct_stereo_status>  (106) 
1

>  <s_m_source_file>  (106) 
/var/tmp/pbs.5076255.sched01/tmppnbbzaq8/41bb87crku.sdf

>  <i_m_source_file_index>  (106) 
1

>  <i_lp_mmshare_version>  (106) 
48012

>  <i_f3d_flags>  (106) 
0

>  <s_epik_input>  (106) 
W0NIM11uMVtjSF1jKFtjSF1uMSlDKE8yKT1OW0NIXT1DKFtDSDJdW0NIMl0zKVtDQEhdMltDSDJdW0NAQEhdNFtDQEBIXShbQ0BAXTM0NSlDKEM1PU8pKFtDSDNdKVtDSDNd

>  <s_epik_cmdline>  (106) 
J2VwaWtfcHl0aG9uJywgJy1waHQnLCAnMi4wJywgJy1waCcsICc3LjAnLCAnLXRuJywgJzgnLCAnLW1hJywgJzIwMCcsICctaW1hZScsICc8aW5maWxlLm1hZT4nLCAnLW9tYWUnLCAnPG91dGZpbGUubWFlPic=

>  <r_lp_tautomer_probability>  (106) 
1

>  <r_epik_Ionization_Penalty>  (106) 
2.35381e-06

>  <r_epik_Ionization_Penalty_Charging>  (106) 
0

>  <r_epik_Ionization_Penalty_Neutral>  (106) 
2.35381e-06

>  <r_epik_State_Penalty>  (106) 
-0

>  <r_epik_Charging_Adjusted_Penalty>  (106) 
0

>  <i_epik_Tot_Q>  (106) 
0

>  <i_epik_Tot_abs_Q>  (106) 
0

>  <s_epik_Chemistry_Notes>  (106) 
This compound has an imine and may undergo hydrolysis.

>  <s_lp_Force_Field>  (106) 
OPLS3e

>  <r_lp_Energy>  (106) 
34.8946

>  <b_lp_Chiralities_Consistent>  (106) 
1

>  <s_lp_Variant>  (106) 
30:0-1

>  <s_i_glide_gridfile>  (106) 
pfpi4k_grid

>  <i_i_glide_lignum>  (106) 
1

>  <i_i_glide_rotatable_bonds>  (106) 
1

>  <r_i_docking_score>  (106) 
-2.71974

>  <r_i_glide_ligand_efficiency>  (106) 
-0.11825

>  <r_i_glide_ligand_efficiency_sa>  (106) 
-0.336286

>  <r_i_glide_ligand_efficiency_ln>  (106) 
-0.657658

>  <r_i_glide_gscore>  (106) 
-2.71974

>  <r_i_glide_lipo>  (106) 
-0.260089

>  <r_i_glide_hbond>  (106) 
0

>  <r_i_glide_metal>  (106) 
-0

>  <r_i_glide_rewards>  (106) 
-1.34805

>  <r_i_glide_evdw>  (106) 
-27.2354

>  <r_i_glide_ecoul>  (106) 
0.734885

>  <r_i_glide_erotb>  (106) 
0.191265

>  <r_i_glide_esite>  (106) 
-0.0513333

>  <r_i_glide_emodel>  (106) 
-30.9812

>  <r_i_glide_energy>  (106) 
-26.5005

>  <r_i_glide_einternal>  (106) 
0.859404

>  <r_i_glide_intrahb_reward>  (106) 
-0

>  <i_i_glide_confnum>  (106) 
3

>  <i_i_glide_posenum>  (106) 
17

>  <r_i_glide_eff_state_penalty>  (106) 
0

>  <ligand_id>  (106) 
30

>  <original_smiles>  (106) 
Cn1cc(C2=NC=C3CCC45C(=O)C(C)(C)C4C5CC3O2)cn1

>  <smiles>  (106) 
[H]C1=C2C([H])([H])C([H])([H])C34C(=O)C(C([H])([H])[H])(C([H])([H])[H])C3([H])C4([H])C([H])([H])C2([H])OC(c2c([H])nn(C([H])([H])[H])c2[H])=N1

$$$$
31:0:0
     RDKit          3D

 67 72  0  0  1  0  0  0  0  0999 V2000
    0.2159   -4.4552    5.7138 C   0  0  0  0  0  0  0  0  0  0  0  0
    1.2045   -4.2189    4.5885 C   0  0  0  0  0  0  0  0  0  0  0  0
    2.0596   -5.0541    4.3063 O   0  0  0  0  0  0  0  0  0  0  0  0
    1.0351   -3.0051    4.0182 O   0  0  0  0  0  0  0  0  0  0  0  0
    2.0185   -2.3651    3.1885 C   0  0  2  0  0  0  0  0  0  0  0  0
    2.6350   -3.2472    2.0799 C   0  0  0  0  0  0  0  0  0  0  0  0
    3.4707   -2.4326    1.0663 C   0  0  1  0  0  0  0  0  0  0  0  0
    4.6519   -1.7352    1.8148 C   0  0  1  0  0  0  0  0  0  0  0  0
    5.4853   -0.8355    0.8690 C   0  0  1  0  0  0  0  0  0  0  0  0
    6.8669   -1.0549    1.0892 O   0  0  0  0  0  0  0  0  0  0  0  0
    5.1998   -1.0856   -0.6198 C   0  0  0  0  0  0  0  0  0  0  0  0
    5.1228   -2.5956   -0.9260 C   0  0  2  0  0  0  0  0  0  0  0  0
    5.1826   -2.8912   -2.4419 C   0  0  0  0  0  0  0  0  0  0  0  0
    3.8461   -2.6919   -3.1486 C   0  0  0  0  0  0  0  0  0  0  0  0
    3.8271   -2.2512   -4.2997 O   0  0  0  0  0  0  0  0  0  0  0  0
    2.6515   -3.1285   -2.4238 C   0  0  0  0  0  0  0  0  0  0  0  0
    2.7124   -3.4414   -1.1103 C   0  0  0  0  0  0  0  0  0  0  0  0
    3.9226   -3.2843   -0.1859 C   0  0  2  0  0  0  0  0  0  0  0  0
    4.3883   -4.7069    0.2086 C   0  0  0  0  0  0  0  0  0  0  0  0
    4.1936   -0.9611    3.0782 C   0  0  1  0  0  0  0  0  0  0  0  0
    3.3689    0.3324    2.9680 C   0  0  0  0  0  0  0  0  0  0  0  0
    2.6779   -0.0745    4.2706 C   0  0  1  0  0  0  0  0  0  0  0  0
    3.2118    0.5689    5.5363 C   0  0  0  0  0  0  0  0  0  0  0  0
    2.2084    1.1441    6.1819 C   0  0  0  0  0  0  0  0  0  0  0  0
    2.1506    1.8151    7.5414 C   0  0  0  0  0  0  0  0  0  0  0  0
    1.0534    1.1772    8.4245 C   0  0  0  0  0  0  0  0  0  0  0  0
   -0.2554    0.9700    7.6492 C   0  0  0  0  0  0  0  0  0  0  0  0
   -1.3520    1.2977    8.1115 O   0  0  0  0  0  0  0  0  0  0  0  0
   -0.1436    0.2929    6.2879 C   0  0  0  0  0  0  0  0  0  0  0  0
    0.9257    0.9717    5.4154 C   0  0  2  0  0  0  0  0  0  0  0  0
    1.2640    0.1611    4.2830 O   0  0  0  0  0  0  0  0  0  0  0  0
    3.0859   -1.5477    3.9833 C   0  0  1  0  0  0  0  0  0  0  0  0
    3.6156   -2.3560    5.1756 C   0  0  0  0  0  0  0  0  0  0  0  0
    0.2426   -3.6257    6.4247 H   0  0  0  0  0  0  0  0  0  0  0  0
    0.5003   -5.3657    6.2359 H   0  0  0  0  0  0  0  0  0  0  0  0
   -0.7931   -4.5738    5.3250 H   0  0  0  0  0  0  0  0  0  0  0  0
    1.4209   -1.6403    2.6334 H   0  0  0  0  0  0  0  0  0  0  0  0
    3.2886   -3.9945    2.5339 H   0  0  0  0  0  0  0  0  0  0  0  0
    1.8266   -3.7703    1.5686 H   0  0  0  0  0  0  0  0  0  0  0  0
    2.8353   -1.6278    0.6819 H   0  0  0  0  0  0  0  0  0  0  0  0
    5.2985   -2.5478    2.1477 H   0  0  0  0  0  0  0  0  0  0  0  0
    5.2845    0.2107    1.0740 H   0  0  0  0  0  0  0  0  0  0  0  0
    7.2782   -0.2107    1.2868 H   0  0  0  0  0  0  0  0  0  0  0  0
    4.2577   -0.5974   -0.8911 H   0  0  0  0  0  0  0  0  0  0  0  0
    5.9683   -0.6126   -1.2294 H   0  0  0  0  0  0  0  0  0  0  0  0
    6.0519   -3.0112   -0.5275 H   0  0  0  0  0  0  0  0  0  0  0  0
    5.9209   -2.2527   -2.9179 H   0  0  0  0  0  0  0  0  0  0  0  0
    5.5161   -3.9161   -2.6136 H   0  0  0  0  0  0  0  0  0  0  0  0
    1.7397   -3.2809   -2.9814 H   0  0  0  0  0  0  0  0  0  0  0  0
    1.8176   -3.8254   -0.6414 H   0  0  0  0  0  0  0  0  0  0  0  0
    5.1752   -4.6886    0.9641 H   0  0  0  0  0  0  0  0  0  0  0  0
    4.7791   -5.2554   -0.6518 H   0  0  0  0  0  0  0  0  0  0  0  0
    3.5702   -5.3070    0.6064 H   0  0  0  0  0  0  0  0  0  0  0  0
    5.0611   -0.7286    3.7009 H   0  0  0  0  0  0  0  0  0  0  0  0
    3.9363    1.2579    3.0421 H   0  0  0  0  0  0  0  0  0  0  0  0
    2.6914    0.3438    2.1098 H   0  0  0  0  0  0  0  0  0  0  0  0
    4.2342    0.5210    5.8815 H   0  0  0  0  0  0  0  0  0  0  0  0
    3.1275    1.7776    8.0342 H   0  0  0  0  0  0  0  0  0  0  0  0
    1.9119    2.8681    7.3891 H   0  0  0  0  0  0  0  0  0  0  0  0
    1.3868    0.1993    8.7674 H   0  0  0  0  0  0  0  0  0  0  0  0
    0.8742    1.7699    9.3177 H   0  0  0  0  0  0  0  0  0  0  0  0
    0.1294   -0.7471    6.4600 H   0  0  0  0  0  0  0  0  0  0  0  0
   -1.1091    0.2960    5.7804 H   0  0  0  0  0  0  0  0  0  0  0  0
    0.5868    1.9524    5.0808 H   0  0  0  0  0  0  0  0  0  0  0  0
    4.4614   -1.8675    5.6672 H   0  0  0  0  0  0  0  0  0  0  0  0
    3.9611   -3.3383    4.8535 H   0  0  0  0  0  0  0  0  0  0  0  0
    2.8448   -2.4809    5.9379 H   0  0  0  0  0  0  0  0  0  0  0  0
  1  2  1  0
  1 34  1  0
  1 35  1  0
  1 36  1  0
  2  3  2  0
  2  4  1  0
  4  5  1  0
  5 32  1  0
  5  6  1  0
  5 37  1  6
  6  7  1  0
  6 38  1  0
  6 39  1  0
  7 18  1  0
  7  8  1  0
  7 40  1  6
  8  9  1  0
  8 20  1  0
  8 41  1  1
  9 10  1  0
  9 11  1  0
  9 42  1  1
 10 43  1  0
 11 12  1  0
 11 44  1  0
 11 45  1  0
 12 18  1  0
 12 13  1  0
 12 46  1  1
 13 14  1  0
 13 47  1  0
 13 48  1  0
 14 15  2  0
 14 16  1  0
 16 17  2  0
 16 49  1  0
 17 18  1  0
 17 50  1  0
 18 19  1  1
 19 51  1  0
 19 52  1  0
 19 53  1  0
 20 32  1  0
 20 21  1  0
 20 54  1  1
 21 22  1  0
 21 55  1  0
 21 56  1  0
 22 31  1  6
 22 23  1  0
 22 32  1  0
 23 24  2  0
 23 57  1  0
 24 30  1  0
 24 25  1  0
 25 26  1  0
 25 58  1  0
 25 59  1  0
 26 27  1  0
 26 60  1  0
 26 61  1  0
 27 28  2  0
 27 29  1  0
 29 30  1  0
 29 62  1  0
 29 63  1  0
 30 31  1  0
 30 64  1  6
 32 33  1  1
 33 65  1  0
 33 66  1  0
 33 67  1  0
M  END
>  <i_m_ct_stereo_status>  (107) 
1

>  <s_m_source_file>  (107) 
/var/tmp/pbs.5076255.sched01/tmppnbbzaq8/41bb87crku.sdf

>  <i_m_source_file_index>  (107) 
2

>  <i_lp_mmshare_version>  (107) 
48012

>  <i_f3d_flags>  (107) 
0

>  <s_epik_input>  (107) 
W0NIXTE9W0NIXUMoPU8pW0NIMl1bQ0BASF0oW0NIMl1bQ0BASF0yW09IXSlbQ0BAXTEoW0NIM10pW0NAQEhdKFtDSDJdW0NASF0zT0MoPU8pW0NIM10pW0NAQEhdMltDQEBIXShbQ0gyXTQpW0NAQF0zKFtDSDNdKVtDQEBdNDVbQ0hdPUM2W0NAQEhdKE81KVtDSDJdQyg9TylbQ0gyXVtDSDJdNg==

>  <s_epik_cmdline>  (107) 
J2VwaWtfcHl0aG9uJywgJy1waHQnLCAnMi4wJywgJy1waCcsICc3LjAnLCAnLXRuJywgJzgnLCAnLW1hJywgJzIwMCcsICctaW1hZScsICc8aW5maWxlLm1hZT4nLCAnLW9tYWUnLCAnPG91dGZpbGUubWFlPic=

>  <r_lp_tautomer_probability>  (107) 
1

>  <r_epik_Ionization_Penalty>  (107) 
6.16086e-07

>  <r_epik_Ionization_Penalty_Charging>  (107) 
0

>  <r_epik_Ionization_Penalty_Neutral>  (107) 
6.16086e-07

>  <r_epik_State_Penalty>  (107) 
-0

>  <r_epik_Charging_Adjusted_Penalty>  (107) 
0

>  <i_epik_Tot_Q>  (107) 
0

>  <i_epik_Tot_abs_Q>  (107) 
0

>  <s_epik_Chemistry_Notes>  (107) 
This compound has an ester and may undergo hydrolysis at high or low pH.

>  <s_lp_Force_Field>  (107) 
OPLS3e

>  <r_lp_Energy>  (107) 
27.5385

>  <b_lp_Chiralities_Consistent>  (107) 
1

>  <s_lp_Variant>  (107) 
31:0-1

>  <s_i_glide_gridfile>  (107) 
pfpi4k_grid

>  <i_i_glide_lignum>  (107) 
2

>  <i_i_glide_rotatable_bonds>  (107) 
3

>  <r_i_docking_score>  (107) 
-3.88863

>  <r_i_glide_ligand_efficiency>  (107) 
-0.117837

>  <r_i_glide_ligand_efficiency_sa>  (107) 
-0.377967

>  <r_i_glide_ligand_efficiency_ln>  (107) 
-0.86481

>  <r_i_glide_gscore>  (107) 
-3.88863

>  <r_i_glide_lipo>  (107) 
-0.457459

>  <r_i_glide_hbond>  (107) 
-0.643369

>  <r_i_glide_metal>  (107) 
-0

>  <r_i_glide_rewards>  (107) 
-0.470858

>  <r_i_glide_evdw>  (107) 
-24.3561

>  <r_i_glide_ecoul>  (107) 
-7.77138

>  <r_i_glide_erotb>  (107) 
0.0971929

>  <r_i_glide_esite>  (107) 
-0.0306239

>  <r_i_glide_emodel>  (107) 
-35.6524

>  <r_i_glide_energy>  (107) 
-32.1274

>  <r_i_glide_einternal>  (107) 
6.66963

>  <r_i_glide_intrahb_reward>  (107) 
-0

>  <i_i_glide_confnum>  (107) 
4

>  <i_i_glide_posenum>  (107) 
22

>  <r_i_glide_eff_state_penalty>  (107) 
0

>  <ligand_id>  (107) 
31

>  <original_smiles>  (107) 
CC(=O)OC1CC2C(C(O)CC3CC(=O)C=CC32C)C2CC3(C=C4CCC(=O)CC4O3)C12C

>  <smiles>  (107) 
[H]OC1([H])C([H])([H])C2([H])C([H])([H])C(=O)C([H])=C([H])C2(C([H])([H])[H])C2([H])C([H])([H])C([H])(OC(=O)C([H])([H])[H])C3(C([H])([H])[H])C4(OC5([H])C(=C4[H])C([H])([H])C([H])([H])C(=O)C5([H])[H])C([H])([H])C3([H])C12[H]

$$$$
31:0:1
     RDKit          3D

 67 72  0  0  1  0  0  0  0  0999 V2000
    0.8983    0.4082    8.5215 C   0  0  0  0  0  0  0  0  0  0  0  0
    0.8655   -0.1674    7.1123 C   0  0  0  0  0  0  0  0  0  0  0  0
   -0.1369   -0.7372    6.6801 O   0  0  0  0  0  0  0  0  0  0  0  0
    2.0281    0.0236    6.4548 O   0  0  0  0  0  0  0  0  0  0  0  0
    2.1643   -0.3463    5.0820 C   0  0  2  0  0  0  0  0  0  0  0  0
    2.7697   -1.7543    4.9260 C   0  0  0  0  0  0  0  0  0  0  0  0
    2.7439   -2.2092    3.4361 C   0  0  1  0  0  0  0  0  0  0  0  0
    3.5980   -1.2390    2.5655 C   0  0  1  0  0  0  0  0  0  0  0  0
    3.5267   -1.5654    1.0489 C   0  0  1  0  0  0  0  0  0  0  0  0
    4.8296   -1.5032    0.4992 O   0  0  0  0  0  0  0  0  0  0  0  0
    2.9122   -2.9429    0.7499 C   0  0  0  0  0  0  0  0  0  0  0  0
    3.4570   -4.0218    1.7079 C   0  0  2  0  0  0  0  0  0  0  0  0
    3.1291   -5.4571    1.2254 C   0  0  0  0  0  0  0  0  0  0  0  0
    1.7336   -5.9150    1.6247 C   0  0  0  0  0  0  0  0  0  0  0  0
    1.0435   -6.5626    0.8348 O   0  0  0  0  0  0  0  0  0  0  0  0
    1.2493   -5.5293    2.9483 C   0  0  0  0  0  0  0  0  0  0  0  0
    1.8711   -4.5669    3.6578 C   0  0  0  0  0  0  0  0  0  0  0  0
    3.0802   -3.7357    3.2112 C   0  0  2  0  0  0  0  0  0  0  0  0
    4.2678   -4.1891    4.0851 C   0  0  0  0  0  0  0  0  0  0  0  0
    3.2789    0.2515    2.8340 C   0  0  1  0  0  0  0  0  0  0  0  0
    1.9618    0.8935    2.3673 C   0  0  0  0  0  0  0  0  0  0  0  0
    2.0304    1.7902    3.6083 C   0  0  1  0  0  0  0  0  0  0  0  0
    2.5891    3.1836    3.3954 C   0  0  0  0  0  0  0  0  0  0  0  0
    1.7200    4.0672    3.8603 C   0  0  0  0  0  0  0  0  0  0  0  0
    1.8201    5.5746    3.9984 C   0  0  0  0  0  0  0  0  0  0  0  0
    1.5536    6.0026    5.4604 C   0  0  0  0  0  0  0  0  0  0  0  0
    0.3297    5.2935    6.0545 C   0  0  0  0  0  0  0  0  0  0  0  0
   -0.5537    5.9088    6.6515 O   0  0  0  0  0  0  0  0  0  0  0  0
    0.2722    3.7726    5.8744 C   0  0  0  0  0  0  0  0  0  0  0  0
    0.5083    3.3768    4.4057 C   0  0  2  0  0  0  0  0  0  0  0  0
    0.7746    1.9721    4.2801 O   0  0  0  0  0  0  0  0  0  0  0  0
    2.9408    0.7217    4.2737 C   0  0  1  0  0  0  0  0  0  0  0  0
    4.1449    1.2201    5.0884 C   0  0  0  0  0  0  0  0  0  0  0  0
    1.7651    0.0251    9.0584 H   0  0  0  0  0  0  0  0  0  0  0  0
   -0.0009    0.1331    9.0712 H   0  0  0  0  0  0  0  0  0  0  0  0
    0.9616    1.4957    8.4843 H   0  0  0  0  0  0  0  0  0  0  0  0
    1.1620   -0.4135    4.6539 H   0  0  0  0  0  0  0  0  0  0  0  0
    3.7919   -1.7536    5.3133 H   0  0  0  0  0  0  0  0  0  0  0  0
    2.2012   -2.4462    5.5473 H   0  0  0  0  0  0  0  0  0  0  0  0
    1.7145   -2.0751    3.0979 H   0  0  0  0  0  0  0  0  0  0  0  0
    4.6266   -1.4153    2.8905 H   0  0  0  0  0  0  0  0  0  0  0  0
    2.9275   -0.8252    0.5241 H   0  0  0  0  0  0  0  0  0  0  0  0
    5.1206   -0.6040    0.5180 H   0  0  0  0  0  0  0  0  0  0  0  0
    1.8273   -2.8693    0.8433 H   0  0  0  0  0  0  0  0  0  0  0  0
    3.1102   -3.2096   -0.2914 H   0  0  0  0  0  0  0  0  0  0  0  0
    4.5426   -3.9484    1.6216 H   0  0  0  0  0  0  0  0  0  0  0  0
    3.2231   -5.5210    0.1406 H   0  0  0  0  0  0  0  0  0  0  0  0
    3.8456   -6.1672    1.6394 H   0  0  0  0  0  0  0  0  0  0  0  0
    0.3924   -6.0515    3.3475 H   0  0  0  0  0  0  0  0  0  0  0  0
    1.4695   -4.3304    4.6341 H   0  0  0  0  0  0  0  0  0  0  0  0
    5.1483   -3.5683    3.9255 H   0  0  0  0  0  0  0  0  0  0  0  0
    4.5495   -5.2196    3.8640 H   0  0  0  0  0  0  0  0  0  0  0  0
    4.0272   -4.1553    5.1481 H   0  0  0  0  0  0  0  0  0  0  0  0
    4.0846    0.8752    2.4432 H   0  0  0  0  0  0  0  0  0  0  0  0
    2.0200    1.4199    1.4151 H   0  0  0  0  0  0  0  0  0  0  0  0
    1.1156    0.2034    2.3878 H   0  0  0  0  0  0  0  0  0  0  0  0
    3.5499    3.4192    2.9691 H   0  0  0  0  0  0  0  0  0  0  0  0
    2.7919    5.9336    3.6520 H   0  0  0  0  0  0  0  0  0  0  0  0
    1.0696    6.0265    3.3479 H   0  0  0  0  0  0  0  0  0  0  0  0
    2.4154    5.7500    6.0794 H   0  0  0  0  0  0  0  0  0  0  0  0
    1.4273    7.0830    5.5307 H   0  0  0  0  0  0  0  0  0  0  0  0
    1.0511    3.3376    6.5021 H   0  0  0  0  0  0  0  0  0  0  0  0
   -0.6816    3.3843    6.2307 H   0  0  0  0  0  0  0  0  0  0  0  0
   -0.3497    3.6368    3.7864 H   0  0  0  0  0  0  0  0  0  0  0  0
    4.7833    1.8590    4.4820 H   0  0  0  0  0  0  0  0  0  0  0  0
    4.7692    0.3988    5.4388 H   0  0  0  0  0  0  0  0  0  0  0  0
    3.8379    1.8058    5.9546 H   0  0  0  0  0  0  0  0  0  0  0  0
  1  2  1  0
  1 34  1  0
  1 35  1  0
  1 36  1  0
  2  3  2  0
  2  4  1  0
  4  5  1  0
  5 32  1  0
  5  6  1  0
  5 37  1  6
  6  7  1  0
  6 38  1  0
  6 39  1  0
  7 18  1  0
  7  8  1  0
  7 40  1  6
  8  9  1  0
  8 20  1  0
  8 41  1  1
  9 10  1  0
  9 11  1  0
  9 42  1  6
 10 43  1  0
 11 12  1  0
 11 44  1  0
 11 45  1  0
 12 18  1  0
 12 13  1  0
 12 46  1  1
 13 14  1  0
 13 47  1  0
 13 48  1  0
 14 15  2  0
 14 16  1  0
 16 17  2  0
 16 49  1  0
 17 18  1  0
 17 50  1  0
 18 19  1  1
 19 51  1  0
 19 52  1  0
 19 53  1  0
 20 32  1  0
 20 21  1  0
 20 54  1  6
 21 22  1  0
 21 55  1  0
 21 56  1  0
 22 31  1  1
 22 23  1  0
 22 32  1  0
 23 24  2  0
 23 57  1  0
 24 30  1  0
 24 25  1  0
 25 26  1  0
 25 58  1  0
 25 59  1  0
 26 27  1  0
 26 60  1  0
 26 61  1  0
 27 28  2  0
 27 29  1  0
 29 30  1  0
 29 62  1  0
 29 63  1  0
 30 31  1  0
 30 64  1  6
 32 33  1  1
 33 65  1  0
 33 66  1  0
 33 67  1  0
M  END
>  <i_m_ct_stereo_status>  (108) 
1

>  <s_m_source_file>  (108) 
/var/tmp/pbs.5076255.sched01/tmppnbbzaq8/41bb87crku.sdf

>  <i_m_source_file_index>  (108) 
2

>  <i_lp_mmshare_version>  (108) 
48012

>  <i_f3d_flags>  (108) 
0

>  <s_epik_input>  (108) 
W0NIXTE9W0NIXUMoPU8pW0NIMl1bQ0BASF0oW0NIMl1bQ0BASF0yW09IXSlbQ0BAXTEoW0NIM10pW0NAQEhdKFtDSDJdW0NASF0zT0MoPU8pW0NIM10pW0NAQEhdMltDQEBIXShbQ0gyXTQpW0NAQF0zKFtDSDNdKVtDQEBdNDVbQ0hdPUM2W0NAQEhdKE81KVtDSDJdQyg9TylbQ0gyXVtDSDJdNg==

>  <s_epik_cmdline>  (108) 
J2VwaWtfcHl0aG9uJywgJy1waHQnLCAnMi4wJywgJy1waCcsICc3LjAnLCAnLXRuJywgJzgnLCAnLW1hJywgJzIwMCcsICctaW1hZScsICc8aW5maWxlLm1hZT4nLCAnLW9tYWUnLCAnPG91dGZpbGUubWFlPic=

>  <r_lp_tautomer_probability>  (108) 
1

>  <r_epik_Ionization_Penalty>  (108) 
6.16086e-07

>  <r_epik_Ionization_Penalty_Charging>  (108) 
0

>  <r_epik_Ionization_Penalty_Neutral>  (108) 
6.16086e-07

>  <r_epik_State_Penalty>  (108) 
-0

>  <r_epik_Charging_Adjusted_Penalty>  (108) 
0

>  <i_epik_Tot_Q>  (108) 
0

>  <i_epik_Tot_abs_Q>  (108) 
0

>  <s_epik_Chemistry_Notes>  (108) 
This compound has an ester and may undergo hydrolysis at high or low pH.

>  <s_lp_Force_Field>  (108) 
OPLS3e

>  <r_lp_Energy>  (108) 
27.5385

>  <b_lp_Chiralities_Consistent>  (108) 
1

>  <s_lp_Variant>  (108) 
31:0-1

>  <s_i_glide_gridfile>  (108) 
pfpi4k_grid

>  <i_i_glide_lignum>  (108) 
2

>  <i_i_glide_rotatable_bonds>  (108) 
3

>  <r_i_docking_score>  (108) 
-2.13453

>  <r_i_glide_ligand_efficiency>  (108) 
-0.0646827

>  <r_i_glide_ligand_efficiency_sa>  (108) 
-0.207472

>  <r_i_glide_ligand_efficiency_ln>  (108) 
-0.474708

>  <r_i_glide_gscore>  (108) 
-2.13453

>  <r_i_glide_lipo>  (108) 
-0.0255599

>  <r_i_glide_hbond>  (108) 
-0.08533

>  <r_i_glide_metal>  (108) 
-0

>  <r_i_glide_rewards>  (108) 
-0.30985

>  <r_i_glide_evdw>  (108) 
-20.1314

>  <r_i_glide_ecoul>  (108) 
-4.86311

>  <r_i_glide_erotb>  (108) 
0.0971929

>  <r_i_glide_esite>  (108) 
-0.0749438

>  <r_i_glide_emodel>  (108) 
-28.611

>  <r_i_glide_energy>  (108) 
-24.9946

>  <r_i_glide_einternal>  (108) 
0.438199

>  <r_i_glide_intrahb_reward>  (108) 
-0

>  <i_i_glide_confnum>  (108) 
1

>  <i_i_glide_posenum>  (108) 
10

>  <r_i_glide_eff_state_penalty>  (108) 
0

>  <ligand_id>  (108) 
31

>  <original_smiles>  (108) 
CC(=O)OC1CC2C(C(O)CC3CC(=O)C=CC32C)C2CC3(C=C4CCC(=O)CC4O3)C12C

>  <smiles>  (108) 
[H]OC1([H])C([H])([H])C2([H])C([H])([H])C(=O)C([H])=C([H])C2(C([H])([H])[H])C2([H])C([H])([H])C([H])(OC(=O)C([H])([H])[H])C3(C([H])([H])[H])C4(OC5([H])C(=C4[H])C([H])([H])C([H])([H])C(=O)C5([H])[H])C([H])([H])C3([H])C12[H]

$$$$
31:0:2
     RDKit          3D

 67 72  0  0  1  0  0  0  0  0999 V2000
   -1.0518    0.8372    7.2225 C   0  0  0  0  0  0  0  0  0  0  0  0
   -0.8902   -0.2446    6.1608 C   0  0  0  0  0  0  0  0  0  0  0  0
   -1.8038   -0.5096    5.3809 O   0  0  0  0  0  0  0  0  0  0  0  0
    0.3087   -0.8556    6.2288 O   0  0  0  0  0  0  0  0  0  0  0  0
    0.7589   -1.6976    5.1656 C   0  0  2  0  0  0  0  0  0  0  0  0
    0.9787   -3.1593    5.5990 C   0  0  0  0  0  0  0  0  0  0  0  0
    1.2963   -4.0543    4.3632 C   0  0  1  0  0  0  0  0  0  0  0  0
    2.6009   -3.5636    3.6646 C   0  0  1  0  0  0  0  0  0  0  0  0
    2.9099   -4.3362    2.3543 C   0  0  1  0  0  0  0  0  0  0  0  0
    4.2803   -4.6804    2.3343 O   0  0  0  0  0  0  0  0  0  0  0  0
    2.0793   -5.6198    2.1835 C   0  0  0  0  0  0  0  0  0  0  0  0
    1.9966   -6.4126    3.5017 C   0  0  2  0  0  0  0  0  0  0  0  0
    1.4589   -7.8492    3.2790 C   0  0  0  0  0  0  0  0  0  0  0  0
   -0.0643   -7.9219    3.2255 C   0  0  0  0  0  0  0  0  0  0  0  0
   -0.6184   -8.7116    2.4698 O   0  0  0  0  0  0  0  0  0  0  0  0
   -0.8048   -7.0528    4.1377 C   0  0  0  0  0  0  0  0  0  0  0  0
   -0.1921   -6.0484    4.7899 C   0  0  0  0  0  0  0  0  0  0  0  0
    1.2693   -5.6097    4.6449 C   0  0  2  0  0  0  0  0  0  0  0  0
    1.9644   -5.9534    5.9779 C   0  0  0  0  0  0  0  0  0  0  0  0
    2.6283   -2.0344    3.4295 C   0  0  1  0  0  0  0  0  0  0  0  0
    1.7386   -1.3662    2.3654 C   0  0  0  0  0  0  0  0  0  0  0  0
    1.6591   -0.1477    3.2854 C   0  0  1  0  0  0  0  0  0  0  0  0
    2.6060    0.9935    2.9778 C   0  0  0  0  0  0  0  0  0  0  0  0
    1.8994    2.1079    2.8641 C   0  0  0  0  0  0  0  0  0  0  0  0
    2.3355    3.5502    2.6761 C   0  0  0  0  0  0  0  0  0  0  0  0
    1.7443    4.4591    3.7762 C   0  0  0  0  0  0  0  0  0  0  0  0
    0.2534    4.1809    4.0147 C   0  0  0  0  0  0  0  0  0  0  0  0
   -0.5781    5.0853    4.1126 O   0  0  0  0  0  0  0  0  0  0  0  0
   -0.1348    2.7106    4.1848 C   0  0  0  0  0  0  0  0  0  0  0  0
    0.4368    1.8375    3.0526 C   0  0  2  0  0  0  0  0  0  0  0  0
    0.3513    0.4392    3.3598 O   0  0  0  0  0  0  0  0  0  0  0  0
    2.0012   -1.0847    4.4775 C   0  0  1  0  0  0  0  0  0  0  0  0
    2.9859   -0.5557    5.5368 C   0  0  0  0  0  0  0  0  0  0  0  0
   -0.8623    0.4353    8.2180 H   0  0  0  0  0  0  0  0  0  0  0  0
   -2.0556    1.2637    7.1951 H   0  0  0  0  0  0  0  0  0  0  0  0
   -0.3404    1.6443    7.0470 H   0  0  0  0  0  0  0  0  0  0  0  0
   -0.0352   -1.7613    4.4174 H   0  0  0  0  0  0  0  0  0  0  0  0
    1.7920   -3.2066    6.3274 H   0  0  0  0  0  0  0  0  0  0  0  0
    0.0807   -3.5129    6.1063 H   0  0  0  0  0  0  0  0  0  0  0  0
    0.4963   -3.8667    3.6445 H   0  0  0  0  0  0  0  0  0  0  0  0
    3.3931   -3.7987    4.3789 H   0  0  0  0  0  0  0  0  0  0  0  0
    2.7271   -3.7059    1.4862 H   0  0  0  0  0  0  0  0  0  0  0  0
    4.7942   -3.8862    2.3451 H   0  0  0  0  0  0  0  0  0  0  0  0
    1.0714   -5.3666    1.8563 H   0  0  0  0  0  0  0  0  0  0  0  0
    2.5109   -6.2307    1.3865 H   0  0  0  0  0  0  0  0  0  0  0  0
    3.0365   -6.5530    3.8050 H   0  0  0  0  0  0  0  0  0  0  0  0
    1.8686   -8.2698    2.3599 H   0  0  0  0  0  0  0  0  0  0  0  0
    1.7918   -8.4995    4.0878 H   0  0  0  0  0  0  0  0  0  0  0  0
   -1.8496   -7.2792    4.2994 H   0  0  0  0  0  0  0  0  0  0  0  0
   -0.7866   -5.4658    5.4797 H   0  0  0  0  0  0  0  0  0  0  0  0
    2.9834   -5.5689    6.0156 H   0  0  0  0  0  0  0  0  0  0  0  0
    2.0159   -7.0335    6.1293 H   0  0  0  0  0  0  0  0  0  0  0  0
    1.4259   -5.5446    6.8321 H   0  0  0  0  0  0  0  0  0  0  0  0
    3.6510   -1.7087    3.2302 H   0  0  0  0  0  0  0  0  0  0  0  0
    2.2172   -1.1855    1.4031 H   0  0  0  0  0  0  0  0  0  0  0  0
    0.7699   -1.8543    2.2451 H   0  0  0  0  0  0  0  0  0  0  0  0
    3.6826    0.9093    2.9073 H   0  0  0  0  0  0  0  0  0  0  0  0
    3.4152    3.6282    2.6549 H   0  0  0  0  0  0  0  0  0  0  0  0
    1.9954    3.8816    1.6986 H   0  0  0  0  0  0  0  0  0  0  0  0
    2.2677    4.2758    4.7143 H   0  0  0  0  0  0  0  0  0  0  0  0
    1.8985    5.5088    3.5341 H   0  0  0  0  0  0  0  0  0  0  0  0
    0.2852    2.3886    5.1347 H   0  0  0  0  0  0  0  0  0  0  0  0
   -1.2166    2.6076    4.2520 H   0  0  0  0  0  0  0  0  0  0  0  0
   -0.0843    2.0347    2.1153 H   0  0  0  0  0  0  0  0  0  0  0  0
    3.9309   -0.2458    5.0860 H   0  0  0  0  0  0  0  0  0  0  0  0
    3.2290   -1.3166    6.2797 H   0  0  0  0  0  0  0  0  0  0  0  0
    2.5884    0.3135    6.0641 H   0  0  0  0  0  0  0  0  0  0  0  0
  1  2  1  0
  1 34  1  0
  1 35  1  0
  1 36  1  0
  2  3  2  0
  2  4  1  0
  4  5  1  0
  5 32  1  0
  5  6  1  0
  5 37  1  6
  6  7  1  0
  6 38  1  0
  6 39  1  0
  7 18  1  0
  7  8  1  0
  7 40  1  6
  8  9  1  0
  8 20  1  0
  8 41  1  1
  9 10  1  0
  9 11  1  0
  9 42  1  6
 10 43  1  0
 11 12  1  0
 11 44  1  0
 11 45  1  0
 12 18  1  0
 12 13  1  0
 12 46  1  1
 13 14  1  0
 13 47  1  0
 13 48  1  0
 14 15  2  0
 14 16  1  0
 16 17  2  0
 16 49  1  0
 17 18  1  0
 17 50  1  0
 18 19  1  1
 19 51  1  0
 19 52  1  0
 19 53  1  0
 20 32  1  0
 20 21  1  0
 20 54  1  6
 21 22  1  0
 21 55  1  0
 21 56  1  0
 22 31  1  1
 22 23  1  0
 22 32  1  0
 23 24  2  0
 23 57  1  0
 24 30  1  0
 24 25  1  0
 25 26  1  0
 25 58  1  0
 25 59  1  0
 26 27  1  0
 26 60  1  0
 26 61  1  0
 27 28  2  0
 27 29  1  0
 29 30  1  0
 29 62  1  0
 29 63  1  0
 30 31  1  0
 30 64  1  6
 32 33  1  1
 33 65  1  0
 33 66  1  0
 33 67  1  0
M  END
>  <i_m_ct_stereo_status>  (109) 
1

>  <s_m_source_file>  (109) 
/var/tmp/pbs.5076255.sched01/tmppnbbzaq8/41bb87crku.sdf

>  <i_m_source_file_index>  (109) 
2

>  <i_lp_mmshare_version>  (109) 
48012

>  <i_f3d_flags>  (109) 
0

>  <s_epik_input>  (109) 
W0NIXTE9W0NIXUMoPU8pW0NIMl1bQ0BASF0oW0NIMl1bQ0BASF0yW09IXSlbQ0BAXTEoW0NIM10pW0NAQEhdKFtDSDJdW0NASF0zT0MoPU8pW0NIM10pW0NAQEhdMltDQEBIXShbQ0gyXTQpW0NAQF0zKFtDSDNdKVtDQEBdNDVbQ0hdPUM2W0NAQEhdKE81KVtDSDJdQyg9TylbQ0gyXVtDSDJdNg==

>  <s_epik_cmdline>  (109) 
J2VwaWtfcHl0aG9uJywgJy1waHQnLCAnMi4wJywgJy1waCcsICc3LjAnLCAnLXRuJywgJzgnLCAnLW1hJywgJzIwMCcsICctaW1hZScsICc8aW5maWxlLm1hZT4nLCAnLW9tYWUnLCAnPG91dGZpbGUubWFlPic=

>  <r_lp_tautomer_probability>  (109) 
1

>  <r_epik_Ionization_Penalty>  (109) 
6.16086e-07

>  <r_epik_Ionization_Penalty_Charging>  (109) 
0

>  <r_epik_Ionization_Penalty_Neutral>  (109) 
6.16086e-07

>  <r_epik_State_Penalty>  (109) 
-0

>  <r_epik_Charging_Adjusted_Penalty>  (109) 
0

>  <i_epik_Tot_Q>  (109) 
0

>  <i_epik_Tot_abs_Q>  (109) 
0

>  <s_epik_Chemistry_Notes>  (109) 
This compound has an ester and may undergo hydrolysis at high or low pH.

>  <s_lp_Force_Field>  (109) 
OPLS3e

>  <r_lp_Energy>  (109) 
27.5385

>  <b_lp_Chiralities_Consistent>  (109) 
1

>  <s_lp_Variant>  (109) 
31:0-1

>  <s_i_glide_gridfile>  (109) 
pfpi4k_grid

>  <i_i_glide_lignum>  (109) 
2

>  <i_i_glide_rotatable_bonds>  (109) 
3

>  <r_i_docking_score>  (109) 
-1.98901

>  <r_i_glide_ligand_efficiency>  (109) 
-0.060273

>  <r_i_glide_ligand_efficiency_sa>  (109) 
-0.193328

>  <r_i_glide_ligand_efficiency_ln>  (109) 
-0.442346

>  <r_i_glide_gscore>  (109) 
-1.98901

>  <r_i_glide_lipo>  (109) 
-0.0104783

>  <r_i_glide_hbond>  (109) 
-0.0445894

>  <r_i_glide_metal>  (109) 
-0

>  <r_i_glide_rewards>  (109) 
-0.30985

>  <r_i_glide_evdw>  (109) 
-25.9265

>  <r_i_glide_ecoul>  (109) 
-1.64468

>  <r_i_glide_erotb>  (109) 
0.0971929

>  <r_i_glide_esite>  (109) 
-0.178257

>  <r_i_glide_emodel>  (109) 
-30.2464

>  <r_i_glide_energy>  (109) 
-27.5712

>  <r_i_glide_einternal>  (109) 
1.42104

>  <r_i_glide_intrahb_reward>  (109) 
-0

>  <i_i_glide_confnum>  (109) 
3

>  <i_i_glide_posenum>  (109) 
2

>  <r_i_glide_eff_state_penalty>  (109) 
0

>  <ligand_id>  (109) 
31

>  <original_smiles>  (109) 
CC(=O)OC1CC2C(C(O)CC3CC(=O)C=CC32C)C2CC3(C=C4CCC(=O)CC4O3)C12C

>  <smiles>  (109) 
[H]OC1([H])C([H])([H])C2([H])C([H])([H])C(=O)C([H])=C([H])C2(C([H])([H])[H])C2([H])C([H])([H])C([H])(OC(=O)C([H])([H])[H])C3(C([H])([H])[H])C4(OC5([H])C(=C4[H])C([H])([H])C([H])([H])C(=O)C5([H])[H])C([H])([H])C3([H])C12[H]

$$$$
32:0:0
     RDKit          3D

 44 48  0  0  1  0  0  0  0  0999 V2000
   -0.9837   -5.4558    8.0495 N   0  0  0  0  0  0  0  0  0  0  0  0
   -0.2066   -5.3713    6.9278 C   0  0  0  0  0  0  0  0  0  0  0  0
    0.4326   -6.5248    6.5172 N   0  0  0  0  0  0  0  0  0  0  0  0
    1.0278   -6.6328    5.1870 C   0  0  1  0  0  0  0  0  0  0  0  0
    0.2198   -7.5025    4.2117 C   0  0  0  0  0  0  0  0  0  0  0  0
    0.6788   -8.7878    3.8591 C   0  0  0  0  0  0  0  0  0  0  0  0
   -0.0836   -9.5741    2.9752 C   0  0  0  0  0  0  0  0  0  0  0  0
   -1.2885   -9.0492    2.4803 C   0  0  0  0  0  0  0  0  0  0  0  0
   -1.6672   -7.7597    2.8860 C   0  0  0  0  0  0  0  0  0  0  0  0
   -0.9339   -6.9872    3.7180 N   0  0  0  0  0  0  0  0  0  0  0  0
    1.3659   -5.2898    4.6391 N   0  0  0  0  0  0  0  0  0  0  0  0
    0.7635   -4.1056    5.2283 C   0  0  0  0  0  0  0  0  0  0  0  0
    1.0024   -2.9096    4.7793 N   0  0  0  0  0  0  0  0  0  0  0  0
    1.8824   -2.8068    3.7309 C   0  0  0  0  0  0  0  0  0  0  0  0
    2.5165   -3.8433    3.1567 C   0  0  0  0  0  0  0  0  0  0  0  0
    3.3411   -3.3084    2.1366 C   0  0  0  0  0  0  0  0  0  0  0  0
    3.2000   -1.9846    2.1217 N   0  0  0  0  0  0  0  0  0  0  0  0
    2.2576   -1.6751    3.0602 N   0  0  0  0  0  0  0  0  0  0  0  0
    1.8213   -0.2999    3.2903 C   0  0  0  0  0  0  0  0  0  0  0  0
    0.3264   -0.2027    3.6390 C   0  0  0  0  0  0  0  0  0  0  0  0
   -0.1936    1.1302    3.0972 C   0  0  0  0  0  0  0  0  0  0  0  0
    0.9383    1.7116    2.2436 C   0  0  0  0  0  0  0  0  0  0  0  0
    1.9724    0.5994    2.0633 C   0  0  0  0  0  0  0  0  0  0  0  0
    2.2804   -5.2214    3.6241 C   0  0  0  0  0  0  0  0  0  0  0  0
    2.8738   -6.1743    3.1210 O   0  0  0  0  0  0  0  0  0  0  0  0
   -0.0877   -4.2412    6.3260 N   0  0  0  0  0  0  0  0  0  0  0  0
   -1.4467   -4.6234    8.3820 H   0  0  0  0  0  0  0  0  0  0  0  0
   -1.5152   -6.2801    8.2777 H   0  0  0  0  0  0  0  0  0  0  0  0
    1.9638   -7.1583    5.3861 H   0  0  0  0  0  0  0  0  0  0  0  0
    1.6087   -9.1696    4.2503 H   0  0  0  0  0  0  0  0  0  0  0  0
    0.2410  -10.5660    2.6893 H   0  0  0  0  0  0  0  0  0  0  0  0
   -1.9034   -9.6259    1.8129 H   0  0  0  0  0  0  0  0  0  0  0  0
   -2.5857   -7.3343    2.5136 H   0  0  0  0  0  0  0  0  0  0  0  0
    4.0051   -3.7892    1.4316 H   0  0  0  0  0  0  0  0  0  0  0  0
    2.3908    0.1238    4.1151 H   0  0  0  0  0  0  0  0  0  0  0  0
   -0.1888   -1.0097    3.1321 H   0  0  0  0  0  0  0  0  0  0  0  0
    0.1264   -0.3138    4.7060 H   0  0  0  0  0  0  0  0  0  0  0  0
   -1.1016    0.9654    2.5112 H   0  0  0  0  0  0  0  0  0  0  0  0
   -0.4428    1.8093    3.9129 H   0  0  0  0  0  0  0  0  0  0  0  0
    0.5705    2.0689    1.2809 H   0  0  0  0  0  0  0  0  0  0  0  0
    1.4022    2.5474    2.7632 H   0  0  0  0  0  0  0  0  0  0  0  0
    2.9952    0.9747    1.9392 H   0  0  0  0  0  0  0  0  0  0  0  0
    1.7065    0.0429    1.1669 H   0  0  0  0  0  0  0  0  0  0  0  0
    0.5915   -7.3079    7.1329 H   0  0  0  0  0  0  0  0  0  0  0  0
  1  2  1  0
  1 27  1  0
  1 28  1  0
  2 26  2  0
  2  3  1  0
  3  4  1  0
  3 44  1  0
  4  5  1  0
  4 11  1  0
  4 29  1  1
  5 10  1  0
  5  6  2  0
  6  7  1  0
  6 30  1  0
  7  8  2  0
  7 31  1  0
  8  9  1  0
  8 32  1  0
  9 10  2  0
  9 33  1  0
 11 24  1  0
 11 12  1  0
 12 13  2  0
 12 26  1  0
 13 14  1  0
 14 18  1  0
 14 15  2  0
 15 16  1  0
 15 24  1  0
 16 17  2  0
 16 34  1  0
 17 18  1  0
 18 19  1  0
 19 23  1  0
 19 20  1  0
 19 35  1  0
 20 21  1  0
 20 36  1  0
 20 37  1  0
 21 22  1  0
 21 38  1  0
 21 39  1  0
 22 23  1  0
 22 40  1  0
 22 41  1  0
 23 42  1  0
 23 43  1  0
 24 25  2  0
M  END
>  <i_m_ct_stereo_status>  (110) 
1

>  <s_m_source_file>  (110) 
/var/tmp/pbs.5076255.sched01/tmppnbbzaq8/41bb87crku.sdf

>  <i_m_source_file_index>  (110) 
3

>  <i_lp_mmshare_version>  (110) 
48012

>  <i_f3d_flags>  (110) 
0

>  <s_epik_input>  (110) 
bjFbY0hdW2NIXVtjSF1bY0hdYzFbQ0BASF0yTj1DKFtOSDJdKVtOSF1jKG4yMyluYzRjKGMzPU8pW2NIXW5uNFtDSF01W0NIMl1bQ0gyXVtDSDJdW0NIMl01

>  <s_epik_cmdline>  (110) 
J2VwaWtfcHl0aG9uJywgJy1waHQnLCAnMi4wJywgJy1waCcsICc3LjAnLCAnLXRuJywgJzgnLCAnLW1hJywgJzIwMCcsICctaW1hZScsICc8aW5maWxlLm1hZT4nLCAnLW9tYWUnLCAnPG91dGZpbGUubWFlPic=

>  <r_epik_Ionization_Penalty>  (110) 
0.0142761

>  <r_epik_Ionization_Penalty_Charging>  (110) 
1.65171e-12

>  <r_epik_Ionization_Penalty_Neutral>  (110) 
0.0142761

>  <r_epik_State_Penalty>  (110) 
0.0111263

>  <r_epik_Charging_Adjusted_Penalty>  (110) 
0.0111263

>  <i_epik_Tot_Q>  (110) 
0

>  <i_epik_Tot_abs_Q>  (110) 
0

>  <s_epik_Chemistry_Notes>  (110) 
This compound has an imine and may undergo hydrolysis. This compound contains an acetal/aminal-like group ( X-CH(R)-Y where X, Y are N, S, or O) that may be acid/base labile, releasing an aldehyde.

>  <s_lp_Force_Field>  (110) 
OPLS3e

>  <r_lp_Energy>  (110) 
39.114

>  <b_lp_Chiralities_Consistent>  (110) 
1

>  <s_lp_Variant>  (110) 
32:0-1

>  <s_i_glide_gridfile>  (110) 
pfpi4k_grid

>  <i_i_glide_lignum>  (110) 
3

>  <i_i_glide_rotatable_bonds>  (110) 
2

>  <r_i_docking_score>  (110) 
-2.52309

>  <r_i_glide_ligand_efficiency>  (110) 
-0.0970419

>  <r_i_glide_ligand_efficiency_sa>  (110) 
-0.287486

>  <r_i_glide_ligand_efficiency_ln>  (110) 
-0.592539

>  <r_i_glide_gscore>  (110) 
-2.52309

>  <r_i_glide_lipo>  (110) 
-0.193779

>  <r_i_glide_hbond>  (110) 
-0.0488041

>  <r_i_glide_metal>  (110) 
-0

>  <r_i_glide_rewards>  (110) 
-1.03635

>  <r_i_glide_evdw>  (110) 
-28.3387

>  <r_i_glide_ecoul>  (110) 
-0.783377

>  <r_i_glide_erotb>  (110) 
0.310515

>  <r_i_glide_esite>  (110) 
-0.0202258

>  <r_i_glide_emodel>  (110) 
-31.2083

>  <r_i_glide_energy>  (110) 
-29.1221

>  <r_i_glide_einternal>  (110) 
2.23239

>  <r_i_glide_intrahb_reward>  (110) 
-0

>  <i_i_glide_confnum>  (110) 
6

>  <i_i_glide_posenum>  (110) 
2

>  <r_i_glide_eff_state_penalty>  (110) 
0

>  <ligand_id>  (110) 
32

>  <original_smiles>  (110) 
NC1=NC(c2ccccn2)n2c(nc3c(cnn3C3CCCC3)c2=O)N1

>  <smiles>  (110) 
[H]c1nc(C2([H])N([H])C(N([H])[H])=Nc3nc4c(c([H])nn4C4([H])C([H])([H])C([H])([H])C([H])([H])C4([H])[H])c(=O)n32)c([H])c([H])c1[H]

$$$$
32:0:1
     RDKit          3D

 44 48  0  0  1  0  0  0  0  0999 V2000
    3.0189   -2.3373   -2.3352 N   0  0  0  0  0  0  0  0  0  0  0  0
    3.3216   -2.8163   -1.1022 C   0  0  0  0  0  0  0  0  0  0  0  0
    4.3393   -2.2027   -0.4146 N   0  0  0  0  0  0  0  0  0  0  0  0
    4.5230   -2.3751    1.0203 C   0  0  1  0  0  0  0  0  0  0  0  0
    4.0694   -1.2033    1.9093 C   0  0  0  0  0  0  0  0  0  0  0  0
    2.8633   -0.5064    1.6792 C   0  0  0  0  0  0  0  0  0  0  0  0
    2.5268    0.5810    2.5174 C   0  0  0  0  0  0  0  0  0  0  0  0
    3.3983    0.9153    3.5738 C   0  0  0  0  0  0  0  0  0  0  0  0
    4.5688    0.1545    3.7339 C   0  0  0  0  0  0  0  0  0  0  0  0
    4.9138   -0.8565    2.9071 N   0  0  0  0  0  0  0  0  0  0  0  0
    3.9461   -3.6781    1.4678 N   0  0  0  0  0  0  0  0  0  0  0  0
    2.9969   -4.3728    0.6081 C   0  0  0  0  0  0  0  0  0  0  0  0
    2.4256   -5.5082    0.9475 N   0  0  0  0  0  0  0  0  0  0  0  0
    2.8358   -6.0630    2.1375 C   0  0  0  0  0  0  0  0  0  0  0  0
    3.7351   -5.5133    2.9597 C   0  0  0  0  0  0  0  0  0  0  0  0
    3.8831   -6.3669    4.0826 C   0  0  0  0  0  0  0  0  0  0  0  0
    3.0728   -7.4044    3.9140 N   0  0  0  0  0  0  0  0  0  0  0  0
    2.4168   -7.2244    2.7278 N   0  0  0  0  0  0  0  0  0  0  0  0
    1.4010   -8.1524    2.2530 C   0  0  0  0  0  0  0  0  0  0  0  0
   -0.0001   -7.5207    2.1858 C   0  0  0  0  0  0  0  0  0  0  0  0
   -1.0025   -8.6584    2.4360 C   0  0  0  0  0  0  0  0  0  0  0  0
   -0.1865   -9.8862    2.8584 C   0  0  0  0  0  0  0  0  0  0  0  0
    1.2289   -9.4043    3.1220 C   0  0  0  0  0  0  0  0  0  0  0  0
    4.3934   -4.2322    2.6360 C   0  0  0  0  0  0  0  0  0  0  0  0
    5.2539   -3.7868    3.3858 O   0  0  0  0  0  0  0  0  0  0  0  0
    2.6651   -3.8313   -0.6204 N   0  0  0  0  0  0  0  0  0  0  0  0
    2.3036   -2.8135   -2.8604 H   0  0  0  0  0  0  0  0  0  0  0  0
    3.0835   -1.3652   -2.5907 H   0  0  0  0  0  0  0  0  0  0  0  0
    5.6049   -2.4515    1.1229 H   0  0  0  0  0  0  0  0  0  0  0  0
    2.2062   -0.7887    0.8730 H   0  0  0  0  0  0  0  0  0  0  0  0
    1.6275    1.1645    2.3412 H   0  0  0  0  0  0  0  0  0  0  0  0
    3.1926    1.7546    4.2226 H   0  0  0  0  0  0  0  0  0  0  0  0
    5.2740    0.3927    4.5153 H   0  0  0  0  0  0  0  0  0  0  0  0
    4.4930   -6.2996    4.9749 H   0  0  0  0  0  0  0  0  0  0  0  0
    1.6652   -8.4864    1.2484 H   0  0  0  0  0  0  0  0  0  0  0  0
   -0.1058   -6.7766    2.9710 H   0  0  0  0  0  0  0  0  0  0  0  0
   -0.1825   -7.0238    1.2305 H   0  0  0  0  0  0  0  0  0  0  0  0
   -1.7208   -8.3688    3.2050 H   0  0  0  0  0  0  0  0  0  0  0  0
   -1.5639   -8.8955    1.5325 H   0  0  0  0  0  0  0  0  0  0  0  0
   -0.5842  -10.3627    3.7460 H   0  0  0  0  0  0  0  0  0  0  0  0
   -0.1609  -10.6258    2.0627 H   0  0  0  0  0  0  0  0  0  0  0  0
    2.0037  -10.1615    2.9366 H   0  0  0  0  0  0  0  0  0  0  0  0
    1.2284   -9.1723    4.1847 H   0  0  0  0  0  0  0  0  0  0  0  0
    5.0036   -1.5942   -0.8535 H   0  0  0  0  0  0  0  0  0  0  0  0
  1  2  1  0
  1 27  1  0
  1 28  1  0
  2 26  2  0
  2  3  1  0
  3  4  1  0
  3 44  1  0
  4  5  1  0
  4 11  1  0
  4 29  1  6
  5 10  1  0
  5  6  2  0
  6  7  1  0
  6 30  1  0
  7  8  2  0
  7 31  1  0
  8  9  1  0
  8 32  1  0
  9 10  2  0
  9 33  1  0
 11 24  1  0
 11 12  1  0
 12 13  2  0
 12 26  1  0
 13 14  1  0
 14 18  1  0
 14 15  2  0
 15 16  1  0
 15 24  1  0
 16 17  2  0
 16 34  1  0
 17 18  1  0
 18 19  1  0
 19 23  1  0
 19 20  1  0
 19 35  1  0
 20 21  1  0
 20 36  1  0
 20 37  1  0
 21 22  1  0
 21 38  1  0
 21 39  1  0
 22 23  1  0
 22 40  1  0
 22 41  1  0
 23 42  1  0
 23 43  1  0
 24 25  2  0
M  END
>  <i_m_ct_stereo_status>  (111) 
1

>  <s_m_source_file>  (111) 
/var/tmp/pbs.5076255.sched01/tmppnbbzaq8/41bb87crku.sdf

>  <i_m_source_file_index>  (111) 
3

>  <i_lp_mmshare_version>  (111) 
48012

>  <i_f3d_flags>  (111) 
0

>  <s_epik_input>  (111) 
bjFbY0hdW2NIXVtjSF1bY0hdYzFbQ0BASF0yTj1DKFtOSDJdKVtOSF1jKG4yMyluYzRjKGMzPU8pW2NIXW5uNFtDSF01W0NIMl1bQ0gyXVtDSDJdW0NIMl01

>  <s_epik_cmdline>  (111) 
J2VwaWtfcHl0aG9uJywgJy1waHQnLCAnMi4wJywgJy1waCcsICc3LjAnLCAnLXRuJywgJzgnLCAnLW1hJywgJzIwMCcsICctaW1hZScsICc8aW5maWxlLm1hZT4nLCAnLW9tYWUnLCAnPG91dGZpbGUubWFlPic=

>  <r_epik_Ionization_Penalty>  (111) 
0.0142761

>  <r_epik_Ionization_Penalty_Charging>  (111) 
1.65171e-12

>  <r_epik_Ionization_Penalty_Neutral>  (111) 
0.0142761

>  <r_epik_State_Penalty>  (111) 
0.0111263

>  <r_epik_Charging_Adjusted_Penalty>  (111) 
0.0111263

>  <i_epik_Tot_Q>  (111) 
0

>  <i_epik_Tot_abs_Q>  (111) 
0

>  <s_epik_Chemistry_Notes>  (111) 
This compound has an imine and may undergo hydrolysis. This compound contains an acetal/aminal-like group ( X-CH(R)-Y where X, Y are N, S, or O) that may be acid/base labile, releasing an aldehyde.

>  <s_lp_Force_Field>  (111) 
OPLS3e

>  <r_lp_Energy>  (111) 
39.114

>  <b_lp_Chiralities_Consistent>  (111) 
1

>  <s_lp_Variant>  (111) 
32:0-1

>  <s_i_glide_gridfile>  (111) 
pfpi4k_grid

>  <i_i_glide_lignum>  (111) 
3

>  <i_i_glide_rotatable_bonds>  (111) 
2

>  <r_i_docking_score>  (111) 
-2.42836

>  <r_i_glide_ligand_efficiency>  (111) 
-0.0933985

>  <r_i_glide_ligand_efficiency_sa>  (111) 
-0.276693

>  <r_i_glide_ligand_efficiency_ln>  (111) 
-0.570293

>  <r_i_glide_gscore>  (111) 
-2.42836

>  <r_i_glide_lipo>  (111) 
-0.0475939

>  <r_i_glide_hbond>  (111) 
0

>  <r_i_glide_metal>  (111) 
-0

>  <r_i_glide_rewards>  (111) 
-1.04302

>  <r_i_glide_evdw>  (111) 
-30.4843

>  <r_i_glide_ecoul>  (111) 
-0.190755

>  <r_i_glide_erotb>  (111) 
0.310515

>  <r_i_glide_esite>  (111) 
-0.0954323

>  <r_i_glide_emodel>  (111) 
-32.4976

>  <r_i_glide_energy>  (111) 
-30.675

>  <r_i_glide_einternal>  (111) 
3.39764

>  <r_i_glide_intrahb_reward>  (111) 
-0

>  <i_i_glide_confnum>  (111) 
3

>  <i_i_glide_posenum>  (111) 
1

>  <r_i_glide_eff_state_penalty>  (111) 
0

>  <ligand_id>  (111) 
32

>  <original_smiles>  (111) 
NC1=NC(c2ccccn2)n2c(nc3c(cnn3C3CCCC3)c2=O)N1

>  <smiles>  (111) 
[H]c1nc(C2([H])N([H])C(N([H])[H])=Nc3nc4c(c([H])nn4C4([H])C([H])([H])C([H])([H])C([H])([H])C4([H])[H])c(=O)n32)c([H])c([H])c1[H]

$$$$
32:0:2
     RDKit          3D

 44 48  0  0  1  0  0  0  0  0999 V2000
    5.2844   -2.4863   -0.0985 N   0  0  0  0  0  0  0  0  0  0  0  0
    4.4612   -2.6572    0.9812 C   0  0  0  0  0  0  0  0  0  0  0  0
    4.5246   -1.7124    1.9905 N   0  0  0  0  0  0  0  0  0  0  0  0
    3.4715   -1.6083    2.9967 C   0  0  1  0  0  0  0  0  0  0  0  0
    2.5348   -0.4022    2.7990 C   0  0  0  0  0  0  0  0  0  0  0  0
    3.0207    0.9091    2.9909 C   0  0  0  0  0  0  0  0  0  0  0  0
    2.1417    2.0000    2.8190 C   0  0  0  0  0  0  0  0  0  0  0  0
    0.8110    1.7395    2.4638 C   0  0  0  0  0  0  0  0  0  0  0  0
    0.4129    0.4047    2.2990 C   0  0  0  0  0  0  0  0  0  0  0  0
    1.2479   -0.6458    2.4643 N   0  0  0  0  0  0  0  0  0  0  0  0
    2.7716   -2.9163    3.1731 N   0  0  0  0  0  0  0  0  0  0  0  0
    2.8583   -3.9205    2.1254 C   0  0  0  0  0  0  0  0  0  0  0  0
    2.1956   -5.0433    2.1806 N   0  0  0  0  0  0  0  0  0  0  0  0
    1.4486   -5.2539    3.3123 C   0  0  0  0  0  0  0  0  0  0  0  0
    1.3472   -4.3971    4.3454 C   0  0  0  0  0  0  0  0  0  0  0  0
    0.4912   -4.9902    5.3013 C   0  0  0  0  0  0  0  0  0  0  0  0
    0.0866   -6.1680    4.8372 N   0  0  0  0  0  0  0  0  0  0  0  0
    0.6801   -6.3390    3.6223 N   0  0  0  0  0  0  0  0  0  0  0  0
    0.4634   -7.5490    2.8510 C   0  0  0  0  0  0  0  0  0  0  0  0
   -1.0218   -7.8181    2.5879 C   0  0  0  0  0  0  0  0  0  0  0  0
   -1.1672   -9.3387    2.5263 C   0  0  0  0  0  0  0  0  0  0  0  0
    0.1721   -9.9441    2.9715 C   0  0  0  0  0  0  0  0  0  0  0  0
    0.9987   -8.7970    3.5513 C   0  0  0  0  0  0  0  0  0  0  0  0
    2.0594   -3.1096    4.3253 C   0  0  0  0  0  0  0  0  0  0  0  0
    1.9726   -2.3193    5.2666 O   0  0  0  0  0  0  0  0  0  0  0  0
    3.6872   -3.6854    1.0266 N   0  0  0  0  0  0  0  0  0  0  0  0
    5.2910   -3.2034   -0.8127 H   0  0  0  0  0  0  0  0  0  0  0  0
    5.6026   -1.5880   -0.4227 H   0  0  0  0  0  0  0  0  0  0  0  0
    4.0261   -1.4039    3.9119 H   0  0  0  0  0  0  0  0  0  0  0  0
    4.0451    1.0799    3.2761 H   0  0  0  0  0  0  0  0  0  0  0  0
    2.4915    3.0181    2.9422 H   0  0  0  0  0  0  0  0  0  0  0  0
    0.1117    2.5421    2.2952 H   0  0  0  0  0  0  0  0  0  0  0  0
   -0.6018    0.1725    2.0198 H   0  0  0  0  0  0  0  0  0  0  0  0
    0.1496   -4.6376    6.2647 H   0  0  0  0  0  0  0  0  0  0  0  0
    0.9683   -7.4775    1.8860 H   0  0  0  0  0  0  0  0  0  0  0  0
   -1.6476   -7.4575    3.4044 H   0  0  0  0  0  0  0  0  0  0  0  0
   -1.3669   -7.3302    1.6780 H   0  0  0  0  0  0  0  0  0  0  0  0
   -1.9829   -9.6449    3.1821 H   0  0  0  0  0  0  0  0  0  0  0  0
   -1.4092   -9.6664    1.5190 H   0  0  0  0  0  0  0  0  0  0  0  0
    0.0321  -10.7390    3.7057 H   0  0  0  0  0  0  0  0  0  0  0  0
    0.6857  -10.3625    2.1071 H   0  0  0  0  0  0  0  0  0  0  0  0
    2.0781   -8.9385    3.4164 H   0  0  0  0  0  0  0  0  0  0  0  0
    0.8053   -8.7382    4.6197 H   0  0  0  0  0  0  0  0  0  0  0  0
    5.3248   -1.1147    2.1134 H   0  0  0  0  0  0  0  0  0  0  0  0
  1  2  1  0
  1 27  1  0
  1 28  1  0
  2 26  2  0
  2  3  1  0
  3  4  1  0
  3 44  1  0
  4  5  1  0
  4 11  1  0
  4 29  1  1
  5 10  1  0
  5  6  2  0
  6  7  1  0
  6 30  1  0
  7  8  2  0
  7 31  1  0
  8  9  1  0
  8 32  1  0
  9 10  2  0
  9 33  1  0
 11 24  1  0
 11 12  1  0
 12 13  2  0
 12 26  1  0
 13 14  1  0
 14 18  1  0
 14 15  2  0
 15 16  1  0
 15 24  1  0
 16 17  2  0
 16 34  1  0
 17 18  1  0
 18 19  1  0
 19 23  1  0
 19 20  1  0
 19 35  1  0
 20 21  1  0
 20 36  1  0
 20 37  1  0
 21 22  1  0
 21 38  1  0
 21 39  1  0
 22 23  1  0
 22 40  1  0
 22 41  1  0
 23 42  1  0
 23 43  1  0
 24 25  2  0
M  END
>  <i_m_ct_stereo_status>  (112) 
1

>  <s_m_source_file>  (112) 
/var/tmp/pbs.5076255.sched01/tmppnbbzaq8/41bb87crku.sdf

>  <i_m_source_file_index>  (112) 
3

>  <i_lp_mmshare_version>  (112) 
48012

>  <i_f3d_flags>  (112) 
0

>  <s_epik_input>  (112) 
bjFbY0hdW2NIXVtjSF1bY0hdYzFbQ0BASF0yTj1DKFtOSDJdKVtOSF1jKG4yMyluYzRjKGMzPU8pW2NIXW5uNFtDSF01W0NIMl1bQ0gyXVtDSDJdW0NIMl01

>  <s_epik_cmdline>  (112) 
J2VwaWtfcHl0aG9uJywgJy1waHQnLCAnMi4wJywgJy1waCcsICc3LjAnLCAnLXRuJywgJzgnLCAnLW1hJywgJzIwMCcsICctaW1hZScsICc8aW5maWxlLm1hZT4nLCAnLW9tYWUnLCAnPG91dGZpbGUubWFlPic=

>  <r_epik_Ionization_Penalty>  (112) 
0.0142761

>  <r_epik_Ionization_Penalty_Charging>  (112) 
1.65171e-12

>  <r_epik_Ionization_Penalty_Neutral>  (112) 
0.0142761

>  <r_epik_State_Penalty>  (112) 
0.0111263

>  <r_epik_Charging_Adjusted_Penalty>  (112) 
0.0111263

>  <i_epik_Tot_Q>  (112) 
0

>  <i_epik_Tot_abs_Q>  (112) 
0

>  <s_epik_Chemistry_Notes>  (112) 
This compound has an imine and may undergo hydrolysis. This compound contains an acetal/aminal-like group ( X-CH(R)-Y where X, Y are N, S, or O) that may be acid/base labile, releasing an aldehyde.

>  <s_lp_Force_Field>  (112) 
OPLS3e

>  <r_lp_Energy>  (112) 
39.114

>  <b_lp_Chiralities_Consistent>  (112) 
1

>  <s_lp_Variant>  (112) 
32:0-1

>  <s_i_glide_gridfile>  (112) 
pfpi4k_grid

>  <i_i_glide_lignum>  (112) 
3

>  <i_i_glide_rotatable_bonds>  (112) 
2

>  <r_i_docking_score>  (112) 
-2.42124

>  <r_i_glide_ligand_efficiency>  (112) 
-0.0931247

>  <r_i_glide_ligand_efficiency_sa>  (112) 
-0.275882

>  <r_i_glide_ligand_efficiency_ln>  (112) 
-0.568621

>  <r_i_glide_gscore>  (112) 
-2.42124

>  <r_i_glide_lipo>  (112) 
-0.218355

>  <r_i_glide_hbond>  (112) 
0

>  <r_i_glide_metal>  (112) 
-0

>  <r_i_glide_rewards>  (112) 
-1.02015

>  <r_i_glide_evdw>  (112) 
-28.8851

>  <r_i_glide_ecoul>  (112) 
0.0556217

>  <r_i_glide_erotb>  (112) 
0.310515

>  <r_i_glide_esite>  (112) 
-0.0573385

>  <r_i_glide_emodel>  (112) 
-32.1

>  <r_i_glide_energy>  (112) 
-28.8295

>  <r_i_glide_einternal>  (112) 
0.503567

>  <r_i_glide_intrahb_reward>  (112) 
-0

>  <i_i_glide_confnum>  (112) 
2

>  <i_i_glide_posenum>  (112) 
28

>  <r_i_glide_eff_state_penalty>  (112) 
0

>  <ligand_id>  (112) 
32

>  <original_smiles>  (112) 
NC1=NC(c2ccccn2)n2c(nc3c(cnn3C3CCCC3)c2=O)N1

>  <smiles>  (112) 
[H]c1nc(C2([H])N([H])C(N([H])[H])=Nc3nc4c(c([H])nn4C4([H])C([H])([H])C([H])([H])C([H])([H])C4([H])[H])c(=O)n32)c([H])c([H])c1[H]

$$$$
32:1:0
     RDKit          3D

 45 49  0  0  1  0  0  0  0  0999 V2000
    5.6978  -10.7287    2.2556 N   0  0  0  0  0  0  0  0  0  0  0  0
    4.9234   -9.6297    2.0458 C   0  0  0  0  0  0  0  0  0  0  0  0
    3.5972   -9.8463    1.7677 N   0  0  0  0  0  0  0  0  0  0  0  0
    2.6268   -8.7688    1.6821 C   0  0  1  0  0  0  0  0  0  0  0  0
    1.6654   -8.6704    2.8671 C   0  0  0  0  0  0  0  0  0  0  0  0
    2.0373   -8.1250    4.1221 C   0  0  0  0  0  0  0  0  0  0  0  0
    1.0844   -8.0572    5.1627 C   0  0  0  0  0  0  0  0  0  0  0  0
   -0.2169   -8.5400    4.9233 C   0  0  0  0  0  0  0  0  0  0  0  0
   -0.5459   -9.0551    3.6544 C   0  0  0  0  0  0  0  0  0  0  0  0
    0.3940   -9.1025    2.6831 N   0  0  0  0  0  0  0  0  0  0  0  0
    3.3020   -7.4626    1.4169 N   0  0  0  0  0  0  0  0  0  0  0  0
    4.7350   -7.3467    1.6382 C   0  0  0  0  0  0  0  0  0  0  0  0
    5.3921   -6.2309    1.4387 N   0  0  0  0  0  0  0  0  0  0  0  0
    4.6538   -5.1603    0.9950 C   0  0  0  0  0  0  0  0  0  0  0  0
    3.3392   -5.1835    0.7525 C   0  0  0  0  0  0  0  0  0  0  0  0
    2.9708   -3.9002    0.2789 C   0  0  0  0  0  0  0  0  0  0  0  0
    4.0562   -3.1420    0.2458 N   0  0  0  0  0  0  0  0  0  0  0  0
    5.0849   -3.8945    0.7249 N   0  0  0  0  0  0  0  0  0  0  0  0
    6.4259   -3.3536    0.8185 C   0  0  0  0  0  0  0  0  0  0  0  0
    6.4691   -1.8815    1.2592 C   0  0  0  0  0  0  0  0  0  0  0  0
    7.6814   -1.2878    0.5532 C   0  0  0  0  0  0  0  0  0  0  0  0
    8.2289   -2.3166   -0.4277 C   0  0  0  0  0  0  0  0  0  0  0  0
    7.1687   -3.4008   -0.5159 C   0  0  0  0  0  0  0  0  0  0  0  0
    2.5425   -6.4042    0.9727 C   0  0  0  0  0  0  0  0  0  0  0  0
    1.3303   -6.4074    0.7581 O   0  0  0  0  0  0  0  0  0  0  0  0
    5.4618   -8.4562    2.0575 N   0  0  0  0  0  0  0  0  0  0  0  0
    6.6856  -10.6381    2.4249 H   0  0  0  0  0  0  0  0  0  0  0  0
    5.4074  -11.6487    1.9442 H   0  0  0  0  0  0  0  0  0  0  0  0
    2.0265   -9.0230    0.8139 H   0  0  0  0  0  0  0  0  0  0  0  0
    3.0407   -7.7596    4.2851 H   0  0  0  0  0  0  0  0  0  0  0  0
    1.3543   -7.6686    6.1364 H   0  0  0  0  0  0  0  0  0  0  0  0
   -0.9669   -8.5562    5.6937 H   0  0  0  0  0  0  0  0  0  0  0  0
   -1.5213   -9.4607    3.4180 H   0  0  0  0  0  0  0  0  0  0  0  0
    2.0172   -3.4888   -0.0189 H   0  0  0  0  0  0  0  0  0  0  0  0
    7.0139   -3.9305    1.5363 H   0  0  0  0  0  0  0  0  0  0  0  0
    5.6222   -1.2830    0.9167 H   0  0  0  0  0  0  0  0  0  0  0  0
    6.4925   -1.7770    2.3476 H   0  0  0  0  0  0  0  0  0  0  0  0
    7.3425   -0.3640    0.0811 H   0  0  0  0  0  0  0  0  0  0  0  0
    8.4694   -1.0158    1.2443 H   0  0  0  0  0  0  0  0  0  0  0  0
    8.4719   -1.8953   -1.4036 H   0  0  0  0  0  0  0  0  0  0  0  0
    9.1528   -2.7286   -0.0228 H   0  0  0  0  0  0  0  0  0  0  0  0
    7.6420   -4.3593   -0.7131 H   0  0  0  0  0  0  0  0  0  0  0  0
    6.4778   -3.1718   -1.3238 H   0  0  0  0  0  0  0  0  0  0  0  0
    3.3246  -10.7794    1.4332 H   0  0  0  0  0  0  0  0  0  0  0  0
    0.1275   -9.4740    1.7631 H   0  0  0  0  0  0  0  0  0  0  0  0
  1  2  1  0
  1 27  1  0
  1 28  1  0
  2 26  2  0
  2  3  1  0
  3  4  1  0
  3 44  1  0
  4  5  1  0
  4 11  1  0
  4 29  1  6
  5 10  1  0
  5  6  2  0
  6  7  1  0
  6 30  1  0
  7  8  2  0
  7 31  1  0
  8  9  1  0
  8 32  1  0
  9 10  2  0
  9 33  1  0
 10 45  1  0
 11 24  1  0
 11 12  1  0
 12 13  2  0
 12 26  1  0
 13 14  1  0
 14 18  1  0
 14 15  2  0
 15 16  1  0
 15 24  1  0
 16 17  2  0
 16 34  1  0
 17 18  1  0
 18 19  1  0
 19 23  1  0
 19 20  1  0
 19 35  1  0
 20 21  1  0
 20 36  1  0
 20 37  1  0
 21 22  1  0
 21 38  1  0
 21 39  1  0
 22 23  1  0
 22 40  1  0
 22 41  1  0
 23 42  1  0
 23 43  1  0
 24 25  2  0
M  CHG  1  10   1
M  END
>  <i_m_ct_stereo_status>  (113) 
1

>  <s_m_source_file>  (113) 
/var/tmp/pbs.5076255.sched01/tmppnbbzaq8/41bb87crku.sdf

>  <i_m_source_file_index>  (113) 
4

>  <i_lp_mmshare_version>  (113) 
48012

>  <i_f3d_flags>  (113) 
0

>  <s_epik_input>  (113) 
bjFbY0hdW2NIXVtjSF1bY0hdYzFbQ0BASF0yTj1DKFtOSDJdKVtOSF1jKG4yMyluYzRjKGMzPU8pW2NIXW5uNFtDSF01W0NIMl1bQ0gyXVtDSDJdW0NIMl01

>  <s_epik_cmdline>  (113) 
J2VwaWtfcHl0aG9uJywgJy1waHQnLCAnMi4wJywgJy1waCcsICc3LjAnLCAnLXRuJywgJzgnLCAnLW1hJywgJzIwMCcsICctaW1hZScsICc8aW5maWxlLm1hZT4nLCAnLW9tYWUnLCAnPG91dGZpbGUubWFlPic=

>  <r_epik_Ionization_Penalty>  (113) 
2.21612

>  <r_epik_Ionization_Penalty_Charging>  (113) 
2.2161

>  <r_epik_Ionization_Penalty_Neutral>  (113) 
1.61392e-05

>  <r_epik_State_Penalty>  (113) 
2.36069

>  <r_epik_Charging_Adjusted_Penalty>  (113) 
4.57679

>  <i_epik_Tot_Q>  (113) 
1

>  <i_epik_Tot_abs_Q>  (113) 
1

>  <s_epik_Chemistry_Notes>  (113) 
This compound has an imine and may undergo hydrolysis. This compound contains an acetal/aminal-like group ( X-CH(R)-Y where X, Y are N, S, or O) that may be acid/base labile, releasing an aldehyde.

>  <s_lp_Force_Field>  (113) 
OPLS3e

>  <r_lp_Energy>  (113) 
46.8825

>  <b_lp_Chiralities_Consistent>  (113) 
1

>  <s_lp_Variant>  (113) 
32:0-2

>  <s_i_glide_gridfile>  (113) 
pfpi4k_grid

>  <i_i_glide_lignum>  (113) 
4

>  <i_i_glide_rotatable_bonds>  (113) 
2

>  <r_i_docking_score>  (113) 
-4.26792

>  <r_i_glide_ligand_efficiency>  (113) 
-0.164151

>  <r_i_glide_ligand_efficiency_sa>  (113) 
-0.486296

>  <r_i_glide_ligand_efficiency_ln>  (113) 
-1.00231

>  <r_i_glide_gscore>  (113) 
-4.26792

>  <r_i_glide_lipo>  (113) 
-0.34435

>  <r_i_glide_hbond>  (113) 
-0.254106

>  <r_i_glide_metal>  (113) 
-0

>  <r_i_glide_rewards>  (113) 
-1.30523

>  <r_i_glide_evdw>  (113) 
-23.6291

>  <r_i_glide_ecoul>  (113) 
-8.64725

>  <r_i_glide_erotb>  (113) 
0.308933

>  <r_i_glide_esite>  (113) 
-0.194627

>  <r_i_glide_emodel>  (113) 
-42.4871

>  <r_i_glide_energy>  (113) 
-32.2764

>  <r_i_glide_einternal>  (113) 
1.70811

>  <r_i_glide_intrahb_reward>  (113) 
-0

>  <i_i_glide_confnum>  (113) 
3

>  <i_i_glide_posenum>  (113) 
14

>  <r_i_glide_eff_state_penalty>  (113) 
0

>  <ligand_id>  (113) 
32

>  <original_smiles>  (113) 
NC1=NC(c2ccccn2)n2c(nc3c(cnn3C3CCCC3)c2=O)N1

>  <smiles>  (113) 
[H]c1c([H])c([H])[n+]([H])c(C2([H])N([H])C(N([H])[H])=Nc3nc4c(c([H])nn4C4([H])C([H])([H])C([H])([H])C([H])([H])C4([H])[H])c(=O)n32)c1[H]

$$$$
32:1:1
     RDKit          3D

 45 49  0  0  1  0  0  0  0  0999 V2000
    8.8138  -10.5873    4.3407 N   0  0  0  0  0  0  0  0  0  0  0  0
    7.7638  -10.0193    3.6689 C   0  0  0  0  0  0  0  0  0  0  0  0
    6.8138  -10.8763    3.1315 N   0  0  0  0  0  0  0  0  0  0  0  0
    5.5706  -10.3691    2.5561 C   0  0  1  0  0  0  0  0  0  0  0  0
    4.3250  -10.5862    3.4270 C   0  0  0  0  0  0  0  0  0  0  0  0
    4.2109  -10.0843    4.7488 C   0  0  0  0  0  0  0  0  0  0  0  0
    3.0227  -10.3097    5.4780 C   0  0  0  0  0  0  0  0  0  0  0  0
    1.9642  -11.0123    4.8729 C   0  0  0  0  0  0  0  0  0  0  0  0
    2.1157  -11.4624    3.5411 C   0  0  0  0  0  0  0  0  0  0  0  0
    3.2789  -11.2483    2.8874 N   0  0  0  0  0  0  0  0  0  0  0  0
    5.7236   -8.9525    2.1163 N   0  0  0  0  0  0  0  0  0  0  0  0
    6.8207   -8.1548    2.6354 C   0  0  0  0  0  0  0  0  0  0  0  0
    6.9915   -6.9058    2.2935 N   0  0  0  0  0  0  0  0  0  0  0  0
    6.0680   -6.3812    1.4240 C   0  0  0  0  0  0  0  0  0  0  0  0
    5.0229   -7.0496    0.9113 C   0  0  0  0  0  0  0  0  0  0  0  0
    4.3223   -6.1531    0.0782 C   0  0  0  0  0  0  0  0  0  0  0  0
    4.9605   -4.9925    0.0582 N   0  0  0  0  0  0  0  0  0  0  0  0
    6.0076   -5.1135    0.9146 N   0  0  0  0  0  0  0  0  0  0  0  0
    6.8892   -3.9922    1.1561 C   0  0  0  0  0  0  0  0  0  0  0  0
    6.1330   -2.6723    1.3967 C   0  0  0  0  0  0  0  0  0  0  0  0
    7.0388   -1.5669    0.8517 C   0  0  0  0  0  0  0  0  0  0  0  0
    8.2068   -2.2553    0.1163 C   0  0  0  0  0  0  0  0  0  0  0  0
    7.8306   -3.7238   -0.0136 C   0  0  0  0  0  0  0  0  0  0  0  0
    4.7989   -8.4599    1.2402 C   0  0  0  0  0  0  0  0  0  0  0  0
    3.8519   -9.0766    0.7539 O   0  0  0  0  0  0  0  0  0  0  0  0
    7.7387   -8.7408    3.5084 N   0  0  0  0  0  0  0  0  0  0  0  0
    9.5477   -9.9845    4.6893 H   0  0  0  0  0  0  0  0  0  0  0  0
    9.0695  -11.5618    4.2893 H   0  0  0  0  0  0  0  0  0  0  0  0
    5.4555  -11.0024    1.6774 H   0  0  0  0  0  0  0  0  0  0  0  0
    5.0298   -9.5434    5.1938 H   0  0  0  0  0  0  0  0  0  0  0  0
    2.9248   -9.9777    6.5015 H   0  0  0  0  0  0  0  0  0  0  0  0
    1.0654  -11.2294    5.4292 H   0  0  0  0  0  0  0  0  0  0  0  0
    1.3617  -12.0348    3.0169 H   0  0  0  0  0  0  0  0  0  0  0  0
    3.4396   -6.2965   -0.5136 H   0  0  0  0  0  0  0  0  0  0  0  0
    7.5027   -4.2166    2.0255 H   0  0  0  0  0  0  0  0  0  0  0  0
    5.1976   -2.6097    0.8415 H   0  0  0  0  0  0  0  0  0  0  0  0
    5.8800   -2.5425    2.4545 H   0  0  0  0  0  0  0  0  0  0  0  0
    6.4603   -0.9126    0.1974 H   0  0  0  0  0  0  0  0  0  0  0  0
    7.4156   -0.9709    1.6789 H   0  0  0  0  0  0  0  0  0  0  0  0
    8.4114   -1.8473   -0.8711 H   0  0  0  0  0  0  0  0  0  0  0  0
    9.1167   -2.1583    0.7068 H   0  0  0  0  0  0  0  0  0  0  0  0
    8.7012   -4.3897   -0.0333 H   0  0  0  0  0  0  0  0  0  0  0  0
    7.2891   -3.8349   -0.9475 H   0  0  0  0  0  0  0  0  0  0  0  0
    6.9598  -11.8711    3.0508 H   0  0  0  0  0  0  0  0  0  0  0  0
    3.3862  -11.5853    1.9204 H   0  0  0  0  0  0  0  0  0  0  0  0
  1  2  1  0
  1 27  1  0
  1 28  1  0
  2 26  2  0
  2  3  1  0
  3  4  1  0
  3 44  1  0
  4  5  1  0
  4 11  1  0
  4 29  1  6
  5 10  1  0
  5  6  2  0
  6  7  1  0
  6 30  1  0
  7  8  2  0
  7 31  1  0
  8  9  1  0
  8 32  1  0
  9 10  2  0
  9 33  1  0
 10 45  1  0
 11 24  1  0
 11 12  1  0
 12 13  2  0
 12 26  1  0
 13 14  1  0
 14 18  1  0
 14 15  2  0
 15 16  1  0
 15 24  1  0
 16 17  2  0
 16 34  1  0
 17 18  1  0
 18 19  1  0
 19 23  1  0
 19 20  1  0
 19 35  1  0
 20 21  1  0
 20 36  1  0
 20 37  1  0
 21 22  1  0
 21 38  1  0
 21 39  1  0
 22 23  1  0
 22 40  1  0
 22 41  1  0
 23 42  1  0
 23 43  1  0
 24 25  2  0
M  CHG  1  10   1
M  END
>  <i_m_ct_stereo_status>  (114) 
1

>  <s_m_source_file>  (114) 
/var/tmp/pbs.5076255.sched01/tmppnbbzaq8/41bb87crku.sdf

>  <i_m_source_file_index>  (114) 
4

>  <i_lp_mmshare_version>  (114) 
48012

>  <i_f3d_flags>  (114) 
0

>  <s_epik_input>  (114) 
bjFbY0hdW2NIXVtjSF1bY0hdYzFbQ0BASF0yTj1DKFtOSDJdKVtOSF1jKG4yMyluYzRjKGMzPU8pW2NIXW5uNFtDSF01W0NIMl1bQ0gyXVtDSDJdW0NIMl01

>  <s_epik_cmdline>  (114) 
J2VwaWtfcHl0aG9uJywgJy1waHQnLCAnMi4wJywgJy1waCcsICc3LjAnLCAnLXRuJywgJzgnLCAnLW1hJywgJzIwMCcsICctaW1hZScsICc8aW5maWxlLm1hZT4nLCAnLW9tYWUnLCAnPG91dGZpbGUubWFlPic=

>  <r_epik_Ionization_Penalty>  (114) 
2.21612

>  <r_epik_Ionization_Penalty_Charging>  (114) 
2.2161

>  <r_epik_Ionization_Penalty_Neutral>  (114) 
1.61392e-05

>  <r_epik_State_Penalty>  (114) 
2.36069

>  <r_epik_Charging_Adjusted_Penalty>  (114) 
4.57679

>  <i_epik_Tot_Q>  (114) 
1

>  <i_epik_Tot_abs_Q>  (114) 
1

>  <s_epik_Chemistry_Notes>  (114) 
This compound has an imine and may undergo hydrolysis. This compound contains an acetal/aminal-like group ( X-CH(R)-Y where X, Y are N, S, or O) that may be acid/base labile, releasing an aldehyde.

>  <s_lp_Force_Field>  (114) 
OPLS3e

>  <r_lp_Energy>  (114) 
46.8825

>  <b_lp_Chiralities_Consistent>  (114) 
1

>  <s_lp_Variant>  (114) 
32:0-2

>  <s_i_glide_gridfile>  (114) 
pfpi4k_grid

>  <i_i_glide_lignum>  (114) 
4

>  <i_i_glide_rotatable_bonds>  (114) 
2

>  <r_i_docking_score>  (114) 
-4.08438

>  <r_i_glide_ligand_efficiency>  (114) 
-0.157092

>  <r_i_glide_ligand_efficiency_sa>  (114) 
-0.465383

>  <r_i_glide_ligand_efficiency_ln>  (114) 
-0.959203

>  <r_i_glide_gscore>  (114) 
-4.08438

>  <r_i_glide_lipo>  (114) 
-0.630074

>  <r_i_glide_hbond>  (114) 
-0.2

>  <r_i_glide_metal>  (114) 
-0

>  <r_i_glide_rewards>  (114) 
-1.34896

>  <r_i_glide_evdw>  (114) 
-26.1448

>  <r_i_glide_ecoul>  (114) 
-5.18565

>  <r_i_glide_erotb>  (114) 
0.308933

>  <r_i_glide_esite>  (114) 
-0.129195

>  <r_i_glide_emodel>  (114) 
-41.6454

>  <r_i_glide_energy>  (114) 
-31.3304

>  <r_i_glide_einternal>  (114) 
1.08181

>  <r_i_glide_intrahb_reward>  (114) 
-0

>  <i_i_glide_confnum>  (114) 
3

>  <i_i_glide_posenum>  (114) 
23

>  <r_i_glide_eff_state_penalty>  (114) 
0

>  <ligand_id>  (114) 
32

>  <original_smiles>  (114) 
NC1=NC(c2ccccn2)n2c(nc3c(cnn3C3CCCC3)c2=O)N1

>  <smiles>  (114) 
[H]c1c([H])c([H])[n+]([H])c(C2([H])N([H])C(N([H])[H])=Nc3nc4c(c([H])nn4C4([H])C([H])([H])C([H])([H])C([H])([H])C4([H])[H])c(=O)n32)c1[H]

$$$$
32:1:2
     RDKit          3D

 45 49  0  0  1  0  0  0  0  0999 V2000
    4.8364  -10.3646    2.7632 N   0  0  0  0  0  0  0  0  0  0  0  0
    4.2023   -9.2428    2.3373 C   0  0  0  0  0  0  0  0  0  0  0  0
    2.9024   -9.3849    1.9235 N   0  0  0  0  0  0  0  0  0  0  0  0
    2.0582   -8.2284    1.6692 C   0  0  1  0  0  0  0  0  0  0  0  0
    0.9928   -7.9332    2.7200 C   0  0  0  0  0  0  0  0  0  0  0  0
    1.0933   -6.8616    3.6461 C   0  0  0  0  0  0  0  0  0  0  0  0
    0.0442   -6.6222    4.5494 C   0  0  0  0  0  0  0  0  0  0  0  0
   -1.0840   -7.4580    4.5041 C   0  0  0  0  0  0  0  0  0  0  0  0
   -1.1490   -8.5174    3.5732 C   0  0  0  0  0  0  0  0  0  0  0  0
   -0.1225   -8.7076    2.7114 N   0  0  0  0  0  0  0  0  0  0  0  0
    2.8659   -7.0298    1.3021 N   0  0  0  0  0  0  0  0  0  0  0  0
    4.2794   -7.0071    1.6804 C   0  0  0  0  0  0  0  0  0  0  0  0
    5.0421   -5.9676    1.4368 N   0  0  0  0  0  0  0  0  0  0  0  0
    4.4492   -4.9078    0.7962 C   0  0  0  0  0  0  0  0  0  0  0  0
    3.1666   -4.8561    0.4129 C   0  0  0  0  0  0  0  0  0  0  0  0
    2.9596   -3.6125   -0.2350 C   0  0  0  0  0  0  0  0  0  0  0  0
    4.1075   -2.9492   -0.2308 N   0  0  0  0  0  0  0  0  0  0  0  0
    5.0126   -3.7188    0.4374 N   0  0  0  0  0  0  0  0  0  0  0  0
    6.3760   -3.2683    0.6353 C   0  0  0  0  0  0  0  0  0  0  0  0
    6.4854   -1.8242    1.1574 C   0  0  0  0  0  0  0  0  0  0  0  0
    7.7574   -1.2528    0.5264 C   0  0  0  0  0  0  0  0  0  0  0  0
    8.3092   -2.2921   -0.4504 C   0  0  0  0  0  0  0  0  0  0  0  0
    7.1852   -3.2842   -0.6551 C   0  0  0  0  0  0  0  0  0  0  0  0
    2.2623   -5.9957    0.6639 C   0  0  0  0  0  0  0  0  0  0  0  0
    1.0784   -5.9401    0.3120 O   0  0  0  0  0  0  0  0  0  0  0  0
    4.8403   -8.1135    2.2981 N   0  0  0  0  0  0  0  0  0  0  0  0
    5.8037  -10.3178    3.0463 H   0  0  0  0  0  0  0  0  0  0  0  0
    4.5346  -11.3083    2.5478 H   0  0  0  0  0  0  0  0  0  0  0  0
    1.4983   -8.5236    0.7902 H   0  0  0  0  0  0  0  0  0  0  0  0
    1.9531   -6.2102    3.6573 H   0  0  0  0  0  0  0  0  0  0  0  0
    0.1131   -5.8222    5.2770 H   0  0  0  0  0  0  0  0  0  0  0  0
   -1.8776   -7.3051    5.2097 H   0  0  0  0  0  0  0  0  0  0  0  0
   -1.9696   -9.2262    3.5240 H   0  0  0  0  0  0  0  0  0  0  0  0
    2.0851   -3.1628   -0.6873 H   0  0  0  0  0  0  0  0  0  0  0  0
    6.8965   -3.9176    1.3413 H   0  0  0  0  0  0  0  0  0  0  0  0
    5.6664   -1.1910    0.8165 H   0  0  0  0  0  0  0  0  0  0  0  0
    6.4570   -1.7908    2.2509 H   0  0  0  0  0  0  0  0  0  0  0  0
    7.4577   -0.3163    0.0888 H   0  0  0  0  0  0  0  0  0  0  0  0
    8.5105   -0.9505    1.2529 H   0  0  0  0  0  0  0  0  0  0  0  0
    8.6375   -1.8975   -1.4111 H   0  0  0  0  0  0  0  0  0  0  0  0
    9.1716   -2.7875   -0.0047 H   0  0  0  0  0  0  0  0  0  0  0  0
    7.6185   -4.2592   -0.8743 H   0  0  0  0  0  0  0  0  0  0  0  0
    6.5629   -2.9729   -1.4928 H   0  0  0  0  0  0  0  0  0  0  0  0
    2.5144  -10.2963    1.7126 H   0  0  0  0  0  0  0  0  0  0  0  0
   -0.1993   -9.4589    2.0131 H   0  0  0  0  0  0  0  0  0  0  0  0
  1  2  1  0
  1 27  1  0
  1 28  1  0
  2 26  2  0
  2  3  1  0
  3  4  1  0
  3 44  1  0
  4  5  1  0
  4 11  1  0
  4 29  1  6
  5 10  1  0
  5  6  2  0
  6  7  1  0
  6 30  1  0
  7  8  2  0
  7 31  1  0
  8  9  1  0
  8 32  1  0
  9 10  2  0
  9 33  1  0
 10 45  1  0
 11 24  1  0
 11 12  1  0
 12 13  2  0
 12 26  1  0
 13 14  1  0
 14 18  1  0
 14 15  2  0
 15 16  1  0
 15 24  1  0
 16 17  2  0
 16 34  1  0
 17 18  1  0
 18 19  1  0
 19 23  1  0
 19 20  1  0
 19 35  1  0
 20 21  1  0
 20 36  1  0
 20 37  1  0
 21 22  1  0
 21 38  1  0
 21 39  1  0
 22 23  1  0
 22 40  1  0
 22 41  1  0
 23 42  1  0
 23 43  1  0
 24 25  2  0
M  CHG  1  10   1
M  END
>  <i_m_ct_stereo_status>  (115) 
1

>  <s_m_source_file>  (115) 
/var/tmp/pbs.5076255.sched01/tmppnbbzaq8/41bb87crku.sdf

>  <i_m_source_file_index>  (115) 
4

>  <i_lp_mmshare_version>  (115) 
48012

>  <i_f3d_flags>  (115) 
0

>  <s_epik_input>  (115) 
bjFbY0hdW2NIXVtjSF1bY0hdYzFbQ0BASF0yTj1DKFtOSDJdKVtOSF1jKG4yMyluYzRjKGMzPU8pW2NIXW5uNFtDSF01W0NIMl1bQ0gyXVtDSDJdW0NIMl01

>  <s_epik_cmdline>  (115) 
J2VwaWtfcHl0aG9uJywgJy1waHQnLCAnMi4wJywgJy1waCcsICc3LjAnLCAnLXRuJywgJzgnLCAnLW1hJywgJzIwMCcsICctaW1hZScsICc8aW5maWxlLm1hZT4nLCAnLW9tYWUnLCAnPG91dGZpbGUubWFlPic=

>  <r_epik_Ionization_Penalty>  (115) 
2.21612

>  <r_epik_Ionization_Penalty_Charging>  (115) 
2.2161

>  <r_epik_Ionization_Penalty_Neutral>  (115) 
1.61392e-05

>  <r_epik_State_Penalty>  (115) 
2.36069

>  <r_epik_Charging_Adjusted_Penalty>  (115) 
4.57679

>  <i_epik_Tot_Q>  (115) 
1

>  <i_epik_Tot_abs_Q>  (115) 
1

>  <s_epik_Chemistry_Notes>  (115) 
This compound has an imine and may undergo hydrolysis. This compound contains an acetal/aminal-like group ( X-CH(R)-Y where X, Y are N, S, or O) that may be acid/base labile, releasing an aldehyde.

>  <s_lp_Force_Field>  (115) 
OPLS3e

>  <r_lp_Energy>  (115) 
46.8825

>  <b_lp_Chiralities_Consistent>  (115) 
1

>  <s_lp_Variant>  (115) 
32:0-2

>  <s_i_glide_gridfile>  (115) 
pfpi4k_grid

>  <i_i_glide_lignum>  (115) 
4

>  <i_i_glide_rotatable_bonds>  (115) 
2

>  <r_i_docking_score>  (115) 
-4.01682

>  <r_i_glide_ligand_efficiency>  (115) 
-0.154493

>  <r_i_glide_ligand_efficiency_sa>  (115) 
-0.457685

>  <r_i_glide_ligand_efficiency_ln>  (115) 
-0.943337

>  <r_i_glide_gscore>  (115) 
-4.01682

>  <r_i_glide_lipo>  (115) 
-0.323252

>  <r_i_glide_hbond>  (115) 
-0.230142

>  <r_i_glide_metal>  (115) 
-0

>  <r_i_glide_rewards>  (115) 
-1.23961

>  <r_i_glide_evdw>  (115) 
-23.7017

>  <r_i_glide_ecoul>  (115) 
-8.0541

>  <r_i_glide_erotb>  (115) 
0.308933

>  <r_i_glide_esite>  (115) 
-0.139545

>  <r_i_glide_emodel>  (115) 
-41.8175

>  <r_i_glide_energy>  (115) 
-31.7558

>  <r_i_glide_einternal>  (115) 
0.892855

>  <r_i_glide_intrahb_reward>  (115) 
-0

>  <i_i_glide_confnum>  (115) 
3

>  <i_i_glide_posenum>  (115) 
4

>  <r_i_glide_eff_state_penalty>  (115) 
0

>  <ligand_id>  (115) 
32

>  <original_smiles>  (115) 
NC1=NC(c2ccccn2)n2c(nc3c(cnn3C3CCCC3)c2=O)N1

>  <smiles>  (115) 
[H]c1c([H])c([H])[n+]([H])c(C2([H])N([H])C(N([H])[H])=Nc3nc4c(c([H])nn4C4([H])C([H])([H])C([H])([H])C([H])([H])C4([H])[H])c(=O)n32)c1[H]

$$$$
33:0:0
     RDKit          3D

 25 26  0  0  1  0  0  0  0  0999 V2000
    3.5349    1.0828   -5.1660 C   0  0  0  0  0  0  0  0  0  0  0  0
    2.9126   -0.1640   -4.9306 O   0  0  0  0  0  0  0  0  0  0  0  0
    3.3956   -0.9421   -3.9072 C   0  0  0  0  0  0  0  0  0  0  0  0
    4.2152   -0.4733   -2.8552 C   0  0  0  0  0  0  0  0  0  0  0  0
    4.6631   -1.3513   -1.8505 C   0  0  0  0  0  0  0  0  0  0  0  0
    4.3008   -2.7148   -1.8802 C   0  0  0  0  0  0  0  0  0  0  0  0
    4.7545   -3.7027   -0.8914 C   0  0  0  0  0  0  0  0  0  0  0  0
    5.9739   -3.7684   -0.3081 C   0  0  0  0  0  0  0  0  0  0  0  0
    7.3590   -2.7250   -0.6635 S   0  0  0  0  0  0  0  0  0  0  0  0
    8.4189   -3.5724    0.4777 C   0  0  0  0  0  0  0  0  0  0  0  0
    9.5776   -3.2487    0.7126 O   0  0  0  0  0  0  0  0  0  0  0  0
    7.6960   -4.6025    1.0276 N   0  0  0  0  0  0  0  0  0  0  0  0
    6.4028   -4.7744    0.6760 C   0  0  0  0  0  0  0  0  0  0  0  0
    5.4293   -5.9959    1.2610 S   0  0  0  0  0  0  0  0  0  0  0  0
    3.4895   -3.1693   -2.9299 C   0  0  0  0  0  0  0  0  0  0  0  0
    3.0268   -2.2952   -3.9208 C   0  0  0  0  0  0  0  0  0  0  0  0
    2.9988    1.5734   -5.9719 H   0  0  0  0  0  0  0  0  0  0  0  0
    4.5725    0.9439   -5.4680 H   0  0  0  0  0  0  0  0  0  0  0  0
    3.5015    1.7604   -4.3217 H   0  0  0  0  0  0  0  0  0  0  0  0
    4.5042    0.5621   -2.7826 H   0  0  0  0  0  0  0  0  0  0  0  0
    5.2707   -0.9578   -1.0501 H   0  0  0  0  0  0  0  0  0  0  0  0
    3.9935   -4.4228   -0.6175 H   0  0  0  0  0  0  0  0  0  0  0  0
    8.1480   -5.2090    1.7020 H   0  0  0  0  0  0  0  0  0  0  0  0
    3.2258   -4.2073   -3.0043 H   0  0  0  0  0  0  0  0  0  0  0  0
    2.4107   -2.6902   -4.7146 H   0  0  0  0  0  0  0  0  0  0  0  0
  1  2  1  0
  1 17  1  0
  1 18  1  0
  1 19  1  0
  2  3  1  0
  3 16  2  0
  3  4  1  0
  4  5  2  0
  4 20  1  0
  5  6  1  0
  5 21  1  0
  6  7  1  0
  6 15  2  0
  7  8  2  3
  7 22  1  0
  8 13  1  0
  8  9  1  0
  9 10  1  0
 10 11  2  0
 10 12  1  0
 12 13  1  0
 12 23  1  0
 13 14  2  0
 15 16  1  0
 15 24  1  0
 16 25  1  0
M  END
>  <i_m_ct_stereo_status>  (116) 
1

>  <s_m_source_file>  (116) 
/var/tmp/pbs.5076255.sched01/tmppnbbzaq8/41bb87crku.sdf

>  <i_m_source_file_index>  (116) 
5

>  <i_lp_mmshare_version>  (116) 
48012

>  <i_f3d_flags>  (116) 
0

>  <s_epik_input>  (116) 
W0NIM11PYzFbY0hdW2NIXWMoW2NIXVtjSF0xKS9bQ0hdPUMyXFNDKD1PKVtOSF1DMj1T

>  <s_epik_cmdline>  (116) 
J2VwaWtfcHl0aG9uJywgJy1waHQnLCAnMi4wJywgJy1waCcsICc3LjAnLCAnLXRuJywgJzgnLCAnLW1hJywgJzIwMCcsICctaW1hZScsICc8aW5maWxlLm1hZT4nLCAnLW9tYWUnLCAnPG91dGZpbGUubWFlPic=

>  <r_epik_Ionization_Penalty>  (116) 
0.000913672

>  <r_epik_Ionization_Penalty_Charging>  (116) 
0

>  <r_epik_Ionization_Penalty_Neutral>  (116) 
0.000913672

>  <r_epik_State_Penalty>  (116) 
0.000591981

>  <r_epik_Charging_Adjusted_Penalty>  (116) 
0.000591981

>  <i_epik_Tot_Q>  (116) 
0

>  <i_epik_Tot_abs_Q>  (116) 
0

>  <s_lp_Force_Field>  (116) 
OPLS3e

>  <r_lp_Energy>  (116) 
20.3603

>  <b_lp_Chiralities_Consistent>  (116) 
1

>  <s_lp_Variant>  (116) 
33:0-1

>  <s_i_glide_gridfile>  (116) 
pfpi4k_grid

>  <i_i_glide_lignum>  (116) 
5

>  <i_i_glide_rotatable_bonds>  (116) 
2

>  <r_i_docking_score>  (116) 
-4.27658

>  <r_i_glide_ligand_efficiency>  (116) 
-0.267286

>  <r_i_glide_ligand_efficiency_sa>  (116) 
-0.673519

>  <r_i_glide_ligand_efficiency_ln>  (116) 
-1.13359

>  <r_i_glide_gscore>  (116) 
-4.27658

>  <r_i_glide_lipo>  (116) 
-0.54377

>  <r_i_glide_hbond>  (116) 
-0.091379

>  <r_i_glide_metal>  (116) 
-0

>  <r_i_glide_rewards>  (116) 
-2.20416

>  <r_i_glide_evdw>  (116) 
-26.537

>  <r_i_glide_ecoul>  (116) 
-2.58593

>  <r_i_glide_erotb>  (116) 
0.27747

>  <r_i_glide_esite>  (116) 
0

>  <r_i_glide_emodel>  (116) 
-35.8419

>  <r_i_glide_energy>  (116) 
-29.1229

>  <r_i_glide_einternal>  (116) 
1.26421

>  <r_i_glide_intrahb_reward>  (116) 
-0

>  <i_i_glide_confnum>  (116) 
2

>  <i_i_glide_posenum>  (116) 
4

>  <r_i_glide_eff_state_penalty>  (116) 
0

>  <ligand_id>  (116) 
33

>  <original_smiles>  (116) 
COc1ccc(C=C2SC(=O)NC2=S)cc1

>  <smiles>  (116) 
[H]C(=C1SC(=O)N([H])C1=S)c1c([H])c([H])c(OC([H])([H])[H])c([H])c1[H]

$$$$
33:0:1
     RDKit          3D

 25 26  0  0  1  0  0  0  0  0999 V2000
    3.4108    1.0502   -5.1725 C   0  0  0  0  0  0  0  0  0  0  0  0
    2.8620   -0.2190   -4.8603 O   0  0  0  0  0  0  0  0  0  0  0  0
    3.4591   -0.9537   -3.8643 C   0  0  0  0  0  0  0  0  0  0  0  0
    4.2153   -0.3909   -2.8074 C   0  0  0  0  0  0  0  0  0  0  0  0
    4.8091   -1.2140   -1.8338 C   0  0  0  0  0  0  0  0  0  0  0  0
    4.6456   -2.6123   -1.8813 C   0  0  0  0  0  0  0  0  0  0  0  0
    5.2855   -3.4621   -0.8709 C   0  0  0  0  0  0  0  0  0  0  0  0
    4.6435   -4.3024   -0.0255 C   0  0  0  0  0  0  0  0  0  0  0  0
    2.8883   -4.4918    0.1054 S   0  0  0  0  0  0  0  0  0  0  0  0
    3.0076   -5.6852    1.4217 C   0  0  0  0  0  0  0  0  0  0  0  0
    2.0392   -6.2148    1.9617 O   0  0  0  0  0  0  0  0  0  0  0  0
    4.3455   -5.8630    1.6893 N   0  0  0  0  0  0  0  0  0  0  0  0
    5.2721   -5.1698    0.9825 C   0  0  0  0  0  0  0  0  0  0  0  0
    6.9198   -5.2700    1.2399 S   0  0  0  0  0  0  0  0  0  0  0  0
    3.8885   -3.1686   -2.9307 C   0  0  0  0  0  0  0  0  0  0  0  0
    3.2872   -2.3498   -3.9036 C   0  0  0  0  0  0  0  0  0  0  0  0
    2.8078    1.4903   -5.9651 H   0  0  0  0  0  0  0  0  0  0  0  0
    4.4319    0.9484   -5.5351 H   0  0  0  0  0  0  0  0  0  0  0  0
    3.4159    1.7519   -4.3443 H   0  0  0  0  0  0  0  0  0  0  0  0
    4.3551    0.6761   -2.7302 H   0  0  0  0  0  0  0  0  0  0  0  0
    5.3823   -0.7707   -1.0315 H   0  0  0  0  0  0  0  0  0  0  0  0
    6.3651   -3.4103   -0.8702 H   0  0  0  0  0  0  0  0  0  0  0  0
    4.6107   -6.4929    2.4357 H   0  0  0  0  0  0  0  0  0  0  0  0
    3.7748   -4.2358   -2.9969 H   0  0  0  0  0  0  0  0  0  0  0  0
    2.7055   -2.7908   -4.6978 H   0  0  0  0  0  0  0  0  0  0  0  0
  1  2  1  0
  1 17  1  0
  1 18  1  0
  1 19  1  0
  2  3  1  0
  3 16  2  0
  3  4  1  0
  4  5  2  0
  4 20  1  0
  5  6  1  0
  5 21  1  0
  6  7  1  0
  6 15  2  0
  7  8  2  3
  7 22  1  0
  8 13  1  0
  8  9  1  0
  9 10  1  0
 10 11  2  0
 10 12  1  0
 12 13  1  0
 12 23  1  0
 13 14  2  0
 15 16  1  0
 15 24  1  0
 16 25  1  0
M  END
>  <i_m_ct_stereo_status>  (117) 
1

>  <s_m_source_file>  (117) 
/var/tmp/pbs.5076255.sched01/tmppnbbzaq8/41bb87crku.sdf

>  <i_m_source_file_index>  (117) 
5

>  <i_lp_mmshare_version>  (117) 
48012

>  <i_f3d_flags>  (117) 
0

>  <s_epik_input>  (117) 
W0NIM11PYzFbY0hdW2NIXWMoW2NIXVtjSF0xKS9bQ0hdPUMyXFNDKD1PKVtOSF1DMj1T

>  <s_epik_cmdline>  (117) 
J2VwaWtfcHl0aG9uJywgJy1waHQnLCAnMi4wJywgJy1waCcsICc3LjAnLCAnLXRuJywgJzgnLCAnLW1hJywgJzIwMCcsICctaW1hZScsICc8aW5maWxlLm1hZT4nLCAnLW9tYWUnLCAnPG91dGZpbGUubWFlPic=

>  <r_epik_Ionization_Penalty>  (117) 
0.000913672

>  <r_epik_Ionization_Penalty_Charging>  (117) 
0

>  <r_epik_Ionization_Penalty_Neutral>  (117) 
0.000913672

>  <r_epik_State_Penalty>  (117) 
0.000591981

>  <r_epik_Charging_Adjusted_Penalty>  (117) 
0.000591981

>  <i_epik_Tot_Q>  (117) 
0

>  <i_epik_Tot_abs_Q>  (117) 
0

>  <s_lp_Force_Field>  (117) 
OPLS3e

>  <r_lp_Energy>  (117) 
20.3603

>  <b_lp_Chiralities_Consistent>  (117) 
1

>  <s_lp_Variant>  (117) 
33:0-1

>  <s_i_glide_gridfile>  (117) 
pfpi4k_grid

>  <i_i_glide_lignum>  (117) 
5

>  <i_i_glide_rotatable_bonds>  (117) 
2

>  <r_i_docking_score>  (117) 
-3.74086

>  <r_i_glide_ligand_efficiency>  (117) 
-0.233804

>  <r_i_glide_ligand_efficiency_sa>  (117) 
-0.589149

>  <r_i_glide_ligand_efficiency_ln>  (117) 
-0.991591

>  <r_i_glide_gscore>  (117) 
-3.74086

>  <r_i_glide_lipo>  (117) 
-0.568547

>  <r_i_glide_hbond>  (117) 
0

>  <r_i_glide_metal>  (117) 
-0

>  <r_i_glide_rewards>  (117) 
-1.93148

>  <r_i_glide_evdw>  (117) 
-26.3448

>  <r_i_glide_ecoul>  (117) 
-1.34044

>  <r_i_glide_erotb>  (117) 
0.27747

>  <r_i_glide_esite>  (117) 
0

>  <r_i_glide_emodel>  (117) 
-32.2129

>  <r_i_glide_energy>  (117) 
-27.6852

>  <r_i_glide_einternal>  (117) 
3.5018

>  <r_i_glide_intrahb_reward>  (117) 
-0

>  <i_i_glide_confnum>  (117) 
2

>  <i_i_glide_posenum>  (117) 
2

>  <r_i_glide_eff_state_penalty>  (117) 
0

>  <ligand_id>  (117) 
33

>  <original_smiles>  (117) 
COc1ccc(C=C2SC(=O)NC2=S)cc1

>  <smiles>  (117) 
[H]C(=C1SC(=O)N([H])C1=S)c1c([H])c([H])c(OC([H])([H])[H])c([H])c1[H]

$$$$
33:0:2
     RDKit          3D

 25 26  0  0  1  0  0  0  0  0999 V2000
   -3.3856    3.3076   10.4794 C   0  0  0  0  0  0  0  0  0  0  0  0
   -3.5045    3.1523    9.0727 O   0  0  0  0  0  0  0  0  0  0  0  0
   -2.4516    3.5592    8.2846 C   0  0  0  0  0  0  0  0  0  0  0  0
   -1.2996    4.2404    8.7638 C   0  0  0  0  0  0  0  0  0  0  0  0
   -0.2767    4.6197    7.8731 C   0  0  0  0  0  0  0  0  0  0  0  0
   -0.3796    4.3301    6.4956 C   0  0  0  0  0  0  0  0  0  0  0  0
    0.7215    4.7032    5.5929 C   0  0  0  0  0  0  0  0  0  0  0  0
    1.2116    3.9621    4.5681 C   0  0  0  0  0  0  0  0  0  0  0  0
    0.7333    2.3088    4.1373 S   0  0  0  0  0  0  0  0  0  0  0  0
    1.8936    2.2032    2.8013 C   0  0  0  0  0  0  0  0  0  0  0  0
    2.0299    1.2200    2.0766 O   0  0  0  0  0  0  0  0  0  0  0  0
    2.5830    3.3897    2.7681 N   0  0  0  0  0  0  0  0  0  0  0  0
    2.2907    4.3669    3.6560 C   0  0  0  0  0  0  0  0  0  0  0  0
    3.0787    5.8328    3.7240 S   0  0  0  0  0  0  0  0  0  0  0  0
   -1.5240    3.6551    6.0260 C   0  0  0  0  0  0  0  0  0  0  0  0
   -2.5477    3.2776    6.9088 C   0  0  0  0  0  0  0  0  0  0  0  0
   -4.3002    2.9440   10.9481 H   0  0  0  0  0  0  0  0  0  0  0  0
   -3.2587    4.3536   10.7600 H   0  0  0  0  0  0  0  0  0  0  0  0
   -2.5561    2.7235   10.8752 H   0  0  0  0  0  0  0  0  0  0  0  0
   -1.1794    4.4760    9.8123 H   0  0  0  0  0  0  0  0  0  0  0  0
    0.5994    5.1254    8.2543 H   0  0  0  0  0  0  0  0  0  0  0  0
    1.1079    5.7007    5.7652 H   0  0  0  0  0  0  0  0  0  0  0  0
    3.3181    3.4979    2.0797 H   0  0  0  0  0  0  0  0  0  0  0  0
   -1.6358    3.4326    4.9766 H   0  0  0  0  0  0  0  0  0  0  0  0
   -3.4191    2.7698    6.5241 H   0  0  0  0  0  0  0  0  0  0  0  0
  1  2  1  0
  1 17  1  0
  1 18  1  0
  1 19  1  0
  2  3  1  0
  3 16  2  0
  3  4  1  0
  4  5  2  0
  4 20  1  0
  5  6  1  0
  5 21  1  0
  6  7  1  0
  6 15  2  0
  7  8  2  3
  7 22  1  0
  8 13  1  0
  8  9  1  0
  9 10  1  0
 10 11  2  0
 10 12  1  0
 12 13  1  0
 12 23  1  0
 13 14  2  0
 15 16  1  0
 15 24  1  0
 16 25  1  0
M  END
>  <i_m_ct_stereo_status>  (118) 
1

>  <s_m_source_file>  (118) 
/var/tmp/pbs.5076255.sched01/tmppnbbzaq8/41bb87crku.sdf

>  <i_m_source_file_index>  (118) 
5

>  <i_lp_mmshare_version>  (118) 
48012

>  <i_f3d_flags>  (118) 
0

>  <s_epik_input>  (118) 
W0NIM11PYzFbY0hdW2NIXWMoW2NIXVtjSF0xKS9bQ0hdPUMyXFNDKD1PKVtOSF1DMj1T

>  <s_epik_cmdline>  (118) 
J2VwaWtfcHl0aG9uJywgJy1waHQnLCAnMi4wJywgJy1waCcsICc3LjAnLCAnLXRuJywgJzgnLCAnLW1hJywgJzIwMCcsICctaW1hZScsICc8aW5maWxlLm1hZT4nLCAnLW9tYWUnLCAnPG91dGZpbGUubWFlPic=

>  <r_epik_Ionization_Penalty>  (118) 
0.000913672

>  <r_epik_Ionization_Penalty_Charging>  (118) 
0

>  <r_epik_Ionization_Penalty_Neutral>  (118) 
0.000913672

>  <r_epik_State_Penalty>  (118) 
0.000591981

>  <r_epik_Charging_Adjusted_Penalty>  (118) 
0.000591981

>  <i_epik_Tot_Q>  (118) 
0

>  <i_epik_Tot_abs_Q>  (118) 
0

>  <s_lp_Force_Field>  (118) 
OPLS3e

>  <r_lp_Energy>  (118) 
20.3603

>  <b_lp_Chiralities_Consistent>  (118) 
1

>  <s_lp_Variant>  (118) 
33:0-1

>  <s_i_glide_gridfile>  (118) 
pfpi4k_grid

>  <i_i_glide_lignum>  (118) 
5

>  <i_i_glide_rotatable_bonds>  (118) 
2

>  <r_i_docking_score>  (118) 
-3.4839

>  <r_i_glide_ligand_efficiency>  (118) 
-0.217744

>  <r_i_glide_ligand_efficiency_sa>  (118) 
-0.54868

>  <r_i_glide_ligand_efficiency_ln>  (118) 
-0.923478

>  <r_i_glide_gscore>  (118) 
-3.4839

>  <r_i_glide_lipo>  (118) 
-0.194999

>  <r_i_glide_hbond>  (118) 
-0.0820671

>  <r_i_glide_metal>  (118) 
-0

>  <r_i_glide_rewards>  (118) 
-1.7944

>  <r_i_glide_evdw>  (118) 
-21.5535

>  <r_i_glide_ecoul>  (118) 
-3.34812

>  <r_i_glide_erotb>  (118) 
0.27747

>  <r_i_glide_esite>  (118) 
-0.110012

>  <r_i_glide_emodel>  (118) 
-30.3166

>  <r_i_glide_energy>  (118) 
-24.9017

>  <r_i_glide_einternal>  (118) 
1.34527

>  <r_i_glide_intrahb_reward>  (118) 
-0

>  <i_i_glide_confnum>  (118) 
4

>  <i_i_glide_posenum>  (118) 
20

>  <r_i_glide_eff_state_penalty>  (118) 
0

>  <ligand_id>  (118) 
33

>  <original_smiles>  (118) 
COc1ccc(C=C2SC(=O)NC2=S)cc1

>  <smiles>  (118) 
[H]C(=C1SC(=O)N([H])C1=S)c1c([H])c([H])c(OC([H])([H])[H])c([H])c1[H]

$$$$
33:1:0
     RDKit          3D

 25 26  0  0  1  0  0  0  0  0999 V2000
   -3.5116    3.2989    8.5262 C   0  0  0  0  0  0  0  0  0  0  0  0
   -2.7534    3.7572    7.4236 O   0  0  0  0  0  0  0  0  0  0  0  0
   -2.1177    2.8275    6.6347 C   0  0  0  0  0  0  0  0  0  0  0  0
   -2.0722    1.4375    6.9218 C   0  0  0  0  0  0  0  0  0  0  0  0
   -1.3601    0.5664    6.0683 C   0  0  0  0  0  0  0  0  0  0  0  0
   -0.7250    1.0792    4.8991 C   0  0  0  0  0  0  0  0  0  0  0  0
    0.0994    0.1934    4.0665 C   0  0  0  0  0  0  0  0  0  0  0  0
    1.2286    0.4052    3.3517 C   0  0  0  0  0  0  0  0  0  0  0  0
    1.8324   -0.8806    2.3199 S   0  0  0  0  0  0  0  0  0  0  0  0
    3.1581    0.1112    1.6329 C   0  0  0  0  0  0  0  0  0  0  0  0
    4.0111   -0.2882    0.8529 O   0  0  0  0  0  0  0  0  0  0  0  0
    3.0173    1.3552    2.2007 N   0  0  0  0  0  0  0  0  0  0  0  0
    2.1442    1.5630    3.1890 C   0  0  0  0  0  0  0  0  0  0  0  0
    2.2139    2.9528    4.1020 S   0  0  0  0  0  0  0  0  0  0  0  0
   -0.8511    2.4471    4.5791 C   0  0  0  0  0  0  0  0  0  0  0  0
   -1.4916    3.3124    5.4713 C   0  0  0  0  0  0  0  0  0  0  0  0
   -3.9805    4.1675    8.9933 H   0  0  0  0  0  0  0  0  0  0  0  0
   -2.8565    2.8144    9.2534 H   0  0  0  0  0  0  0  0  0  0  0  0
   -4.2998    2.6159    8.1987 H   0  0  0  0  0  0  0  0  0  0  0  0
   -2.5712    1.0225    7.7952 H   0  0  0  0  0  0  0  0  0  0  0  0
   -1.2842   -0.5006    6.2877 H   0  0  0  0  0  0  0  0  0  0  0  0
   -0.3262   -0.7953    3.9783 H   0  0  0  0  0  0  0  0  0  0  0  0
    3.7698    2.0293    2.0195 H   0  0  0  0  0  0  0  0  0  0  0  0
   -0.4315    2.8443    3.6535 H   0  0  0  0  0  0  0  0  0  0  0  0
   -1.4773    4.3710    5.2695 H   0  0  0  0  0  0  0  0  0  0  0  0
  1  2  1  0
  1 17  1  0
  1 18  1  0
  1 19  1  0
  2  3  1  0
  3 16  2  0
  3  4  1  0
  4  5  2  0
  4 20  1  0
  5  6  1  0
  5 21  1  0
  6  7  1  0
  6 15  2  0
  7  8  2  3
  7 22  1  0
  8 13  1  0
  8  9  1  0
  9 10  1  0
 10 11  2  0
 10 12  1  0
 12 13  1  0
 12 23  1  0
 13 14  2  0
 15 16  1  0
 15 24  1  0
 16 25  1  0
M  END
>  <i_m_ct_stereo_status>  (119) 
1

>  <s_m_source_file>  (119) 
/var/tmp/pbs.5076255.sched01/tmppnbbzaq8/41bb87crku.sdf

>  <i_m_source_file_index>  (119) 
6

>  <i_lp_mmshare_version>  (119) 
48012

>  <i_f3d_flags>  (119) 
0

>  <s_epik_input>  (119) 
W0NIM11PYzFbY0hdW2NIXWMoW2NIXVtjSF0xKS9bQ0hdPUMyXFNDKD1PKVtOSF1DMj1T

>  <s_epik_cmdline>  (119) 
J2VwaWtfcHl0aG9uJywgJy1waHQnLCAnMi4wJywgJy1waCcsICc3LjAnLCAnLXRuJywgJzgnLCAnLW1hJywgJzIwMCcsICctaW1hZScsICc8aW5maWxlLm1hZT4nLCAnLW9tYWUnLCAnPG91dGZpbGUubWFlPic=

>  <r_epik_Ionization_Penalty>  (119) 
0.000913672

>  <r_epik_Ionization_Penalty_Charging>  (119) 
0

>  <r_epik_Ionization_Penalty_Neutral>  (119) 
0.000913672

>  <r_epik_State_Penalty>  (119) 
0.000591981

>  <r_epik_Charging_Adjusted_Penalty>  (119) 
0.000591981

>  <i_epik_Tot_Q>  (119) 
0

>  <i_epik_Tot_abs_Q>  (119) 
0

>  <s_lp_Force_Field>  (119) 
OPLS3e

>  <r_lp_Energy>  (119) 
24.8218

>  <b_lp_Chiralities_Consistent>  (119) 
1

>  <s_lp_Variant>  (119) 
33:0-2

>  <s_i_glide_gridfile>  (119) 
pfpi4k_grid

>  <i_i_glide_lignum>  (119) 
6

>  <i_i_glide_rotatable_bonds>  (119) 
2

>  <r_i_docking_score>  (119) 
-3.31688

>  <r_i_glide_ligand_efficiency>  (119) 
-0.207305

>  <r_i_glide_ligand_efficiency_sa>  (119) 
-0.522376

>  <r_i_glide_ligand_efficiency_ln>  (119) 
-0.879206

>  <r_i_glide_gscore>  (119) 
-3.31688

>  <r_i_glide_lipo>  (119) 
-0.107763

>  <r_i_glide_hbond>  (119) 
-0.32

>  <r_i_glide_metal>  (119) 
-0

>  <r_i_glide_rewards>  (119) 
-1.73946

>  <r_i_glide_evdw>  (119) 
-20.1566

>  <r_i_glide_ecoul>  (119) 
-2.65915

>  <r_i_glide_erotb>  (119) 
0.27747

>  <r_i_glide_esite>  (119) 
-0.020426

>  <r_i_glide_emodel>  (119) 
-26.9269

>  <r_i_glide_energy>  (119) 
-22.8157

>  <r_i_glide_einternal>  (119) 
0.187564

>  <r_i_glide_intrahb_reward>  (119) 
-0

>  <i_i_glide_confnum>  (119) 
2

>  <i_i_glide_posenum>  (119) 
19

>  <r_i_glide_eff_state_penalty>  (119) 
0

>  <ligand_id>  (119) 
33

>  <original_smiles>  (119) 
COc1ccc(C=C2SC(=O)NC2=S)cc1

>  <smiles>  (119) 
[H]C(=C1SC(=O)N([H])C1=S)c1c([H])c([H])c(OC([H])([H])[H])c([H])c1[H]

$$$$
33:1:1
     RDKit          3D

 25 26  0  0  1  0  0  0  0  0999 V2000
   -2.3140    2.5707    9.6746 C   0  0  0  0  0  0  0  0  0  0  0  0
   -2.5895    2.1447    8.3477 O   0  0  0  0  0  0  0  0  0  0  0  0
   -1.4864    1.8531    7.5817 C   0  0  0  0  0  0  0  0  0  0  0  0
   -1.6141    1.3534    6.3053 C   0  0  0  0  0  0  0  0  0  0  0  0
   -0.5132    0.9791    5.5948 C   0  0  0  0  0  0  0  0  0  0  0  0
    0.8031    1.2046    6.0191 C   0  0  0  0  0  0  0  0  0  0  0  0
    1.9805    0.8766    5.2191 C   0  0  0  0  0  0  0  0  0  0  0  0
    2.1314    0.6214    3.8975 C   0  0  0  0  0  0  0  0  0  0  0  0
    3.7216    0.1196    3.3042 S   0  0  0  0  0  0  0  0  0  0  0  0
    3.1507   -0.0824    1.6454 C   0  0  0  0  0  0  0  0  0  0  0  0
    3.8486   -0.4429    0.7033 O   0  0  0  0  0  0  0  0  0  0  0  0
    1.8376    0.2416    1.6425 N   0  0  0  0  0  0  0  0  0  0  0  0
    1.2242    0.6960    2.7013 C   0  0  0  0  0  0  0  0  0  0  0  0
   -0.3022    1.2934    2.3951 S   0  0  0  0  0  0  0  0  0  0  0  0
    0.9675    1.7184    7.3083 C   0  0  0  0  0  0  0  0  0  0  0  0
   -0.1593    2.0110    8.0826 C   0  0  0  0  0  0  0  0  0  0  0  0
   -3.2377    2.7803   10.1909 H   0  0  0  0  0  0  0  0  0  0  0  0
   -1.7146    3.4868    9.6930 H   0  0  0  0  0  0  0  0  0  0  0  0
   -1.7771    1.8077   10.2495 H   0  0  0  0  0  0  0  0  0  0  0  0
   -2.5921    1.1555    5.7958 H   0  0  0  0  0  0  0  0  0  0  0  0
   -0.6883    0.3914    4.7237 H   0  0  0  0  0  0  0  0  0  0  0  0
    2.8828    0.7742    5.8250 H   0  0  0  0  0  0  0  0  0  0  0  0
    1.3034    0.2238    0.7666 H   0  0  0  0  0  0  0  0  0  0  0  0
    1.9519    1.8445    7.7313 H   0  0  0  0  0  0  0  0  0  0  0  0
    0.0101    2.3666    9.0603 H   0  0  0  0  0  0  0  0  0  0  0  0
  1  2  1  0
  1 17  1  0
  1 18  1  0
  1 19  1  0
  2  3  1  0
  3 16  2  0
  3  4  1  0
  4  5  2  0
  4 20  1  0
  5  6  1  0
  5 21  1  0
  6  7  1  0
  6 15  2  0
  7  8  2  3
  7 22  1  0
  8 13  1  0
  8  9  1  0
  9 10  1  0
 10 11  2  0
 10 12  1  0
 12 13  1  0
 12 23  1  0
 13 14  2  0
 15 16  1  0
 15 24  1  0
 16 25  1  0
M  END
>  <i_m_ct_stereo_status>  (120) 
1

>  <s_m_source_file>  (120) 
/var/tmp/pbs.5076255.sched01/tmppnbbzaq8/41bb87crku.sdf

>  <i_m_source_file_index>  (120) 
6

>  <i_lp_mmshare_version>  (120) 
48012

>  <i_f3d_flags>  (120) 
0

>  <s_epik_input>  (120) 
W0NIM11PYzFbY0hdW2NIXWMoW2NIXVtjSF0xKS9bQ0hdPUMyXFNDKD1PKVtOSF1DMj1T

>  <s_epik_cmdline>  (120) 
J2VwaWtfcHl0aG9uJywgJy1waHQnLCAnMi4wJywgJy1waCcsICc3LjAnLCAnLXRuJywgJzgnLCAnLW1hJywgJzIwMCcsICctaW1hZScsICc8aW5maWxlLm1hZT4nLCAnLW9tYWUnLCAnPG91dGZpbGUubWFlPic=

>  <r_epik_Ionization_Penalty>  (120) 
0.000913672

>  <r_epik_Ionization_Penalty_Charging>  (120) 
0

>  <r_epik_Ionization_Penalty_Neutral>  (120) 
0.000913672

>  <r_epik_State_Penalty>  (120) 
0.000591981

>  <r_epik_Charging_Adjusted_Penalty>  (120) 
0.000591981

>  <i_epik_Tot_Q>  (120) 
0

>  <i_epik_Tot_abs_Q>  (120) 
0

>  <s_lp_Force_Field>  (120) 
OPLS3e

>  <r_lp_Energy>  (120) 
24.8218

>  <b_lp_Chiralities_Consistent>  (120) 
1

>  <s_lp_Variant>  (120) 
33:0-2

>  <s_i_glide_gridfile>  (120) 
pfpi4k_grid

>  <i_i_glide_lignum>  (120) 
6

>  <i_i_glide_rotatable_bonds>  (120) 
2

>  <r_i_docking_score>  (120) 
-3.05038

>  <r_i_glide_ligand_efficiency>  (120) 
-0.190649

>  <r_i_glide_ligand_efficiency_sa>  (120) 
-0.480405

>  <r_i_glide_ligand_efficiency_ln>  (120) 
-0.808564

>  <r_i_glide_gscore>  (120) 
-3.05038

>  <r_i_glide_lipo>  (120) 
0

>  <r_i_glide_hbond>  (120) 
-0.143543

>  <r_i_glide_metal>  (120) 
-0

>  <r_i_glide_rewards>  (120) 
-1.6955

>  <r_i_glide_evdw>  (120) 
-18.7222

>  <r_i_glide_ecoul>  (120) 
-2.69797

>  <r_i_glide_erotb>  (120) 
0.27747

>  <r_i_glide_esite>  (120) 
-0.165119

>  <r_i_glide_emodel>  (120) 
-20.9559

>  <r_i_glide_energy>  (120) 
-21.4202

>  <r_i_glide_einternal>  (120) 
3.4386

>  <r_i_glide_intrahb_reward>  (120) 
-0

>  <i_i_glide_confnum>  (120) 
5

>  <i_i_glide_posenum>  (120) 
10

>  <r_i_glide_eff_state_penalty>  (120) 
0

>  <ligand_id>  (120) 
33

>  <original_smiles>  (120) 
COc1ccc(C=C2SC(=O)NC2=S)cc1

>  <smiles>  (120) 
[H]C(=C1SC(=O)N([H])C1=S)c1c([H])c([H])c(OC([H])([H])[H])c([H])c1[H]

$$$$
33:1:2
     RDKit          3D

 25 26  0  0  1  0  0  0  0  0999 V2000
   -3.2588    3.4589    8.9995 C   0  0  0  0  0  0  0  0  0  0  0  0
   -2.0979    3.8133    8.3133 O   0  0  0  0  0  0  0  0  0  0  0  0
   -1.6513    2.9158    7.3772 C   0  0  0  0  0  0  0  0  0  0  0  0
   -2.3338    1.7573    6.9083 C   0  0  0  0  0  0  0  0  0  0  0  0
   -1.7776    0.8982    5.9352 C   0  0  0  0  0  0  0  0  0  0  0  0
   -0.4807    1.1717    5.4514 C   0  0  0  0  0  0  0  0  0  0  0  0
    0.1599    0.3173    4.4312 C   0  0  0  0  0  0  0  0  0  0  0  0
    1.2460    0.5180    3.6351 C   0  0  0  0  0  0  0  0  0  0  0  0
    1.6797   -0.7787    2.5023 S   0  0  0  0  0  0  0  0  0  0  0  0
    3.0000    0.1356    1.7769 C   0  0  0  0  0  0  0  0  0  0  0  0
    3.7422   -0.2379    0.8756 O   0  0  0  0  0  0  0  0  0  0  0  0
    3.0440    1.3251    2.4164 N   0  0  0  0  0  0  0  0  0  0  0  0
    2.1978    1.6482    3.3729 C   0  0  0  0  0  0  0  0  0  0  0  0
    2.5145    3.2000    3.8949 S   0  0  0  0  0  0  0  0  0  0  0  0
    0.1857    2.2755    5.9886 C   0  0  0  0  0  0  0  0  0  0  0  0
   -0.3794    3.1812    6.8690 C   0  0  0  0  0  0  0  0  0  0  0  0
   -3.4844    4.2687    9.6788 H   0  0  0  0  0  0  0  0  0  0  0  0
   -3.1177    2.5501    9.5832 H   0  0  0  0  0  0  0  0  0  0  0  0
   -4.1039    3.3353    8.3255 H   0  0  0  0  0  0  0  0  0  0  0  0
   -3.2937    1.5217    7.2652 H   0  0  0  0  0  0  0  0  0  0  0  0
   -2.2909    0.0231    5.5710 H   0  0  0  0  0  0  0  0  0  0  0  0
   -0.3268   -0.6598    4.3440 H   0  0  0  0  0  0  0  0  0  0  0  0
    3.7486    2.0118    2.2167 H   0  0  0  0  0  0  0  0  0  0  0  0
    1.2236    2.3785    5.8677 H   0  0  0  0  0  0  0  0  0  0  0  0
    0.2460    4.0140    7.1961 H   0  0  0  0  0  0  0  0  0  0  0  0
  1  2  1  0
  1 17  1  0
  1 18  1  0
  1 19  1  0
  2  3  1  0
  3 16  2  0
  3  4  1  0
  4  5  2  0
  4 20  1  0
  5  6  1  0
  5 21  1  0
  6  7  1  0
  6 15  2  0
  7  8  2  3
  7 22  1  0
  8 13  1  0
  8  9  1  0
  9 10  1  0
 10 11  2  0
 10 12  1  0
 12 13  1  0
 12 23  1  0
 13 14  2  0
 15 16  1  0
 15 24  1  0
 16 25  1  0
M  END
>  <i_m_ct_stereo_status>  (121) 
1

>  <s_m_source_file>  (121) 
/var/tmp/pbs.5076255.sched01/tmppnbbzaq8/41bb87crku.sdf

>  <i_m_source_file_index>  (121) 
6

>  <i_lp_mmshare_version>  (121) 
48012

>  <i_f3d_flags>  (121) 
0

>  <s_epik_input>  (121) 
W0NIM11PYzFbY0hdW2NIXWMoW2NIXVtjSF0xKS9bQ0hdPUMyXFNDKD1PKVtOSF1DMj1T

>  <s_epik_cmdline>  (121) 
J2VwaWtfcHl0aG9uJywgJy1waHQnLCAnMi4wJywgJy1waCcsICc3LjAnLCAnLXRuJywgJzgnLCAnLW1hJywgJzIwMCcsICctaW1hZScsICc8aW5maWxlLm1hZT4nLCAnLW9tYWUnLCAnPG91dGZpbGUubWFlPic=

>  <r_epik_Ionization_Penalty>  (121) 
0.000913672

>  <r_epik_Ionization_Penalty_Charging>  (121) 
0

>  <r_epik_Ionization_Penalty_Neutral>  (121) 
0.000913672

>  <r_epik_State_Penalty>  (121) 
0.000591981

>  <r_epik_Charging_Adjusted_Penalty>  (121) 
0.000591981

>  <i_epik_Tot_Q>  (121) 
0

>  <i_epik_Tot_abs_Q>  (121) 
0

>  <s_lp_Force_Field>  (121) 
OPLS3e

>  <r_lp_Energy>  (121) 
24.8218

>  <b_lp_Chiralities_Consistent>  (121) 
1

>  <s_lp_Variant>  (121) 
33:0-2

>  <s_i_glide_gridfile>  (121) 
pfpi4k_grid

>  <i_i_glide_lignum>  (121) 
6

>  <i_i_glide_rotatable_bonds>  (121) 
2

>  <r_i_docking_score>  (121) 
-2.9502

>  <r_i_glide_ligand_efficiency>  (121) 
-0.184388

>  <r_i_glide_ligand_efficiency_sa>  (121) 
-0.464628

>  <r_i_glide_ligand_efficiency_ln>  (121) 
-0.78201

>  <r_i_glide_gscore>  (121) 
-2.9502

>  <r_i_glide_lipo>  (121) 
-0.0573055

>  <r_i_glide_hbond>  (121) 
-0.32

>  <r_i_glide_metal>  (121) 
-0

>  <r_i_glide_rewards>  (121) 
-1.71389

>  <r_i_glide_evdw>  (121) 
-18.7731

>  <r_i_glide_ecoul>  (121) 
-2.77174

>  <r_i_glide_erotb>  (121) 
0.27747

>  <r_i_glide_esite>  (121) 
-0.0368076

>  <r_i_glide_emodel>  (121) 
-21.5711

>  <r_i_glide_energy>  (121) 
-21.5448

>  <r_i_glide_einternal>  (121) 
1.03352

>  <r_i_glide_intrahb_reward>  (121) 
-0

>  <i_i_glide_confnum>  (121) 
2

>  <i_i_glide_posenum>  (121) 
14

>  <r_i_glide_eff_state_penalty>  (121) 
0

>  <ligand_id>  (121) 
33

>  <original_smiles>  (121) 
COc1ccc(C=C2SC(=O)NC2=S)cc1

>  <smiles>  (121) 
[H]C(=C1SC(=O)N([H])C1=S)c1c([H])c([H])c(OC([H])([H])[H])c([H])c1[H]

$$$$
34:0:0
     RDKit          3D

 40 43  0  0  1  0  0  0  0  0999 V2000
    6.5980   -8.1624    1.7095 C   0  0  0  0  0  0  0  0  0  0  0  0
    7.7963   -7.5019    1.3124 O   0  0  0  0  0  0  0  0  0  0  0  0
    7.8194   -6.1711    0.9674 C   0  0  0  0  0  0  0  0  0  0  0  0
    8.8593   -5.5574    0.7585 O   0  0  0  0  0  0  0  0  0  0  0  0
    6.5134   -5.6632    0.8803 N   0  0  0  0  0  0  0  0  0  0  0  0
    6.0819   -4.2839    0.6131 C   0  0  2  0  0  0  0  0  0  0  0  0
    7.2712   -3.3144    0.4383 C   0  0  0  0  0  0  0  0  0  0  0  0
    6.7857   -1.8939    0.1920 C   0  0  2  0  0  0  0  0  0  0  0  0
    5.9428   -1.4228    1.3897 C   0  0  0  0  0  0  0  0  0  0  0  0
    4.7182   -2.3472    1.5369 C   0  0  2  0  0  0  0  0  0  0  0  0
    5.1939   -3.7978    1.7908 C   0  0  0  0  0  0  0  0  0  0  0  0
    3.8676   -2.3135    0.2468 C   0  0  1  0  0  0  0  0  0  0  0  0
    3.3578   -0.9987    0.0669 O   0  0  0  0  0  0  0  0  0  0  0  0
    4.7238   -2.8025   -0.9633 C   0  0  1  0  0  0  0  0  0  0  0  0
    3.9301   -2.7949   -2.2133 N   0  0  0  0  0  0  0  0  0  0  0  0
    2.6110   -3.0545   -2.2336 N   0  0  0  0  0  0  0  0  0  0  0  0
    2.3972   -2.9865   -3.5428 C   0  0  0  0  0  0  0  0  0  0  0  0
    3.4963   -2.7735   -4.2798 N   0  0  0  0  0  0  0  0  0  0  0  0
    4.4958   -2.6772   -3.4380 N   0  0  0  0  0  0  0  0  0  0  0  0
    5.9650   -1.8845   -1.1118 C   0  0  0  0  0  0  0  0  0  0  0  0
    5.2048   -4.2503   -0.6704 C   0  0  0  0  0  0  0  0  0  0  0  0
    6.8277   -9.2039    1.9326 H   0  0  0  0  0  0  0  0  0  0  0  0
    5.8502   -8.1249    0.9068 H   0  0  0  0  0  0  0  0  0  0  0  0
    6.1926   -7.6815    2.6091 H   0  0  0  0  0  0  0  0  0  0  0  0
    5.7711   -6.3188    1.0361 H   0  0  0  0  0  0  0  0  0  0  0  0
    7.8910   -3.3228    1.3317 H   0  0  0  0  0  0  0  0  0  0  0  0
    7.8982   -3.6235   -0.4018 H   0  0  0  0  0  0  0  0  0  0  0  0
    7.6552   -1.2479    0.0875 H   0  0  0  0  0  0  0  0  0  0  0  0
    6.5378   -1.4635    2.2984 H   0  0  0  0  0  0  0  0  0  0  0  0
    5.6430   -0.3792    1.2618 H   0  0  0  0  0  0  0  0  0  0  0  0
    4.1014   -2.0111    2.3740 H   0  0  0  0  0  0  0  0  0  0  0  0
    4.3239   -4.4457    1.9202 H   0  0  0  0  0  0  0  0  0  0  0  0
    5.7379   -3.8426    2.7295 H   0  0  0  0  0  0  0  0  0  0  0  0
    3.0026   -2.9665    0.3900 H   0  0  0  0  0  0  0  0  0  0  0  0
    2.4900   -1.0516   -0.3221 H   0  0  0  0  0  0  0  0  0  0  0  0
    1.4020   -3.1021   -3.9675 H   0  0  0  0  0  0  0  0  0  0  0  0
    5.6674   -0.8652   -1.3760 H   0  0  0  0  0  0  0  0  0  0  0  0
    6.6077   -2.2476   -1.9189 H   0  0  0  0  0  0  0  0  0  0  0  0
    5.7701   -4.6322   -1.5180 H   0  0  0  0  0  0  0  0  0  0  0  0
    4.3444   -4.9172   -0.5701 H   0  0  0  0  0  0  0  0  0  0  0  0
  1  2  1  0
  1 22  1  0
  1 23  1  0
  1 24  1  0
  2  3  1  0
  3  4  2  0
  3  5  1  0
  6  5  1  1
  5 25  1  0
  6 11  1  0
  6 21  1  0
  6  7  1  0
  7  8  1  0
  7 26  1  0
  7 27  1  0
  8 20  1  0
  8  9  1  0
  8 28  1  6
  9 10  1  0
  9 29  1  0
  9 30  1  0
 10 11  1  0
 10 12  1  0
 10 31  1  1
 11 32  1  0
 11 33  1  0
 12 13  1  0
 12 14  1  0
 12 34  1  1
 13 35  1  0
 14 15  1  6
 14 20  1  0
 14 21  1  0
 15 19  1  0
 15 16  1  0
 16 17  2  0
 17 18  1  0
 17 36  1  0
 18 19  2  0
 20 37  1  0
 20 38  1  0
 21 39  1  0
 21 40  1  0
M  END
>  <i_m_ct_stereo_status>  (122) 
1

>  <s_m_source_file>  (122) 
/var/tmp/pbs.5076255.sched01/tmppnbbzaq8/41bb87crku.sdf

>  <i_m_source_file_index>  (122) 
7

>  <i_lp_mmshare_version>  (122) 
48012

>  <i_f3d_flags>  (122) 
0

>  <s_epik_input>  (122) 
W0NIM11PQyg9TylbTkhdW0NAXTEyW0NIMl1bQ0BASF0zW0NIMl1bQ0BIXShbQ0gyXTEpW0NAQEhdKFtPSF0pW0NAQF0oW0NIMl0zKShbQ0gyXTIpbjRuW2NIXW5uNA==

>  <s_epik_cmdline>  (122) 
J2VwaWtfcHl0aG9uJywgJy1waHQnLCAnMi4wJywgJy1waCcsICc3LjAnLCAnLXRuJywgJzgnLCAnLW1hJywgJzIwMCcsICctaW1hZScsICc8aW5maWxlLm1hZT4nLCAnLW9tYWUnLCAnPG91dGZpbGUubWFlPic=

>  <r_lp_tautomer_probability>  (122) 
1

>  <r_epik_Ionization_Penalty>  (122) 
2.97606e-05

>  <r_epik_Ionization_Penalty_Charging>  (122) 
0

>  <r_epik_Ionization_Penalty_Neutral>  (122) 
2.97606e-05

>  <r_epik_State_Penalty>  (122) 
-0

>  <r_epik_Charging_Adjusted_Penalty>  (122) 
0

>  <i_epik_Tot_Q>  (122) 
0

>  <i_epik_Tot_abs_Q>  (122) 
0

>  <s_epik_Chemistry_Notes>  (122) 
This compound has an ester and may undergo hydrolysis at high or low pH.

>  <s_lp_Force_Field>  (122) 
OPLS3e

>  <r_lp_Energy>  (122) 
4.71332

>  <b_lp_Chiralities_Consistent>  (122) 
1

>  <s_lp_Variant>  (122) 
34:0-1

>  <s_i_glide_gridfile>  (122) 
pfpi4k_grid

>  <i_i_glide_lignum>  (122) 
7

>  <i_i_glide_rotatable_bonds>  (122) 
5

>  <r_i_docking_score>  (122) 
-4.47271

>  <r_i_glide_ligand_efficiency>  (122) 
-0.212986

>  <r_i_glide_ligand_efficiency_sa>  (122) 
-0.587613

>  <r_i_glide_ligand_efficiency_ln>  (122) 
-1.10587

>  <r_i_glide_gscore>  (122) 
-4.47271

>  <r_i_glide_lipo>  (122) 
-0.674497

>  <r_i_glide_hbond>  (122) 
-0.16

>  <r_i_glide_metal>  (122) 
-0

>  <r_i_glide_rewards>  (122) 
-1.73293

>  <r_i_glide_evdw>  (122) 
-30.4039

>  <r_i_glide_ecoul>  (122) 
-6.4452

>  <r_i_glide_erotb>  (122) 
0.637082

>  <r_i_glide_esite>  (122) 
-0.0553953

>  <r_i_glide_emodel>  (122) 
-41.2382

>  <r_i_glide_energy>  (122) 
-36.8491

>  <r_i_glide_einternal>  (122) 
11.8633

>  <r_i_glide_intrahb_reward>  (122) 
-0

>  <i_i_glide_confnum>  (122) 
3

>  <i_i_glide_posenum>  (122) 
23

>  <r_i_glide_eff_state_penalty>  (122) 
0

>  <ligand_id>  (122) 
34

>  <original_smiles>  (122) 
COC(=O)NC12CC3CC(C1)C(O)C(n1ncnn1)(C3)C2

>  <smiles>  (122) 
[H]OC1([H])C2([H])C([H])([H])C3([H])C([H])([H])C(N([H])C(=O)OC([H])([H])[H])(C2([H])[H])C([H])([H])C1(n1nnc([H])n1)C3([H])[H]

$$$$
34:0:1
     RDKit          3D

 40 43  0  0  1  0  0  0  0  0999 V2000
    3.2565    0.1815   -4.3621 C   0  0  0  0  0  0  0  0  0  0  0  0
    3.4302   -1.1895   -4.6751 O   0  0  0  0  0  0  0  0  0  0  0  0
    3.7913   -2.1017   -3.7396 C   0  0  0  0  0  0  0  0  0  0  0  0
    3.9012   -3.2947   -4.0157 O   0  0  0  0  0  0  0  0  0  0  0  0
    4.0358   -1.5017   -2.5021 N   0  0  0  0  0  0  0  0  0  0  0  0
    4.5146   -2.1573   -1.2971 C   0  0  2  0  0  0  0  0  0  0  0  0
    4.7193   -1.0653   -0.2161 C   0  0  0  0  0  0  0  0  0  0  0  0
    5.2302   -1.7153    1.0777 C   0  0  2  0  0  0  0  0  0  0  0  0
    6.5703   -2.4215    0.7934 C   0  0  0  0  0  0  0  0  0  0  0  0
    6.3554   -3.5268   -0.2575 C   0  0  2  0  0  0  0  0  0  0  0  0
    5.8623   -2.8793   -1.5557 C   0  0  0  0  0  0  0  0  0  0  0  0
    5.3027   -4.5621    0.2250 C   0  0  1  0  0  0  0  0  0  0  0  0
    5.8231   -5.2688    1.3390 O   0  0  0  0  0  0  0  0  0  0  0  0
    3.9443   -3.8486    0.5213 C   0  0  1  0  0  0  0  0  0  0  0  0
    2.9168   -4.8088    0.9800 N   0  0  0  0  0  0  0  0  0  0  0  0
    2.7849   -5.1970    2.2664 N   0  0  0  0  0  0  0  0  0  0  0  0
    1.8151   -6.0941    2.1495 C   0  0  0  0  0  0  0  0  0  0  0  0
    1.3723   -6.2586    0.8712 N   0  0  0  0  0  0  0  0  0  0  0  0
    2.0865   -5.4716    0.1340 N   0  0  0  0  0  0  0  0  0  0  0  0
    4.1772   -2.7275    1.5802 C   0  0  0  0  0  0  0  0  0  0  0  0
    3.4669   -3.1604   -0.7829 C   0  0  0  0  0  0  0  0  0  0  0  0
    2.9464    0.7420   -5.2397 H   0  0  0  0  0  0  0  0  0  0  0  0
    4.1903    0.6072   -3.9846 H   0  0  0  0  0  0  0  0  0  0  0  0
    2.4869    0.2793   -3.5921 H   0  0  0  0  0  0  0  0  0  0  0  0
    3.8289   -0.5178   -2.4238 H   0  0  0  0  0  0  0  0  0  0  0  0
    5.4268   -0.3071   -0.5526 H   0  0  0  0  0  0  0  0  0  0  0  0
    3.7834   -0.5401   -0.0138 H   0  0  0  0  0  0  0  0  0  0  0  0
    5.3800   -0.9482    1.8393 H   0  0  0  0  0  0  0  0  0  0  0  0
    7.3053   -1.6995    0.4344 H   0  0  0  0  0  0  0  0  0  0  0  0
    6.9788   -2.8562    1.7026 H   0  0  0  0  0  0  0  0  0  0  0  0
    7.3025   -4.0306   -0.4556 H   0  0  0  0  0  0  0  0  0  0  0  0
    5.7759   -3.6676   -2.3026 H   0  0  0  0  0  0  0  0  0  0  0  0
    6.6020   -2.1760   -1.9337 H   0  0  0  0  0  0  0  0  0  0  0  0
    5.1476   -5.3058   -0.5590 H   0  0  0  0  0  0  0  0  0  0  0  0
    5.1542   -5.8434    1.6828 H   0  0  0  0  0  0  0  0  0  0  0  0
    1.3977   -6.6116    3.0059 H   0  0  0  0  0  0  0  0  0  0  0  0
    4.5211   -3.1456    2.5273 H   0  0  0  0  0  0  0  0  0  0  0  0
    3.2374   -2.2070    1.7840 H   0  0  0  0  0  0  0  0  0  0  0  0
    2.5139   -2.6540   -0.6203 H   0  0  0  0  0  0  0  0  0  0  0  0
    3.2898   -3.9104   -1.5527 H   0  0  0  0  0  0  0  0  0  0  0  0
  1  2  1  0
  1 22  1  0
  1 23  1  0
  1 24  1  0
  2  3  1  0
  3  4  2  0
  3  5  1  0
  6  5  1  6
  5 25  1  0
  6 11  1  0
  6 21  1  0
  6  7  1  0
  7  8  1  0
  7 26  1  0
  7 27  1  0
  8 20  1  0
  8  9  1  0
  8 28  1  1
  9 10  1  0
  9 29  1  0
  9 30  1  0
 10 11  1  0
 10 12  1  0
 10 31  1  6
 11 32  1  0
 11 33  1  0
 12 13  1  0
 12 14  1  0
 12 34  1  6
 13 35  1  0
 14 15  1  1
 14 20  1  0
 14 21  1  0
 15 19  1  0
 15 16  1  0
 16 17  2  0
 17 18  1  0
 17 36  1  0
 18 19  2  0
 20 37  1  0
 20 38  1  0
 21 39  1  0
 21 40  1  0
M  END
>  <i_m_ct_stereo_status>  (123) 
1

>  <s_m_source_file>  (123) 
/var/tmp/pbs.5076255.sched01/tmppnbbzaq8/41bb87crku.sdf

>  <i_m_source_file_index>  (123) 
7

>  <i_lp_mmshare_version>  (123) 
48012

>  <i_f3d_flags>  (123) 
0

>  <s_epik_input>  (123) 
W0NIM11PQyg9TylbTkhdW0NAXTEyW0NIMl1bQ0BASF0zW0NIMl1bQ0BIXShbQ0gyXTEpW0NAQEhdKFtPSF0pW0NAQF0oW0NIMl0zKShbQ0gyXTIpbjRuW2NIXW5uNA==

>  <s_epik_cmdline>  (123) 
J2VwaWtfcHl0aG9uJywgJy1waHQnLCAnMi4wJywgJy1waCcsICc3LjAnLCAnLXRuJywgJzgnLCAnLW1hJywgJzIwMCcsICctaW1hZScsICc8aW5maWxlLm1hZT4nLCAnLW9tYWUnLCAnPG91dGZpbGUubWFlPic=

>  <r_lp_tautomer_probability>  (123) 
1

>  <r_epik_Ionization_Penalty>  (123) 
2.97606e-05

>  <r_epik_Ionization_Penalty_Charging>  (123) 
0

>  <r_epik_Ionization_Penalty_Neutral>  (123) 
2.97606e-05

>  <r_epik_State_Penalty>  (123) 
-0

>  <r_epik_Charging_Adjusted_Penalty>  (123) 
0

>  <i_epik_Tot_Q>  (123) 
0

>  <i_epik_Tot_abs_Q>  (123) 
0

>  <s_epik_Chemistry_Notes>  (123) 
This compound has an ester and may undergo hydrolysis at high or low pH.

>  <s_lp_Force_Field>  (123) 
OPLS3e

>  <r_lp_Energy>  (123) 
4.71332

>  <b_lp_Chiralities_Consistent>  (123) 
1

>  <s_lp_Variant>  (123) 
34:0-1

>  <s_i_glide_gridfile>  (123) 
pfpi4k_grid

>  <i_i_glide_lignum>  (123) 
7

>  <i_i_glide_rotatable_bonds>  (123) 
5

>  <r_i_docking_score>  (123) 
-4.20896

>  <r_i_glide_ligand_efficiency>  (123) 
-0.200427

>  <r_i_glide_ligand_efficiency_sa>  (123) 
-0.552962

>  <r_i_glide_ligand_efficiency_ln>  (123) 
-1.04066

>  <r_i_glide_gscore>  (123) 
-4.20896

>  <r_i_glide_lipo>  (123) 
-0.430569

>  <r_i_glide_hbond>  (123) 
-0.37364

>  <r_i_glide_metal>  (123) 
-0

>  <r_i_glide_rewards>  (123) 
-1.63087

>  <r_i_glide_evdw>  (123) 
-32.449

>  <r_i_glide_ecoul>  (123) 
-3.69867

>  <r_i_glide_erotb>  (123) 
0.637082

>  <r_i_glide_esite>  (123) 
-0.233713

>  <r_i_glide_emodel>  (123) 
-43.9632

>  <r_i_glide_energy>  (123) 
-36.1476

>  <r_i_glide_einternal>  (123) 
4.55414

>  <r_i_glide_intrahb_reward>  (123) 
-0

>  <i_i_glide_confnum>  (123) 
4

>  <i_i_glide_posenum>  (123) 
40

>  <r_i_glide_eff_state_penalty>  (123) 
0

>  <ligand_id>  (123) 
34

>  <original_smiles>  (123) 
COC(=O)NC12CC3CC(C1)C(O)C(n1ncnn1)(C3)C2

>  <smiles>  (123) 
[H]OC1([H])C2([H])C([H])([H])C3([H])C([H])([H])C(N([H])C(=O)OC([H])([H])[H])(C2([H])[H])C([H])([H])C1(n1nnc([H])n1)C3([H])[H]

$$$$
34:0:2
     RDKit          3D

 40 43  0  0  1  0  0  0  0  0999 V2000
    3.0156    0.3346   -5.5373 C   0  0  0  0  0  0  0  0  0  0  0  0
    3.5847    0.2892   -4.2523 O   0  0  0  0  0  0  0  0  0  0  0  0
    3.8302   -0.8970   -3.7028 C   0  0  0  0  0  0  0  0  0  0  0  0
    3.8211   -1.9642   -4.3160 O   0  0  0  0  0  0  0  0  0  0  0  0
    4.1016   -0.6932   -2.3582 N   0  0  0  0  0  0  0  0  0  0  0  0
    4.4050   -1.7326   -1.3710 C   0  0  2  0  0  0  0  0  0  0  0  0
    5.7895   -2.3488   -1.6842 C   0  0  0  0  0  0  0  0  0  0  0  0
    6.1325   -3.4165   -0.6348 C   0  0  2  0  0  0  0  0  0  0  0  0
    5.0599   -4.5234   -0.6793 C   0  0  0  0  0  0  0  0  0  0  0  0
    3.6879   -3.9193   -0.3233 C   0  0  2  0  0  0  0  0  0  0  0  0
    3.3244   -2.8482   -1.3600 C   0  0  0  0  0  0  0  0  0  0  0  0
    3.7326   -3.2921    1.0789 C   0  0  1  0  0  0  0  0  0  0  0  0
    3.9833   -4.3267    2.0195 O   0  0  0  0  0  0  0  0  0  0  0  0
    4.8073   -2.1522    1.1272 C   0  0  1  0  0  0  0  0  0  0  0  0
    4.8512   -1.5049    2.4520 N   0  0  0  0  0  0  0  0  0  0  0  0
    3.8823   -1.6429    3.3819 N   0  0  0  0  0  0  0  0  0  0  0  0
    4.3580   -0.8661    4.3403 C   0  0  0  0  0  0  0  0  0  0  0  0
    5.5153   -0.2312    4.0049 N   0  0  0  0  0  0  0  0  0  0  0  0
    5.8147   -0.6292    2.8118 N   0  0  0  0  0  0  0  0  0  0  0  0
    6.1925   -2.7607    0.7617 C   0  0  0  0  0  0  0  0  0  0  0  0
    4.4504   -1.0913    0.0463 C   0  0  0  0  0  0  0  0  0  0  0  0
    2.9417    1.3687   -5.8745 H   0  0  0  0  0  0  0  0  0  0  0  0
    2.0076   -0.0979   -5.5054 H   0  0  0  0  0  0  0  0  0  0  0  0
    3.6005   -0.2307   -6.2631 H   0  0  0  0  0  0  0  0  0  0  0  0
    4.0227    0.2648   -2.0532 H   0  0  0  0  0  0  0  0  0  0  0  0
    5.7992   -2.8002   -2.6766 H   0  0  0  0  0  0  0  0  0  0  0  0
    6.5534   -1.5739   -1.6896 H   0  0  0  0  0  0  0  0  0  0  0  0
    7.1042   -3.8471   -0.8720 H   0  0  0  0  0  0  0  0  0  0  0  0
    5.0151   -4.9632   -1.6751 H   0  0  0  0  0  0  0  0  0  0  0  0
    5.3191   -5.3382   -0.0031 H   0  0  0  0  0  0  0  0  0  0  0  0
    2.9250   -4.6969   -0.3401 H   0  0  0  0  0  0  0  0  0  0  0  0
    2.3460   -2.4289   -1.1338 H   0  0  0  0  0  0  0  0  0  0  0  0
    3.2281   -3.3439   -2.3230 H   0  0  0  0  0  0  0  0  0  0  0  0
    2.7471   -2.8765    1.3072 H   0  0  0  0  0  0  0  0  0  0  0  0
    4.8523   -4.6690    1.8577 H   0  0  0  0  0  0  0  0  0  0  0  0
    3.8710   -0.7578    5.3010 H   0  0  0  0  0  0  0  0  0  0  0  0
    6.5051   -3.4913    1.5096 H   0  0  0  0  0  0  0  0  0  0  0  0
    6.9632   -1.9866    0.7580 H   0  0  0  0  0  0  0  0  0  0  0  0
    5.1785   -0.2769    0.0658 H   0  0  0  0  0  0  0  0  0  0  0  0
    3.4887   -0.6313    0.2847 H   0  0  0  0  0  0  0  0  0  0  0  0
  1  2  1  0
  1 22  1  0
  1 23  1  0
  1 24  1  0
  2  3  1  0
  3  4  2  0
  3  5  1  0
  6  5  1  6
  5 25  1  0
  6 11  1  0
  6 21  1  0
  6  7  1  0
  7  8  1  0
  7 26  1  0
  7 27  1  0
  8 20  1  0
  8  9  1  0
  8 28  1  6
  9 10  1  0
  9 29  1  0
  9 30  1  0
 10 11  1  0
 10 12  1  0
 10 31  1  1
 11 32  1  0
 11 33  1  0
 12 13  1  0
 12 14  1  0
 12 34  1  1
 13 35  1  0
 14 15  1  1
 14 20  1  0
 14 21  1  0
 15 19  1  0
 15 16  1  0
 16 17  2  0
 17 18  1  0
 17 36  1  0
 18 19  2  0
 20 37  1  0
 20 38  1  0
 21 39  1  0
 21 40  1  0
M  END
>  <i_m_ct_stereo_status>  (124) 
1

>  <s_m_source_file>  (124) 
/var/tmp/pbs.5076255.sched01/tmppnbbzaq8/41bb87crku.sdf

>  <i_m_source_file_index>  (124) 
7

>  <i_lp_mmshare_version>  (124) 
48012

>  <i_f3d_flags>  (124) 
0

>  <s_epik_input>  (124) 
W0NIM11PQyg9TylbTkhdW0NAXTEyW0NIMl1bQ0BASF0zW0NIMl1bQ0BIXShbQ0gyXTEpW0NAQEhdKFtPSF0pW0NAQF0oW0NIMl0zKShbQ0gyXTIpbjRuW2NIXW5uNA==

>  <s_epik_cmdline>  (124) 
J2VwaWtfcHl0aG9uJywgJy1waHQnLCAnMi4wJywgJy1waCcsICc3LjAnLCAnLXRuJywgJzgnLCAnLW1hJywgJzIwMCcsICctaW1hZScsICc8aW5maWxlLm1hZT4nLCAnLW9tYWUnLCAnPG91dGZpbGUubWFlPic=

>  <r_lp_tautomer_probability>  (124) 
1

>  <r_epik_Ionization_Penalty>  (124) 
2.97606e-05

>  <r_epik_Ionization_Penalty_Charging>  (124) 
0

>  <r_epik_Ionization_Penalty_Neutral>  (124) 
2.97606e-05

>  <r_epik_State_Penalty>  (124) 
-0

>  <r_epik_Charging_Adjusted_Penalty>  (124) 
0

>  <i_epik_Tot_Q>  (124) 
0

>  <i_epik_Tot_abs_Q>  (124) 
0

>  <s_epik_Chemistry_Notes>  (124) 
This compound has an ester and may undergo hydrolysis at high or low pH.

>  <s_lp_Force_Field>  (124) 
OPLS3e

>  <r_lp_Energy>  (124) 
4.71332

>  <b_lp_Chiralities_Consistent>  (124) 
1

>  <s_lp_Variant>  (124) 
34:0-1

>  <s_i_glide_gridfile>  (124) 
pfpi4k_grid

>  <i_i_glide_lignum>  (124) 
7

>  <i_i_glide_rotatable_bonds>  (124) 
5

>  <r_i_docking_score>  (124) 
-3.90556

>  <r_i_glide_ligand_efficiency>  (124) 
-0.185979

>  <r_i_glide_ligand_efficiency_sa>  (124) 
-0.513102

>  <r_i_glide_ligand_efficiency_ln>  (124) 
-0.965642

>  <r_i_glide_gscore>  (124) 
-3.90556

>  <r_i_glide_lipo>  (124) 
-0.460991

>  <r_i_glide_hbond>  (124) 
-0.32

>  <r_i_glide_metal>  (124) 
-0

>  <r_i_glide_rewards>  (124) 
-1.84354

>  <r_i_glide_evdw>  (124) 
-31.723

>  <r_i_glide_ecoul>  (124) 
-2.21309

>  <r_i_glide_erotb>  (124) 
0.637082

>  <r_i_glide_esite>  (124) 
0

>  <r_i_glide_emodel>  (124) 
-42.337

>  <r_i_glide_energy>  (124) 
-33.9361

>  <r_i_glide_einternal>  (124) 
1.71503

>  <r_i_glide_intrahb_reward>  (124) 
-0

>  <i_i_glide_confnum>  (124) 
5

>  <i_i_glide_posenum>  (124) 
15

>  <r_i_glide_eff_state_penalty>  (124) 
0

>  <ligand_id>  (124) 
34

>  <original_smiles>  (124) 
COC(=O)NC12CC3CC(C1)C(O)C(n1ncnn1)(C3)C2

>  <smiles>  (124) 
[H]OC1([H])C2([H])C([H])([H])C3([H])C([H])([H])C(N([H])C(=O)OC([H])([H])[H])(C2([H])[H])C([H])([H])C1(n1nnc([H])n1)C3([H])[H]

$$$$
36:0:0
     RDKit          3D

 32 35  0  0  1  0  0  0  0  0999 V2000
    7.8918   -3.1986    0.1667 F   0  0  0  0  0  0  0  0  0  0  0  0
    6.6425   -2.8557   -0.1452 C   0  0  1  0  0  0  0  0  0  0  0  0
    6.3383   -1.4595    0.4404 C   0  0  0  0  0  0  0  0  0  0  0  0
    4.8980   -1.0562    0.0614 C   0  0  1  0  0  0  0  0  0  0  0  0
    4.7500   -1.0361   -1.4772 C   0  0  0  0  0  0  0  0  0  0  0  0
    5.0585   -2.4328   -2.0465 C   0  0  1  0  0  0  0  0  0  0  0  0
    6.4934   -2.8522   -1.6812 C   0  0  0  0  0  0  0  0  0  0  0  0
    4.0731   -3.4412   -1.4416 C   0  0  0  0  0  0  0  0  0  0  0  0
    4.2028   -3.4953    0.1035 C   0  0  2  0  0  0  0  0  0  0  0  0
    3.2688   -4.4740    0.6511 N   0  0  0  0  0  0  0  0  0  0  0  0
    2.2135   -5.0772    0.0976 C   0  0  0  0  0  0  0  0  0  0  0  0
    1.5425   -5.8681    0.9248 N   0  0  0  0  0  0  0  0  0  0  0  0
    2.3186   -5.7327    2.0416 C   0  0  0  0  0  0  0  0  0  0  0  0
    3.3362   -4.8750    1.9435 N   0  0  0  0  0  0  0  0  0  0  0  0
    3.9066   -2.0797    0.6648 C   0  0  0  0  0  0  0  0  0  0  0  0
    5.6652   -3.8804    0.4614 C   0  0  0  0  0  0  0  0  0  0  0  0
    6.4467   -1.4761    1.5260 H   0  0  0  0  0  0  0  0  0  0  0  0
    7.0511   -0.7221    0.0788 H   0  0  0  0  0  0  0  0  0  0  0  0
    4.6822   -0.0616    0.4562 H   0  0  0  0  0  0  0  0  0  0  0  0
    3.7371   -0.7365   -1.7488 H   0  0  0  0  0  0  0  0  0  0  0  0
    5.4153   -0.2957   -1.9181 H   0  0  0  0  0  0  0  0  0  0  0  0
    4.9407   -2.4235   -3.1317 H   0  0  0  0  0  0  0  0  0  0  0  0
    7.2213   -2.1894   -2.1461 H   0  0  0  0  0  0  0  0  0  0  0  0
    6.6920   -3.8460   -2.0803 H   0  0  0  0  0  0  0  0  0  0  0  0
    3.0654   -3.1484   -1.7367 H   0  0  0  0  0  0  0  0  0  0  0  0
    4.2629   -4.4255   -1.8666 H   0  0  0  0  0  0  0  0  0  0  0  0
    1.8904   -4.9058   -0.9211 H   0  0  0  0  0  0  0  0  0  0  0  0
    2.1196   -6.2611    2.9607 H   0  0  0  0  0  0  0  0  0  0  0  0
    3.9854   -2.0670    1.7531 H   0  0  0  0  0  0  0  0  0  0  0  0
    2.8835   -1.7802    0.4302 H   0  0  0  0  0  0  0  0  0  0  0  0
    5.8942   -4.8811    0.0907 H   0  0  0  0  0  0  0  0  0  0  0  0
    5.8120   -3.9132    1.5425 H   0  0  0  0  0  0  0  0  0  0  0  0
  2  1  1  6
  2  7  1  0
  2 16  1  0
  2  3  1  0
  3  4  1  0
  3 17  1  0
  3 18  1  0
  4 15  1  0
  4  5  1  0
  4 19  1  1
  5  6  1  0
  5 20  1  0
  5 21  1  0
  6  7  1  0
  6  8  1  0
  6 22  1  6
  7 23  1  0
  7 24  1  0
  8  9  1  0
  8 25  1  0
  8 26  1  0
  9 10  1  1
  9 15  1  0
  9 16  1  0
 10 14  1  0
 10 11  1  0
 11 12  2  0
 11 27  1  0
 12 13  1  0
 13 14  2  0
 13 28  1  0
 15 29  1  0
 15 30  1  0
 16 31  1  0
 16 32  1  0
M  END
>  <i_m_ct_stereo_status>  (125) 
1

>  <s_m_source_file>  (125) 
/var/tmp/pbs.5076255.sched01/tmppnbbzaq8/41bb87crku.sdf

>  <i_m_source_file_index>  (125) 
9

>  <i_lp_mmshare_version>  (125) 
48012

>  <i_f3d_flags>  (125) 
0

>  <s_epik_input>  (125) 
RltDQEBdMTJbQ0gyXVtDQEhdM1tDSDJdW0NAQEhdKFtDSDJdMSlbQ0gyXVtDQF0oW0NIMl0zKShbQ0gyXTIpbjRbY0hdbltjSF1uNA==

>  <s_epik_cmdline>  (125) 
J2VwaWtfcHl0aG9uJywgJy1waHQnLCAnMi4wJywgJy1waCcsICc3LjAnLCAnLXRuJywgJzgnLCAnLW1hJywgJzIwMCcsICctaW1hZScsICc8aW5maWxlLm1hZT4nLCAnLW9tYWUnLCAnPG91dGZpbGUubWFlPic=

>  <r_lp_tautomer_probability>  (125) 
1

>  <r_epik_Ionization_Penalty>  (125) 
0.000468925

>  <r_epik_Ionization_Penalty_Charging>  (125) 
0

>  <r_epik_Ionization_Penalty_Neutral>  (125) 
0.000468925

>  <r_epik_State_Penalty>  (125) 
0.000290478

>  <r_epik_Charging_Adjusted_Penalty>  (125) 
0.000290478

>  <i_epik_Tot_Q>  (125) 
0

>  <i_epik_Tot_abs_Q>  (125) 
0

>  <s_lp_Force_Field>  (125) 
OPLS3e

>  <r_lp_Energy>  (125) 
-0.637652

>  <b_lp_Chiralities_Consistent>  (125) 
1

>  <s_lp_Variant>  (125) 
36:0-1

>  <s_i_glide_gridfile>  (125) 
pfpi4k_grid

>  <i_i_glide_lignum>  (125) 
9

>  <i_i_glide_rotatable_bonds>  (125) 
1

>  <r_i_docking_score>  (125) 
-3.96593

>  <r_i_glide_ligand_efficiency>  (125) 
-0.247871

>  <r_i_glide_ligand_efficiency_sa>  (125) 
-0.624595

>  <r_i_glide_ligand_efficiency_ln>  (125) 
-1.05125

>  <r_i_glide_gscore>  (125) 
-3.96593

>  <r_i_glide_lipo>  (125) 
-0.25113

>  <r_i_glide_hbond>  (125) 
-0.147677

>  <r_i_glide_metal>  (125) 
-0

>  <r_i_glide_rewards>  (125) 
-2.18723

>  <r_i_glide_evdw>  (125) 
-20.316

>  <r_i_glide_ecoul>  (125) 
-4.09477

>  <r_i_glide_erotb>  (125) 
0.344636

>  <r_i_glide_esite>  (125) 
-0.0945225

>  <r_i_glide_emodel>  (125) 
-30.3385

>  <r_i_glide_energy>  (125) 
-24.4107

>  <r_i_glide_einternal>  (125) 
0.122829

>  <r_i_glide_intrahb_reward>  (125) 
-0

>  <i_i_glide_confnum>  (125) 
2

>  <i_i_glide_posenum>  (125) 
7

>  <r_i_glide_eff_state_penalty>  (125) 
0

>  <ligand_id>  (125) 
36

>  <original_smiles>  (125) 
FC12CC3CC(C1)CC(n1cncn1)(C3)C2

>  <smiles>  (125) 
[H]c1nc([H])n(C23C([H])([H])C4([H])C([H])([H])C([H])(C([H])([H])C(F)(C4([H])[H])C2([H])[H])C3([H])[H])n1

$$$$
36:0:1
     RDKit          3D

 32 35  0  0  1  0  0  0  0  0999 V2000
    5.3313   -0.3129    1.1769 F   0  0  0  0  0  0  0  0  0  0  0  0
    5.3293   -1.4197    0.4331 C   0  0  1  0  0  0  0  0  0  0  0  0
    4.9375   -1.0537   -1.0128 C   0  0  0  0  0  0  0  0  0  0  0  0
    4.9687   -2.3200   -1.8847 C   0  0  1  0  0  0  0  0  0  0  0  0
    6.3752   -2.9527   -1.8612 C   0  0  0  0  0  0  0  0  0  0  0  0
    6.7457   -3.3186   -0.4064 C   0  0  1  0  0  0  0  0  0  0  0  0
    6.7379   -2.0485    0.4675 C   0  0  0  0  0  0  0  0  0  0  0  0
    5.7172   -4.3274    0.1553 C   0  0  0  0  0  0  0  0  0  0  0  0
    4.2936   -3.7086    0.1402 C   0  0  2  0  0  0  0  0  0  0  0  0
    3.3177   -4.6649    0.6525 N   0  0  0  0  0  0  0  0  0  0  0  0
    2.2072   -5.1627    0.1009 C   0  0  0  0  0  0  0  0  0  0  0  0
    1.5253   -5.9825    0.8920 N   0  0  0  0  0  0  0  0  0  0  0  0
    2.3594   -5.9893    1.9745 C   0  0  0  0  0  0  0  0  0  0  0  0
    3.4301   -5.1988    1.8940 N   0  0  0  0  0  0  0  0  0  0  0  0
    3.9495   -3.3218   -1.3232 C   0  0  0  0  0  0  0  0  0  0  0  0
    4.3027   -2.4196    1.0034 C   0  0  0  0  0  0  0  0  0  0  0  0
    3.9315   -0.6346   -1.0245 H   0  0  0  0  0  0  0  0  0  0  0  0
    5.6017   -0.2933   -1.4177 H   0  0  0  0  0  0  0  0  0  0  0  0
    4.6942   -2.0687   -2.9107 H   0  0  0  0  0  0  0  0  0  0  0  0
    6.3865   -3.8458   -2.4867 H   0  0  0  0  0  0  0  0  0  0  0  0
    7.1108   -2.2682   -2.2832 H   0  0  0  0  0  0  0  0  0  0  0  0
    7.7424   -3.7660   -0.3887 H   0  0  0  0  0  0  0  0  0  0  0  0
    7.4902   -1.3390    0.1222 H   0  0  0  0  0  0  0  0  0  0  0  0
    7.0034   -2.3028    1.4940 H   0  0  0  0  0  0  0  0  0  0  0  0
    5.7326   -5.2443   -0.4359 H   0  0  0  0  0  0  0  0  0  0  0  0
    6.0083   -4.6139    1.1675 H   0  0  0  0  0  0  0  0  0  0  0  0
    1.8594   -4.8998   -0.8895 H   0  0  0  0  0  0  0  0  0  0  0  0
    2.1659   -6.5787    2.8576 H   0  0  0  0  0  0  0  0  0  0  0  0
    2.9545   -2.8781   -1.3837 H   0  0  0  0  0  0  0  0  0  0  0  0
    3.9475   -4.2094   -1.9543 H   0  0  0  0  0  0  0  0  0  0  0  0
    4.5540   -2.6453    2.0409 H   0  0  0  0  0  0  0  0  0  0  0  0
    3.3108   -1.9641    1.0216 H   0  0  0  0  0  0  0  0  0  0  0  0
  2  1  1  1
  2  7  1  0
  2 16  1  0
  2  3  1  0
  3  4  1  0
  3 17  1  0
  3 18  1  0
  4 15  1  0
  4  5  1  0
  4 19  1  6
  5  6  1  0
  5 20  1  0
  5 21  1  0
  6  7  1  0
  6  8  1  0
  6 22  1  6
  7 23  1  0
  7 24  1  0
  8  9  1  0
  8 25  1  0
  8 26  1  0
  9 10  1  1
  9 15  1  0
  9 16  1  0
 10 14  1  0
 10 11  1  0
 11 12  2  0
 11 27  1  0
 12 13  1  0
 13 14  2  0
 13 28  1  0
 15 29  1  0
 15 30  1  0
 16 31  1  0
 16 32  1  0
M  END
>  <i_m_ct_stereo_status>  (126) 
1

>  <s_m_source_file>  (126) 
/var/tmp/pbs.5076255.sched01/tmppnbbzaq8/41bb87crku.sdf

>  <i_m_source_file_index>  (126) 
9

>  <i_lp_mmshare_version>  (126) 
48012

>  <i_f3d_flags>  (126) 
0

>  <s_epik_input>  (126) 
RltDQEBdMTJbQ0gyXVtDQEhdM1tDSDJdW0NAQEhdKFtDSDJdMSlbQ0gyXVtDQF0oW0NIMl0zKShbQ0gyXTIpbjRbY0hdbltjSF1uNA==

>  <s_epik_cmdline>  (126) 
J2VwaWtfcHl0aG9uJywgJy1waHQnLCAnMi4wJywgJy1waCcsICc3LjAnLCAnLXRuJywgJzgnLCAnLW1hJywgJzIwMCcsICctaW1hZScsICc8aW5maWxlLm1hZT4nLCAnLW9tYWUnLCAnPG91dGZpbGUubWFlPic=

>  <r_lp_tautomer_probability>  (126) 
1

>  <r_epik_Ionization_Penalty>  (126) 
0.000468925

>  <r_epik_Ionization_Penalty_Charging>  (126) 
0

>  <r_epik_Ionization_Penalty_Neutral>  (126) 
0.000468925

>  <r_epik_State_Penalty>  (126) 
0.000290478

>  <r_epik_Charging_Adjusted_Penalty>  (126) 
0.000290478

>  <i_epik_Tot_Q>  (126) 
0

>  <i_epik_Tot_abs_Q>  (126) 
0

>  <s_lp_Force_Field>  (126) 
OPLS3e

>  <r_lp_Energy>  (126) 
-0.637652

>  <b_lp_Chiralities_Consistent>  (126) 
1

>  <s_lp_Variant>  (126) 
36:0-1

>  <s_i_glide_gridfile>  (126) 
pfpi4k_grid

>  <i_i_glide_lignum>  (126) 
9

>  <i_i_glide_rotatable_bonds>  (126) 
1

>  <r_i_docking_score>  (126) 
-3.91352

>  <r_i_glide_ligand_efficiency>  (126) 
-0.244595

>  <r_i_glide_ligand_efficiency_sa>  (126) 
-0.616341

>  <r_i_glide_ligand_efficiency_ln>  (126) 
-1.03736

>  <r_i_glide_gscore>  (126) 
-3.91352

>  <r_i_glide_lipo>  (126) 
-0.379001

>  <r_i_glide_hbond>  (126) 
-0.135139

>  <r_i_glide_metal>  (126) 
-0

>  <r_i_glide_rewards>  (126) 
-2.09007

>  <r_i_glide_evdw>  (126) 
-19.9755

>  <r_i_glide_ecoul>  (126) 
-3.73936

>  <r_i_glide_erotb>  (126) 
0.344636

>  <r_i_glide_esite>  (126) 
-0.0942708

>  <r_i_glide_emodel>  (126) 
-29.6275

>  <r_i_glide_energy>  (126) 
-23.7148

>  <r_i_glide_einternal>  (126) 
0.00898457

>  <r_i_glide_intrahb_reward>  (126) 
-0

>  <i_i_glide_confnum>  (126) 
6

>  <i_i_glide_posenum>  (126) 
37

>  <r_i_glide_eff_state_penalty>  (126) 
0

>  <ligand_id>  (126) 
36

>  <original_smiles>  (126) 
FC12CC3CC(C1)CC(n1cncn1)(C3)C2

>  <smiles>  (126) 
[H]c1nc([H])n(C23C([H])([H])C4([H])C([H])([H])C([H])(C([H])([H])C(F)(C4([H])[H])C2([H])[H])C3([H])[H])n1

$$$$
36:0:2
     RDKit          3D

 32 35  0  0  1  0  0  0  0  0999 V2000
    5.9122   -1.1534    2.1015 F   0  0  0  0  0  0  0  0  0  0  0  0
    5.4397   -1.8785    1.0903 C   0  0  1  0  0  0  0  0  0  0  0  0
    4.6354   -0.9631    0.1506 C   0  0  0  0  0  0  0  0  0  0  0  0
    4.1011   -1.7934   -1.0298 C   0  0  1  0  0  0  0  0  0  0  0  0
    5.2751   -2.4440   -1.7950 C   0  0  0  0  0  0  0  0  0  0  0  0
    6.0626   -3.3658   -0.8363 C   0  0  1  0  0  0  0  0  0  0  0  0
    6.6162   -2.5367    0.3404 C   0  0  0  0  0  0  0  0  0  0  0  0
    5.1276   -4.4722   -0.2936 C   0  0  0  0  0  0  0  0  0  0  0  0
    3.9483   -3.8347    0.4793 C   0  0  2  0  0  0  0  0  0  0  0  0
    3.0456   -4.8691    0.9751 N   0  0  0  0  0  0  0  0  0  0  0  0
    2.0910   -5.5557    0.3465 C   0  0  0  0  0  0  0  0  0  0  0  0
    1.4362   -6.4104    1.1205 N   0  0  0  0  0  0  0  0  0  0  0  0
    2.1572   -6.2656    2.2734 C   0  0  0  0  0  0  0  0  0  0  0  0
    3.1341   -5.3603    2.2371 N   0  0  0  0  0  0  0  0  0  0  0  0
    3.1766   -2.8985   -0.4884 C   0  0  0  0  0  0  0  0  0  0  0  0
    4.5163   -2.9741    1.6440 C   0  0  0  0  0  0  0  0  0  0  0  0
    3.8010   -0.5116    0.6898 H   0  0  0  0  0  0  0  0  0  0  0  0
    5.2592   -0.1475   -0.2066 H   0  0  0  0  0  0  0  0  0  0  0  0
    3.5336   -1.1487   -1.7047 H   0  0  0  0  0  0  0  0  0  0  0  0
    4.8989   -3.0199   -2.6426 H   0  0  0  0  0  0  0  0  0  0  0  0
    5.9268   -1.6746   -2.2080 H   0  0  0  0  0  0  0  0  0  0  0  0
    6.8911   -3.8228   -1.3780 H   0  0  0  0  0  0  0  0  0  0  0  0
    7.3181   -1.7827   -0.0142 H   0  0  0  0  0  0  0  0  0  0  0  0
    7.1754   -3.1839    1.0176 H   0  0  0  0  0  0  0  0  0  0  0  0
    4.7539   -5.0782   -1.1215 H   0  0  0  0  0  0  0  0  0  0  0  0
    5.6835   -5.1506    0.3542 H   0  0  0  0  0  0  0  0  0  0  0  0
    1.8500   -5.4037   -0.6961 H   0  0  0  0  0  0  0  0  0  0  0  0
    1.9490   -6.8273    3.1706 H   0  0  0  0  0  0  0  0  0  0  0  0
    2.3243   -2.4515    0.0254 H   0  0  0  0  0  0  0  0  0  0  0  0
    2.7728   -3.4461   -1.3423 H   0  0  0  0  0  0  0  0  0  0  0  0
    5.0863   -3.5862    2.3441 H   0  0  0  0  0  0  0  0  0  0  0  0
    3.7049   -2.5201    2.2158 H   0  0  0  0  0  0  0  0  0  0  0  0
  2  1  1  1
  2  7  1  0
  2 16  1  0
  2  3  1  0
  3  4  1  0
  3 17  1  0
  3 18  1  0
  4 15  1  0
  4  5  1  0
  4 19  1  6
  5  6  1  0
  5 20  1  0
  5 21  1  0
  6  7  1  0
  6  8  1  0
  6 22  1  6
  7 23  1  0
  7 24  1  0
  8  9  1  0
  8 25  1  0
  8 26  1  0
  9 10  1  1
  9 15  1  0
  9 16  1  0
 10 14  1  0
 10 11  1  0
 11 12  2  0
 11 27  1  0
 12 13  1  0
 13 14  2  0
 13 28  1  0
 15 29  1  0
 15 30  1  0
 16 31  1  0
 16 32  1  0
M  END
>  <i_m_ct_stereo_status>  (127) 
1

>  <s_m_source_file>  (127) 
/var/tmp/pbs.5076255.sched01/tmppnbbzaq8/41bb87crku.sdf

>  <i_m_source_file_index>  (127) 
9

>  <i_lp_mmshare_version>  (127) 
48012

>  <i_f3d_flags>  (127) 
0

>  <s_epik_input>  (127) 
RltDQEBdMTJbQ0gyXVtDQEhdM1tDSDJdW0NAQEhdKFtDSDJdMSlbQ0gyXVtDQF0oW0NIMl0zKShbQ0gyXTIpbjRbY0hdbltjSF1uNA==

>  <s_epik_cmdline>  (127) 
J2VwaWtfcHl0aG9uJywgJy1waHQnLCAnMi4wJywgJy1waCcsICc3LjAnLCAnLXRuJywgJzgnLCAnLW1hJywgJzIwMCcsICctaW1hZScsICc8aW5maWxlLm1hZT4nLCAnLW9tYWUnLCAnPG91dGZpbGUubWFlPic=

>  <r_lp_tautomer_probability>  (127) 
1

>  <r_epik_Ionization_Penalty>  (127) 
0.000468925

>  <r_epik_Ionization_Penalty_Charging>  (127) 
0

>  <r_epik_Ionization_Penalty_Neutral>  (127) 
0.000468925

>  <r_epik_State_Penalty>  (127) 
0.000290478

>  <r_epik_Charging_Adjusted_Penalty>  (127) 
0.000290478

>  <i_epik_Tot_Q>  (127) 
0

>  <i_epik_Tot_abs_Q>  (127) 
0

>  <s_lp_Force_Field>  (127) 
OPLS3e

>  <r_lp_Energy>  (127) 
-0.637652

>  <b_lp_Chiralities_Consistent>  (127) 
1

>  <s_lp_Variant>  (127) 
36:0-1

>  <s_i_glide_gridfile>  (127) 
pfpi4k_grid

>  <i_i_glide_lignum>  (127) 
9

>  <i_i_glide_rotatable_bonds>  (127) 
1

>  <r_i_docking_score>  (127) 
-3.5499

>  <r_i_glide_ligand_efficiency>  (127) 
-0.221868

>  <r_i_glide_ligand_efficiency_sa>  (127) 
-0.559073

>  <r_i_glide_ligand_efficiency_ln>  (127) 
-0.940971

>  <r_i_glide_gscore>  (127) 
-3.5499

>  <r_i_glide_lipo>  (127) 
-0.3888

>  <r_i_glide_hbond>  (127) 
-0.0312254

>  <r_i_glide_metal>  (127) 
-0

>  <r_i_glide_rewards>  (127) 
-2.07105

>  <r_i_glide_evdw>  (127) 
-19.2954

>  <r_i_glide_ecoul>  (127) 
-2.34012

>  <r_i_glide_erotb>  (127) 
0.344636

>  <r_i_glide_esite>  (127) 
-0.0876648

>  <r_i_glide_emodel>  (127) 
-26.881

>  <r_i_glide_energy>  (127) 
-21.6355

>  <r_i_glide_einternal>  (127) 
0.178146

>  <r_i_glide_intrahb_reward>  (127) 
-0

>  <i_i_glide_confnum>  (127) 
2

>  <i_i_glide_posenum>  (127) 
12

>  <r_i_glide_eff_state_penalty>  (127) 
0

>  <ligand_id>  (127) 
36

>  <original_smiles>  (127) 
FC12CC3CC(C1)CC(n1cncn1)(C3)C2

>  <smiles>  (127) 
[H]c1nc([H])n(C23C([H])([H])C4([H])C([H])([H])C([H])(C([H])([H])C(F)(C4([H])[H])C2([H])[H])C3([H])[H])n1

$$$$
37:0:0
     RDKit          3D

 82 86  0  0  1  0  0  0  0  0999 V2000
   -0.8495   -6.9863    2.2300 C   0  0  0  0  0  0  0  0  0  0  0  0
   -0.6358   -8.3669    2.8586 C   0  0  2  0  0  0  0  0  0  0  0  0
   -1.0796   -8.4005    4.3149 C   0  0  0  0  0  0  0  0  0  0  0  0
   -0.1801   -7.5308    5.1849 C   0  0  0  0  0  0  0  0  0  0  0  0
    1.3214   -7.9089    5.1142 C   0  0  2  0  0  0  0  0  0  0  0  0
    1.5753   -9.1818    5.9599 C   0  0  0  0  0  0  0  0  0  0  0  0
    2.0814   -6.7299    5.7470 C   0  0  0  0  0  0  0  0  0  0  0  0
    3.5937   -6.8336    5.5768 C   0  0  0  0  0  0  0  0  0  0  0  0
    4.1026   -7.0052    4.1056 C   0  0  1  0  0  0  0  0  0  0  0  0
    5.3637   -7.9186    4.2317 C   0  0  0  0  0  0  0  0  0  0  0  0
    3.0584   -7.7644    3.2525 C   0  0  0  0  0  0  0  0  0  0  0  0
    1.8156   -8.1466    3.6638 C   0  0  0  0  0  0  0  0  0  0  0  0
    0.8163   -8.8595    2.7166 C   0  0  1  0  0  0  0  0  0  0  0  0
    0.9372  -10.3901    2.8014 C   0  0  0  0  0  0  0  0  0  0  0  0
    3.6156   -8.0629    1.8717 C   0  0  0  0  0  0  0  0  0  0  0  0
    3.8719   -6.7548    1.1502 C   0  0  0  0  0  0  0  0  0  0  0  0
    4.8439   -5.7571    1.8500 C   0  0  1  0  0  0  0  0  0  0  0  0
    5.0442   -4.3921    1.0041 C   0  0  2  0  0  0  0  0  0  0  0  0
    4.3255   -4.4673   -0.3883 C   0  0  0  0  0  0  0  0  0  0  0  0
    6.5538   -4.1767    0.7032 C   0  0  0  0  0  0  0  0  0  0  0  0
    6.8732   -2.8292    0.0146 C   0  0  0  0  0  0  0  0  0  0  0  0
    6.3318   -1.6292    0.8168 C   0  0  1  0  0  0  0  0  0  0  0  0
    6.6129   -0.4627    0.1084 O   0  0  0  0  0  0  0  0  0  0  0  0
    4.8186   -1.7093    1.2073 C   0  0  1  0  0  0  0  0  0  0  0  0
    4.6226   -0.6618    2.3401 C   0  0  0  0  0  0  0  0  0  0  0  0
    3.8509   -1.3277    0.0323 C   0  0  0  0  0  0  0  0  0  0  0  0
    4.3025   -1.5656   -1.2863 O   0  0  0  0  0  0  0  0  0  0  0  0
    4.5873   -3.1441    1.8374 C   0  0  1  0  0  0  0  0  0  0  0  0
    3.2332   -3.4156    2.5154 C   0  0  0  0  0  0  0  0  0  0  0  0
    3.2586   -4.6162    3.4874 C   0  0  0  0  0  0  0  0  0  0  0  0
    4.4698   -5.6046    3.3947 C   0  0  1  0  0  0  0  0  0  0  0  0
    5.6865   -5.0067    4.1845 C   0  0  0  0  0  0  0  0  0  0  0  0
   -0.1835   -6.2426    2.6632 H   0  0  0  0  0  0  0  0  0  0  0  0
   -1.8820   -6.6842    2.3977 H   0  0  0  0  0  0  0  0  0  0  0  0
   -0.6623   -7.0109    1.1563 H   0  0  0  0  0  0  0  0  0  0  0  0
   -1.2843   -9.0494    2.3069 H   0  0  0  0  0  0  0  0  0  0  0  0
   -2.1246   -8.0976    4.4140 H   0  0  0  0  0  0  0  0  0  0  0  0
   -0.9987   -9.4240    4.6624 H   0  0  0  0  0  0  0  0  0  0  0  0
   -0.3395   -6.4872    4.9139 H   0  0  0  0  0  0  0  0  0  0  0  0
   -0.5026   -7.6138    6.2184 H   0  0  0  0  0  0  0  0  0  0  0  0
    1.4746   -8.9788    7.0256 H   0  0  0  0  0  0  0  0  0  0  0  0
    2.5764   -9.5781    5.7941 H   0  0  0  0  0  0  0  0  0  0  0  0
    0.8765   -9.9845    5.7377 H   0  0  0  0  0  0  0  0  0  0  0  0
    1.7264   -5.7910    5.3323 H   0  0  0  0  0  0  0  0  0  0  0  0
    1.8414   -6.6687    6.8071 H   0  0  0  0  0  0  0  0  0  0  0  0
    4.0514   -5.9770    6.0657 H   0  0  0  0  0  0  0  0  0  0  0  0
    3.9135   -7.6887    6.1730 H   0  0  0  0  0  0  0  0  0  0  0  0
    5.9937   -7.6623    5.0816 H   0  0  0  0  0  0  0  0  0  0  0  0
    6.0052   -7.8887    3.3534 H   0  0  0  0  0  0  0  0  0  0  0  0
    5.0712   -8.9575    4.3838 H   0  0  0  0  0  0  0  0  0  0  0  0
    1.0457   -8.5988    1.6893 H   0  0  0  0  0  0  0  0  0  0  0  0
    1.9659  -10.7011    2.6238 H   0  0  0  0  0  0  0  0  0  0  0  0
    0.3077  -10.8647    2.0499 H   0  0  0  0  0  0  0  0  0  0  0  0
    0.6266  -10.7939    3.7619 H   0  0  0  0  0  0  0  0  0  0  0  0
    4.5339   -8.6301    1.9369 H   0  0  0  0  0  0  0  0  0  0  0  0
    2.9900   -8.6963    1.2541 H   0  0  0  0  0  0  0  0  0  0  0  0
    4.2741   -7.0610    0.1889 H   0  0  0  0  0  0  0  0  0  0  0  0
    2.8987   -6.2868    0.9728 H   0  0  0  0  0  0  0  0  0  0  0  0
    5.8047   -6.2702    1.8339 H   0  0  0  0  0  0  0  0  0  0  0  0
    4.5561   -3.6586   -1.0403 H   0  0  0  0  0  0  0  0  0  0  0  0
    3.2396   -4.5017   -0.2705 H   0  0  0  0  0  0  0  0  0  0  0  0
    4.6086   -5.3868   -0.9165 H   0  0  0  0  0  0  0  0  0  0  0  0
    7.1397   -4.2090    1.6215 H   0  0  0  0  0  0  0  0  0  0  0  0
    6.9291   -4.9886    0.0787 H   0  0  0  0  0  0  0  0  0  0  0  0
    7.9527   -2.7166   -0.0851 H   0  0  0  0  0  0  0  0  0  0  0  0
    6.5008   -2.8094   -1.0036 H   0  0  0  0  0  0  0  0  0  0  0  0
    6.9354   -1.5655    1.7307 H   0  0  0  0  0  0  0  0  0  0  0  0
    6.8819    0.2204    0.7317 H   0  0  0  0  0  0  0  0  0  0  0  0
    3.5862   -0.5567    2.6484 H   0  0  0  0  0  0  0  0  0  0  0  0
    4.9447    0.3306    2.0351 H   0  0  0  0  0  0  0  0  0  0  0  0
    5.1988   -0.9139    3.2265 H   0  0  0  0  0  0  0  0  0  0  0  0
    2.9058   -1.8496    0.1415 H   0  0  0  0  0  0  0  0  0  0  0  0
    3.5889   -0.2653    0.1105 H   0  0  0  0  0  0  0  0  0  0  0  0
    3.5564   -1.6565   -1.8540 H   0  0  0  0  0  0  0  0  0  0  0  0
    5.2900   -3.0827    2.6558 H   0  0  0  0  0  0  0  0  0  0  0  0
    2.8714   -2.5388    3.0659 H   0  0  0  0  0  0  0  0  0  0  0  0
    2.4906   -3.6020    1.7511 H   0  0  0  0  0  0  0  0  0  0  0  0
    3.2020   -4.2249    4.4988 H   0  0  0  0  0  0  0  0  0  0  0  0
    2.3215   -5.1633    3.3226 H   0  0  0  0  0  0  0  0  0  0  0  0
    5.5322   -3.9767    4.5146 H   0  0  0  0  0  0  0  0  0  0  0  0
    6.6043   -5.0471    3.5978 H   0  0  0  0  0  0  0  0  0  0  0  0
    5.9396   -5.5237    5.1090 H   0  0  0  0  0  0  0  0  0  0  0  0
  1  2  1  0
  1 33  1  0
  1 34  1  0
  1 35  1  0
  2 13  1  0
  2  3  1  0
  2 36  1  6
  3  4  1  0
  3 37  1  0
  3 38  1  0
  4  5  1  0
  4 39  1  0
  4 40  1  0
  5 12  1  0
  5  6  1  1
  5  7  1  0
  6 41  1  0
  6 42  1  0
  6 43  1  0
  7  8  1  0
  7 44  1  0
  7 45  1  0
  8  9  1  0
  8 46  1  0
  8 47  1  0
  9 31  1  0
  9 10  1  1
  9 11  1  0
 10 48  1  0
 10 49  1  0
 10 50  1  0
 11 12  2  0
 11 15  1  0
 12 13  1  0
 13 14  1  0
 13 51  1  6
 14 52  1  0
 14 53  1  0
 14 54  1  0
 15 16  1  0
 15 55  1  0
 15 56  1  0
 16 17  1  0
 16 57  1  0
 16 58  1  0
 17 31  1  0
 17 18  1  0
 17 59  1  1
 18 28  1  0
 18 19  1  6
 18 20  1  0
 19 60  1  0
 19 61  1  0
 19 62  1  0
 20 21  1  0
 20 63  1  0
 20 64  1  0
 21 22  1  0
 21 65  1  0
 21 66  1  0
 22 23  1  0
 22 24  1  0
 22 67  1  1
 23 68  1  0
 24 25  1  1
 24 26  1  0
 24 28  1  0
 25 69  1  0
 25 70  1  0
 25 71  1  0
 26 27  1  0
 26 72  1  0
 26 73  1  0
 27 74  1  0
 28 29  1  0
 28 75  1  1
 29 30  1  0
 29 76  1  0
 29 77  1  0
 30 31  1  0
 30 78  1  0
 30 79  1  0
 31 32  1  1
 32 80  1  0
 32 81  1  0
 32 82  1  0
M  END
>  <i_m_ct_stereo_status>  (128) 
1

>  <s_m_source_file>  (128) 
/var/tmp/pbs.5076255.sched01/tmppnbbzaq8/41bb87crku.sdf

>  <i_m_source_file_index>  (128) 
10

>  <i_lp_mmshare_version>  (128) 
48012

>  <i_f3d_flags>  (128) 
0

>  <s_epik_input>  (128) 
W0NIMl0xW0NIMl1bQ0BASF0oW0NIM10pW0NASF0oW0NIM10pQyhbQ0BdMTJbQ0gzXSk9QzNbQ0BdKFtDSDNdKShbQ0gyXVtDSDJdMilbQ0BAXTQoW0NIM10pW0NAQEhdKFtDSDJdW0NIMl0zKVtDQEBdNShbQ0gzXSlbQ0BIXShbQ0gyXVtDSDJdNClbQ0BdKFtDSDNdKShbQ0gyXVtPSF0pW0NASF0oW09IXSlbQ0gyXVtDSDJdNQ==

>  <s_epik_cmdline>  (128) 
J2VwaWtfcHl0aG9uJywgJy1waHQnLCAnMi4wJywgJy1waCcsICc3LjAnLCAnLXRuJywgJzgnLCAnLW1hJywgJzIwMCcsICctaW1hZScsICc8aW5maWxlLm1hZT4nLCAnLW9tYWUnLCAnPG91dGZpbGUubWFlPic=

>  <r_lp_tautomer_probability>  (128) 
1

>  <r_epik_Ionization_Penalty>  (128) 
1.85211e-06

>  <r_epik_Ionization_Penalty_Charging>  (128) 
0

>  <r_epik_Ionization_Penalty_Neutral>  (128) 
1.85211e-06

>  <r_epik_State_Penalty>  (128) 
-0

>  <r_epik_Charging_Adjusted_Penalty>  (128) 
0

>  <i_epik_Tot_Q>  (128) 
0

>  <i_epik_Tot_abs_Q>  (128) 
0

>  <s_lp_Force_Field>  (128) 
OPLS3e

>  <r_lp_Energy>  (128) 
98.0271

>  <b_lp_Chiralities_Consistent>  (128) 
1

>  <s_lp_Variant>  (128) 
37:0-1

>  <s_i_glide_gridfile>  (128) 
pfpi4k_grid

>  <i_i_glide_lignum>  (128) 
10

>  <i_i_glide_rotatable_bonds>  (128) 
3

>  <r_i_docking_score>  (128) 
-2.75239

>  <r_i_glide_ligand_efficiency>  (128) 
-0.0860122

>  <r_i_glide_ligand_efficiency_sa>  (128) 
-0.273072

>  <r_i_glide_ligand_efficiency_ln>  (128) 
-0.616336

>  <r_i_glide_gscore>  (128) 
-2.75239

>  <r_i_glide_lipo>  (128) 
-0.744363

>  <r_i_glide_hbond>  (128) 
0

>  <r_i_glide_metal>  (128) 
-0

>  <r_i_glide_rewards>  (128) 
-0.390567

>  <r_i_glide_evdw>  (128) 
-19.898

>  <r_i_glide_ecoul>  (128) 
-4.8302

>  <r_i_glide_erotb>  (128) 
0.101969

>  <r_i_glide_esite>  (128) 
0

>  <r_i_glide_emodel>  (128) 
-26.4444

>  <r_i_glide_energy>  (128) 
-24.7282

>  <r_i_glide_einternal>  (128) 
4.61442

>  <r_i_glide_intrahb_reward>  (128) 
-0

>  <i_i_glide_confnum>  (128) 
3

>  <i_i_glide_posenum>  (128) 
19

>  <r_i_glide_eff_state_penalty>  (128) 
0

>  <ligand_id>  (128) 
37

>  <original_smiles>  (128) 
CC1CCC2(C)CCC3(C)C(=C2C1C)CCC1C2(C)CCC(O)C(C)(CO)C2CCC13C

>  <smiles>  (128) 
[H]OC([H])([H])C1(C([H])([H])[H])C([H])(O[H])C([H])([H])C([H])([H])C2(C([H])([H])[H])C1([H])C([H])([H])C([H])([H])C1(C([H])([H])[H])C2([H])C([H])([H])C([H])([H])C2=C3C([H])(C([H])([H])[H])C([H])(C([H])([H])[H])C([H])([H])C([H])([H])C3(C([H])([H])[H])C([H])([H])C([H])([H])C21C([H])([H])[H]

$$$$
37:0:1
     RDKit          3D

 82 86  0  0  1  0  0  0  0  0999 V2000
   -0.6556   -8.0462    2.1151 C   0  0  0  0  0  0  0  0  0  0  0  0
   -0.5865   -8.7724    3.4699 C   0  0  2  0  0  0  0  0  0  0  0  0
   -1.5637   -8.1757    4.4761 C   0  0  0  0  0  0  0  0  0  0  0  0
   -1.1326   -6.7573    4.8682 C   0  0  0  0  0  0  0  0  0  0  0  0
    0.3096   -6.6550    5.4286 C   0  0  2  0  0  0  0  0  0  0  0  0
    0.3206   -7.1509    6.8920 C   0  0  0  0  0  0  0  0  0  0  0  0
    0.6580   -5.1582    5.4042 C   0  0  0  0  0  0  0  0  0  0  0  0
    2.1224   -4.8797    5.7358 C   0  0  0  0  0  0  0  0  0  0  0  0
    3.1691   -5.6383    4.8586 C   0  0  1  0  0  0  0  0  0  0  0  0
    4.3574   -5.9258    5.8316 C   0  0  0  0  0  0  0  0  0  0  0  0
    2.6142   -6.9958    4.3910 C   0  0  0  0  0  0  0  0  0  0  0  0
    1.3313   -7.4612    4.6057 C   0  0  0  0  0  0  0  0  0  0  0  0
    0.8488   -8.8114    4.0431 C   0  0  1  0  0  0  0  0  0  0  0  0
    1.0642   -9.9663    5.0403 C   0  0  0  0  0  0  0  0  0  0  0  0
    3.6731   -7.7936    3.6686 C   0  0  0  0  0  0  0  0  0  0  0  0
    4.0778   -7.0538    2.4156 C   0  0  0  0  0  0  0  0  0  0  0  0
    4.6252   -5.6086    2.6090 C   0  0  1  0  0  0  0  0  0  0  0  0
    5.0161   -4.9134    1.2015 C   0  0  2  0  0  0  0  0  0  0  0  0
    4.9077   -5.9114    0.0042 C   0  0  0  0  0  0  0  0  0  0  0  0
    6.5023   -4.4521    1.2488 C   0  0  0  0  0  0  0  0  0  0  0  0
    6.9450   -3.6347    0.0227 C   0  0  0  0  0  0  0  0  0  0  0  0
    6.0417   -2.4301   -0.2564 C   0  0  1  0  0  0  0  0  0  0  0  0
    6.4963   -1.8856   -1.4832 O   0  0  0  0  0  0  0  0  0  0  0  0
    4.5103   -2.7312   -0.3046 C   0  0  1  0  0  0  0  0  0  0  0  0
    3.8244   -1.3566   -0.1263 C   0  0  0  0  0  0  0  0  0  0  0  0
    4.0056   -3.2814   -1.6841 C   0  0  0  0  0  0  0  0  0  0  0  0
    4.9473   -4.0323   -2.4071 O   0  0  0  0  0  0  0  0  0  0  0  0
    4.1727   -3.6104    0.9645 C   0  0  1  0  0  0  0  0  0  0  0  0
    2.6893   -3.8546    1.2898 C   0  0  0  0  0  0  0  0  0  0  0  0
    2.4356   -4.3173    2.7420 C   0  0  0  0  0  0  0  0  0  0  0  0
    3.6687   -4.7835    3.5865 C   0  0  1  0  0  0  0  0  0  0  0  0
    4.4274   -3.5253    4.1469 C   0  0  0  0  0  0  0  0  0  0  0  0
   -0.2704   -7.0296    2.1700 H   0  0  0  0  0  0  0  0  0  0  0  0
   -1.6800   -8.0185    1.7408 H   0  0  0  0  0  0  0  0  0  0  0  0
   -0.0462   -8.5619    1.3800 H   0  0  0  0  0  0  0  0  0  0  0  0
   -0.9019   -9.8016    3.2832 H   0  0  0  0  0  0  0  0  0  0  0  0
   -2.5697   -8.1779    4.0525 H   0  0  0  0  0  0  0  0  0  0  0  0
   -1.6011   -8.8262    5.3429 H   0  0  0  0  0  0  0  0  0  0  0  0
   -1.2263   -6.1514    3.9749 H   0  0  0  0  0  0  0  0  0  0  0  0
   -1.8235   -6.2899    5.5714 H   0  0  0  0  0  0  0  0  0  0  0  0
   -0.2016   -6.4550    7.5503 H   0  0  0  0  0  0  0  0  0  0  0  0
    1.3400   -7.2567    7.2635 H   0  0  0  0  0  0  0  0  0  0  0  0
   -0.1625   -8.1189    7.0060 H   0  0  0  0  0  0  0  0  0  0  0  0
    0.4118   -4.7310    4.4356 H   0  0  0  0  0  0  0  0  0  0  0  0
    0.0208   -4.6244    6.1078 H   0  0  0  0  0  0  0  0  0  0  0  0
    2.2794   -3.8040    5.7168 H   0  0  0  0  0  0  0  0  0  0  0  0
    2.2604   -5.1591    6.7800 H   0  0  0  0  0  0  0  0  0  0  0  0
    4.5831   -5.0889    6.4915 H   0  0  0  0  0  0  0  0  0  0  0  0
    5.2845   -6.1749    5.3184 H   0  0  0  0  0  0  0  0  0  0  0  0
    4.1160   -6.7620    6.4872 H   0  0  0  0  0  0  0  0  0  0  0  0
    1.4354   -9.0660    3.1688 H   0  0  0  0  0  0  0  0  0  0  0  0
    2.1020   -9.9972    5.3740 H   0  0  0  0  0  0  0  0  0  0  0  0
    0.8398  -10.9296    4.5800 H   0  0  0  0  0  0  0  0  0  0  0  0
    0.4346   -9.8877    5.9240 H   0  0  0  0  0  0  0  0  0  0  0  0
    4.5457   -7.9363    4.2983 H   0  0  0  0  0  0  0  0  0  0  0  0
    3.3995   -8.8094    3.4064 H   0  0  0  0  0  0  0  0  0  0  0  0
    4.8475   -7.6910    1.9963 H   0  0  0  0  0  0  0  0  0  0  0  0
    3.2184   -7.0614    1.7419 H   0  0  0  0  0  0  0  0  0  0  0  0
    5.5618   -5.7364    3.1611 H   0  0  0  0  0  0  0  0  0  0  0  0
    5.3371   -5.5280   -0.8840 H   0  0  0  0  0  0  0  0  0  0  0  0
    3.8681   -6.1760   -0.1795 H   0  0  0  0  0  0  0  0  0  0  0  0
    5.4066   -6.8466    0.2724 H   0  0  0  0  0  0  0  0  0  0  0  0
    6.6818   -3.8028    2.1051 H   0  0  0  0  0  0  0  0  0  0  0  0
    7.1679   -5.3151    1.3466 H   0  0  0  0  0  0  0  0  0  0  0  0
    7.9676   -3.2739    0.1555 H   0  0  0  0  0  0  0  0  0  0  0  0
    6.9771   -4.2447   -0.8584 H   0  0  0  0  0  0  0  0  0  0  0  0
    6.2294   -1.7027    0.5405 H   0  0  0  0  0  0  0  0  0  0  0  0
    6.2018   -2.4980   -2.1623 H   0  0  0  0  0  0  0  0  0  0  0  0
    2.7476   -1.4250   -0.2139 H   0  0  0  0  0  0  0  0  0  0  0  0
    4.1507   -0.6280   -0.8660 H   0  0  0  0  0  0  0  0  0  0  0  0
    4.0222   -0.9209    0.8461 H   0  0  0  0  0  0  0  0  0  0  0  0
    3.1012   -3.8647   -1.5309 H   0  0  0  0  0  0  0  0  0  0  0  0
    3.6863   -2.4373   -2.3187 H   0  0  0  0  0  0  0  0  0  0  0  0
    4.5793   -4.9463   -2.5253 H   0  0  0  0  0  0  0  0  0  0  0  0
    4.4909   -2.9184    1.7327 H   0  0  0  0  0  0  0  0  0  0  0  0
    2.0796   -2.9669    1.0832 H   0  0  0  0  0  0  0  0  0  0  0  0
    2.3289   -4.6300    0.6298 H   0  0  0  0  0  0  0  0  0  0  0  0
    1.9693   -3.4831    3.2537 H   0  0  0  0  0  0  0  0  0  0  0  0
    1.6832   -5.1152    2.6973 H   0  0  0  0  0  0  0  0  0  0  0  0
    4.0616   -2.5811    3.7431 H   0  0  0  0  0  0  0  0  0  0  0  0
    5.4972   -3.5745    3.9573 H   0  0  0  0  0  0  0  0  0  0  0  0
    4.3475   -3.3850    5.2234 H   0  0  0  0  0  0  0  0  0  0  0  0
  1  2  1  0
  1 33  1  0
  1 34  1  0
  1 35  1  0
  2 13  1  0
  2  3  1  0
  2 36  1  6
  3  4  1  0
  3 37  1  0
  3 38  1  0
  4  5  1  0
  4 39  1  0
  4 40  1  0
  5 12  1  0
  5  6  1  1
  5  7  1  0
  6 41  1  0
  6 42  1  0
  6 43  1  0
  7  8  1  0
  7 44  1  0
  7 45  1  0
  8  9  1  0
  8 46  1  0
  8 47  1  0
  9 31  1  0
  9 10  1  1
  9 11  1  0
 10 48  1  0
 10 49  1  0
 10 50  1  0
 11 12  2  0
 11 15  1  0
 12 13  1  0
 13 14  1  0
 13 51  1  6
 14 52  1  0
 14 53  1  0
 14 54  1  0
 15 16  1  0
 15 55  1  0
 15 56  1  0
 16 17  1  0
 16 57  1  0
 16 58  1  0
 17 31  1  0
 17 18  1  0
 17 59  1  1
 18 28  1  0
 18 19  1  6
 18 20  1  0
 19 60  1  0
 19 61  1  0
 19 62  1  0
 20 21  1  0
 20 63  1  0
 20 64  1  0
 21 22  1  0
 21 65  1  0
 21 66  1  0
 22 23  1  0
 22 24  1  0
 22 67  1  1
 23 68  1  0
 24 25  1  1
 24 26  1  0
 24 28  1  0
 25 69  1  0
 25 70  1  0
 25 71  1  0
 26 27  1  0
 26 72  1  0
 26 73  1  0
 27 74  1  0
 28 29  1  0
 28 75  1  1
 29 30  1  0
 29 76  1  0
 29 77  1  0
 30 31  1  0
 30 78  1  0
 30 79  1  0
 31 32  1  1
 32 80  1  0
 32 81  1  0
 32 82  1  0
M  END
>  <i_m_ct_stereo_status>  (129) 
1

>  <s_m_source_file>  (129) 
/var/tmp/pbs.5076255.sched01/tmppnbbzaq8/41bb87crku.sdf

>  <i_m_source_file_index>  (129) 
10

>  <i_lp_mmshare_version>  (129) 
48012

>  <i_f3d_flags>  (129) 
0

>  <s_epik_input>  (129) 
W0NIMl0xW0NIMl1bQ0BASF0oW0NIM10pW0NASF0oW0NIM10pQyhbQ0BdMTJbQ0gzXSk9QzNbQ0BdKFtDSDNdKShbQ0gyXVtDSDJdMilbQ0BAXTQoW0NIM10pW0NAQEhdKFtDSDJdW0NIMl0zKVtDQEBdNShbQ0gzXSlbQ0BIXShbQ0gyXVtDSDJdNClbQ0BdKFtDSDNdKShbQ0gyXVtPSF0pW0NASF0oW09IXSlbQ0gyXVtDSDJdNQ==

>  <s_epik_cmdline>  (129) 
J2VwaWtfcHl0aG9uJywgJy1waHQnLCAnMi4wJywgJy1waCcsICc3LjAnLCAnLXRuJywgJzgnLCAnLW1hJywgJzIwMCcsICctaW1hZScsICc8aW5maWxlLm1hZT4nLCAnLW9tYWUnLCAnPG91dGZpbGUubWFlPic=

>  <r_lp_tautomer_probability>  (129) 
1

>  <r_epik_Ionization_Penalty>  (129) 
1.85211e-06

>  <r_epik_Ionization_Penalty_Charging>  (129) 
0

>  <r_epik_Ionization_Penalty_Neutral>  (129) 
1.85211e-06

>  <r_epik_State_Penalty>  (129) 
-0

>  <r_epik_Charging_Adjusted_Penalty>  (129) 
0

>  <i_epik_Tot_Q>  (129) 
0

>  <i_epik_Tot_abs_Q>  (129) 
0

>  <s_lp_Force_Field>  (129) 
OPLS3e

>  <r_lp_Energy>  (129) 
98.0271

>  <b_lp_Chiralities_Consistent>  (129) 
1

>  <s_lp_Variant>  (129) 
37:0-1

>  <s_i_glide_gridfile>  (129) 
pfpi4k_grid

>  <i_i_glide_lignum>  (129) 
10

>  <i_i_glide_rotatable_bonds>  (129) 
3

>  <r_i_docking_score>  (129) 
-2.71946

>  <r_i_glide_ligand_efficiency>  (129) 
-0.0849832

>  <r_i_glide_ligand_efficiency_sa>  (129) 
-0.269805

>  <r_i_glide_ligand_efficiency_ln>  (129) 
-0.608962

>  <r_i_glide_gscore>  (129) 
-2.71946

>  <r_i_glide_lipo>  (129) 
-0.347266

>  <r_i_glide_hbond>  (129) 
0

>  <r_i_glide_metal>  (129) 
-0

>  <r_i_glide_rewards>  (129) 
-0.390567

>  <r_i_glide_evdw>  (129) 
-19.8995

>  <r_i_glide_ecoul>  (129) 
-7.25748

>  <r_i_glide_erotb>  (129) 
0.101969

>  <r_i_glide_esite>  (129) 
0

>  <r_i_glide_emodel>  (129) 
-28.8119

>  <r_i_glide_energy>  (129) 
-27.157

>  <r_i_glide_einternal>  (129) 
4.47999

>  <r_i_glide_intrahb_reward>  (129) 
-0

>  <i_i_glide_confnum>  (129) 
3

>  <i_i_glide_posenum>  (129) 
21

>  <r_i_glide_eff_state_penalty>  (129) 
0

>  <ligand_id>  (129) 
37

>  <original_smiles>  (129) 
CC1CCC2(C)CCC3(C)C(=C2C1C)CCC1C2(C)CCC(O)C(C)(CO)C2CCC13C

>  <smiles>  (129) 
[H]OC([H])([H])C1(C([H])([H])[H])C([H])(O[H])C([H])([H])C([H])([H])C2(C([H])([H])[H])C1([H])C([H])([H])C([H])([H])C1(C([H])([H])[H])C2([H])C([H])([H])C([H])([H])C2=C3C([H])(C([H])([H])[H])C([H])(C([H])([H])[H])C([H])([H])C([H])([H])C3(C([H])([H])[H])C([H])([H])C([H])([H])C21C([H])([H])[H]

$$$$
37:0:2
     RDKit          3D

 82 86  0  0  1  0  0  0  0  0999 V2000
   -0.3151   -8.0224    3.2553 C   0  0  0  0  0  0  0  0  0  0  0  0
    0.1063   -9.2979    4.0171 C   0  0  2  0  0  0  0  0  0  0  0  0
   -0.1982   -9.2140    5.5120 C   0  0  0  0  0  0  0  0  0  0  0  0
    0.6763   -8.1594    6.1866 C   0  0  0  0  0  0  0  0  0  0  0  0
    2.2018   -8.3791    5.9938 C   0  0  2  0  0  0  0  0  0  0  0  0
    2.6749   -9.5007    6.9407 C   0  0  0  0  0  0  0  0  0  0  0  0
    2.8820   -7.0645    6.4060 C   0  0  0  0  0  0  0  0  0  0  0  0
    4.3758   -7.0445    6.0964 C   0  0  0  0  0  0  0  0  0  0  0  0
    4.7682   -7.3452    4.6097 C   0  0  1  0  0  0  0  0  0  0  0  0
    6.1265   -8.1103    4.7109 C   0  0  0  0  0  0  0  0  0  0  0  0
    3.7392   -8.3018    3.9585 C   0  0  0  0  0  0  0  0  0  0  0  0
    2.5868   -8.7474    4.5344 C   0  0  0  0  0  0  0  0  0  0  0  0
    1.5870   -9.6646    3.7810 C   0  0  1  0  0  0  0  0  0  0  0  0
    1.8840  -11.1577    4.0121 C   0  0  0  0  0  0  0  0  0  0  0  0
    4.2019   -8.7108    2.5698 C   0  0  0  0  0  0  0  0  0  0  0  0
    4.2512   -7.4817    1.6842 C   0  0  0  0  0  0  0  0  0  0  0  0
    5.1686   -6.3190    2.1699 C   0  0  1  0  0  0  0  0  0  0  0  0
    5.1451   -5.0499    1.1537 C   0  0  2  0  0  0  0  0  0  0  0  0
    4.3146   -5.3680   -0.1431 C   0  0  0  0  0  0  0  0  0  0  0  0
    6.5878   -4.7225    0.6757 C   0  0  0  0  0  0  0  0  0  0  0  0
    6.6977   -3.4375   -0.1852 C   0  0  0  0  0  0  0  0  0  0  0  0
    6.1053   -2.1967    0.5238 C   0  0  1  0  0  0  0  0  0  0  0  0
    6.2230   -1.0442   -0.3120 O   0  0  0  0  0  0  0  0  0  0  0  0
    4.6510   -2.3871    1.0688 C   0  0  1  0  0  0  0  0  0  0  0  0
    4.4404   -1.2355    2.0937 C   0  0  0  0  0  0  0  0  0  0  0  0
    3.5430   -2.2559   -0.0411 C   0  0  0  0  0  0  0  0  0  0  0  0
    3.9122   -2.5788   -1.3597 O   0  0  0  0  0  0  0  0  0  0  0  0
    4.6318   -3.7548    1.8792 C   0  0  1  0  0  0  0  0  0  0  0  0
    3.3805   -4.0751    2.7198 C   0  0  0  0  0  0  0  0  0  0  0  0
    3.6189   -5.1436    3.8125 C   0  0  0  0  0  0  0  0  0  0  0  0
    4.9167   -6.0137    3.7137 C   0  0  1  0  0  0  0  0  0  0  0  0
    6.1249   -5.2070    4.3035 C   0  0  0  0  0  0  0  0  0  0  0  0
    0.3063   -7.1692    3.5197 H   0  0  0  0  0  0  0  0  0  0  0  0
   -1.3519   -7.7641    3.4686 H   0  0  0  0  0  0  0  0  0  0  0  0
   -0.2300   -8.1671    2.1779 H   0  0  0  0  0  0  0  0  0  0  0  0
   -0.5084  -10.1026    3.6120 H   0  0  0  0  0  0  0  0  0  0  0  0
   -1.2511   -8.9827    5.6602 H   0  0  0  0  0  0  0  0  0  0  0  0
   -0.0543  -10.1844    5.9798 H   0  0  0  0  0  0  0  0  0  0  0  0
    0.3814   -7.1815    5.8044 H   0  0  0  0  0  0  0  0  0  0  0  0
    0.4418   -8.1319    7.2497 H   0  0  0  0  0  0  0  0  0  0  0  0
    2.6362   -9.1926    7.9847 H   0  0  0  0  0  0  0  0  0  0  0  0
    3.6921   -9.8202    6.7193 H   0  0  0  0  0  0  0  0  0  0  0  0
    2.0454  -10.3778    6.8546 H   0  0  0  0  0  0  0  0  0  0  0  0
    2.3907   -6.2246    5.9247 H   0  0  0  0  0  0  0  0  0  0  0  0
    2.7313   -6.8998    7.4713 H   0  0  0  0  0  0  0  0  0  0  0  0
    4.7804   -6.0946    6.4372 H   0  0  0  0  0  0  0  0  0  0  0  0
    4.8376   -7.7854    6.7499 H   0  0  0  0  0  0  0  0  0  0  0  0
    6.7975   -7.6924    5.4587 H   0  0  0  0  0  0  0  0  0  0  0  0
    6.6808   -8.1261    3.7752 H   0  0  0  0  0  0  0  0  0  0  0  0
    5.9628   -9.1457    5.0075 H   0  0  0  0  0  0  0  0  0  0  0  0
    1.6976   -9.5058    2.7148 H   0  0  0  0  0  0  0  0  0  0  0  0
    2.9229  -11.3844    3.7781 H   0  0  0  0  0  0  0  0  0  0  0  0
    1.2634  -11.7835    3.3709 H   0  0  0  0  0  0  0  0  0  0  0  0
    1.7002  -11.4732    5.0367 H   0  0  0  0  0  0  0  0  0  0  0  0
    5.1782   -9.1739    2.6061 H   0  0  0  0  0  0  0  0  0  0  0  0
    3.5972   -9.4724    2.0917 H   0  0  0  0  0  0  0  0  0  0  0  0
    4.5978   -7.8643    0.7277 H   0  0  0  0  0  0  0  0  0  0  0  0
    3.2197   -7.1375    1.5544 H   0  0  0  0  0  0  0  0  0  0  0  0
    6.1736   -6.7314    2.1095 H   0  0  0  0  0  0  0  0  0  0  0  0
    4.4025   -4.6368   -0.9018 H   0  0  0  0  0  0  0  0  0  0  0  0
    3.2507   -5.4932    0.0924 H   0  0  0  0  0  0  0  0  0  0  0  0
    4.6455   -6.3210   -0.5882 H   0  0  0  0  0  0  0  0  0  0  0  0
    7.2521   -4.5949    1.5281 H   0  0  0  0  0  0  0  0  0  0  0  0
    6.9844   -5.5644    0.1051 H   0  0  0  0  0  0  0  0  0  0  0  0
    7.7479   -3.2450   -0.4062 H   0  0  0  0  0  0  0  0  0  0  0  0
    6.2387   -3.5872   -1.1569 H   0  0  0  0  0  0  0  0  0  0  0  0
    6.7680   -1.9827    1.3724 H   0  0  0  0  0  0  0  0  0  0  0  0
    5.7761   -0.3175    0.1098 H   0  0  0  0  0  0  0  0  0  0  0  0
    3.4313   -1.2023    2.4933 H   0  0  0  0  0  0  0  0  0  0  0  0
    4.6265   -0.2565    1.6600 H   0  0  0  0  0  0  0  0  0  0  0  0
    5.1138   -1.3286    2.9408 H   0  0  0  0  0  0  0  0  0  0  0  0
    2.6763   -2.8607    0.2247 H   0  0  0  0  0  0  0  0  0  0  0  0
    3.1568   -1.2248   -0.0549 H   0  0  0  0  0  0  0  0  0  0  0  0
    3.1384   -2.7678   -1.8562 H   0  0  0  0  0  0  0  0  0  0  0  0
    5.3899   -3.5306    2.6125 H   0  0  0  0  0  0  0  0  0  0  0  0
    2.9726   -3.1799    3.2031 H   0  0  0  0  0  0  0  0  0  0  0  0
    2.5973   -4.4300    2.0632 H   0  0  0  0  0  0  0  0  0  0  0  0
    3.6098   -4.6396    4.7746 H   0  0  0  0  0  0  0  0  0  0  0  0
    2.7365   -5.7958    3.8078 H   0  0  0  0  0  0  0  0  0  0  0  0
    5.8813   -4.1676    4.5343 H   0  0  0  0  0  0  0  0  0  0  0  0
    6.9809   -5.2159    3.6320 H   0  0  0  0  0  0  0  0  0  0  0  0
    6.5174   -5.5820    5.2485 H   0  0  0  0  0  0  0  0  0  0  0  0
  1  2  1  0
  1 33  1  0
  1 34  1  0
  1 35  1  0
  2 13  1  0
  2  3  1  0
  2 36  1  6
  3  4  1  0
  3 37  1  0
  3 38  1  0
  4  5  1  0
  4 39  1  0
  4 40  1  0
  5 12  1  0
  5  6  1  1
  5  7  1  0
  6 41  1  0
  6 42  1  0
  6 43  1  0
  7  8  1  0
  7 44  1  0
  7 45  1  0
  8  9  1  0
  8 46  1  0
  8 47  1  0
  9 31  1  0
  9 10  1  1
  9 11  1  0
 10 48  1  0
 10 49  1  0
 10 50  1  0
 11 12  2  0
 11 15  1  0
 12 13  1  0
 13 14  1  0
 13 51  1  6
 14 52  1  0
 14 53  1  0
 14 54  1  0
 15 16  1  0
 15 55  1  0
 15 56  1  0
 16 17  1  0
 16 57  1  0
 16 58  1  0
 17 31  1  0
 17 18  1  0
 17 59  1  1
 18 28  1  0
 18 19  1  6
 18 20  1  0
 19 60  1  0
 19 61  1  0
 19 62  1  0
 20 21  1  0
 20 63  1  0
 20 64  1  0
 21 22  1  0
 21 65  1  0
 21 66  1  0
 22 23  1  0
 22 24  1  0
 22 67  1  1
 23 68  1  0
 24 25  1  1
 24 26  1  0
 24 28  1  0
 25 69  1  0
 25 70  1  0
 25 71  1  0
 26 27  1  0
 26 72  1  0
 26 73  1  0
 27 74  1  0
 28 29  1  0
 28 75  1  1
 29 30  1  0
 29 76  1  0
 29 77  1  0
 30 31  1  0
 30 78  1  0
 30 79  1  0
 31 32  1  1
 32 80  1  0
 32 81  1  0
 32 82  1  0
M  END
>  <i_m_ct_stereo_status>  (130) 
1

>  <s_m_source_file>  (130) 
/var/tmp/pbs.5076255.sched01/tmppnbbzaq8/41bb87crku.sdf

>  <i_m_source_file_index>  (130) 
10

>  <i_lp_mmshare_version>  (130) 
48012

>  <i_f3d_flags>  (130) 
0

>  <s_epik_input>  (130) 
W0NIMl0xW0NIMl1bQ0BASF0oW0NIM10pW0NASF0oW0NIM10pQyhbQ0BdMTJbQ0gzXSk9QzNbQ0BdKFtDSDNdKShbQ0gyXVtDSDJdMilbQ0BAXTQoW0NIM10pW0NAQEhdKFtDSDJdW0NIMl0zKVtDQEBdNShbQ0gzXSlbQ0BIXShbQ0gyXVtDSDJdNClbQ0BdKFtDSDNdKShbQ0gyXVtPSF0pW0NASF0oW09IXSlbQ0gyXVtDSDJdNQ==

>  <s_epik_cmdline>  (130) 
J2VwaWtfcHl0aG9uJywgJy1waHQnLCAnMi4wJywgJy1waCcsICc3LjAnLCAnLXRuJywgJzgnLCAnLW1hJywgJzIwMCcsICctaW1hZScsICc8aW5maWxlLm1hZT4nLCAnLW9tYWUnLCAnPG91dGZpbGUubWFlPic=

>  <r_lp_tautomer_probability>  (130) 
1

>  <r_epik_Ionization_Penalty>  (130) 
1.85211e-06

>  <r_epik_Ionization_Penalty_Charging>  (130) 
0

>  <r_epik_Ionization_Penalty_Neutral>  (130) 
1.85211e-06

>  <r_epik_State_Penalty>  (130) 
-0

>  <r_epik_Charging_Adjusted_Penalty>  (130) 
0

>  <i_epik_Tot_Q>  (130) 
0

>  <i_epik_Tot_abs_Q>  (130) 
0

>  <s_lp_Force_Field>  (130) 
OPLS3e

>  <r_lp_Energy>  (130) 
98.0271

>  <b_lp_Chiralities_Consistent>  (130) 
1

>  <s_lp_Variant>  (130) 
37:0-1

>  <s_i_glide_gridfile>  (130) 
pfpi4k_grid

>  <i_i_glide_lignum>  (130) 
10

>  <i_i_glide_rotatable_bonds>  (130) 
3

>  <r_i_docking_score>  (130) 
-2.4555

>  <r_i_glide_ligand_efficiency>  (130) 
-0.0767343

>  <r_i_glide_ligand_efficiency_sa>  (130) 
-0.243616

>  <r_i_glide_ligand_efficiency_ln>  (130) 
-0.549853

>  <r_i_glide_gscore>  (130) 
-2.4555

>  <r_i_glide_lipo>  (130) 
-0.526678

>  <r_i_glide_hbond>  (130) 
0

>  <r_i_glide_metal>  (130) 
-0

>  <r_i_glide_rewards>  (130) 
-0.390567

>  <r_i_glide_evdw>  (130) 
-21.1064

>  <r_i_glide_ecoul>  (130) 
-3.89935

>  <r_i_glide_erotb>  (130) 
0.101969

>  <r_i_glide_esite>  (130) 
0

>  <r_i_glide_emodel>  (130) 
-26.8451

>  <r_i_glide_energy>  (130) 
-25.0057

>  <r_i_glide_einternal>  (130) 
3.9419

>  <r_i_glide_intrahb_reward>  (130) 
-0

>  <i_i_glide_confnum>  (130) 
3

>  <i_i_glide_posenum>  (130) 
23

>  <r_i_glide_eff_state_penalty>  (130) 
0

>  <ligand_id>  (130) 
37

>  <original_smiles>  (130) 
CC1CCC2(C)CCC3(C)C(=C2C1C)CCC1C2(C)CCC(O)C(C)(CO)C2CCC13C

>  <smiles>  (130) 
[H]OC([H])([H])C1(C([H])([H])[H])C([H])(O[H])C([H])([H])C([H])([H])C2(C([H])([H])[H])C1([H])C([H])([H])C([H])([H])C1(C([H])([H])[H])C2([H])C([H])([H])C([H])([H])C2=C3C([H])(C([H])([H])[H])C([H])(C([H])([H])[H])C([H])([H])C([H])([H])C3(C([H])([H])[H])C([H])([H])C([H])([H])C21C([H])([H])[H]

$$$$
38:0:0
     RDKit          3D

 31 34  0  0  1  0  0  0  0  0999 V2000
    2.3710   -5.0203    0.0843 C   0  0  0  0  0  0  0  0  0  0  0  0
    1.7628   -5.8823    0.8848 N   0  0  0  0  0  0  0  0  0  0  0  0
    2.5971   -5.9234    1.9900 N   0  0  0  0  0  0  0  0  0  0  0  0
    3.6097   -5.1129    1.8506 N   0  0  0  0  0  0  0  0  0  0  0  0
    3.4997   -4.5473    0.6182 N   0  0  0  0  0  0  0  0  0  0  0  0
    4.4328   -3.5364    0.1201 C   0  0  2  0  0  0  0  0  0  0  0  0
    4.6204   -3.7280   -1.4117 C   0  0  0  0  0  0  0  0  0  0  0  0
    5.5891   -2.6764   -1.9762 C   0  0  1  0  0  0  0  0  0  0  0  0
    5.0028   -1.2717   -1.7153 C   0  0  0  0  0  0  0  0  0  0  0  0
    4.8522   -1.0570   -0.1959 C   0  0  2  0  0  0  0  0  0  0  0  0
    6.2278   -1.1891    0.4875 C   0  0  0  0  0  0  0  0  0  0  0  0
    6.7957   -2.6005    0.2270 C   0  0  2  0  0  0  0  0  0  0  0  0
    6.9577   -2.8394   -1.2869 C   0  0  0  0  0  0  0  0  0  0  0  0
    5.8265   -3.6524    0.8035 C   0  0  0  0  0  0  0  0  0  0  0  0
    3.8794   -2.1092    0.3804 C   0  0  0  0  0  0  0  0  0  0  0  0
    1.9708   -4.7054   -0.8695 H   0  0  0  0  0  0  0  0  0  0  0  0
    4.9922   -4.7329   -1.6246 H   0  0  0  0  0  0  0  0  0  0  0  0
    3.6708   -3.6297   -1.9399 H   0  0  0  0  0  0  0  0  0  0  0  0
    5.6986   -2.8359   -3.0504 H   0  0  0  0  0  0  0  0  0  0  0  0
    5.6398   -0.5036   -2.1462 H   0  0  0  0  0  0  0  0  0  0  0  0
    4.0312   -1.1712   -2.2038 H   0  0  0  0  0  0  0  0  0  0  0  0
    4.4549   -0.0560   -0.0121 H   0  0  0  0  0  0  0  0  0  0  0  0
    6.9108   -0.4306    0.1110 H   0  0  0  0  0  0  0  0  0  0  0  0
    6.1338   -1.0109    1.5595 H   0  0  0  0  0  0  0  0  0  0  0  0
    7.7641   -2.7009    0.7184 H   0  0  0  0  0  0  0  0  0  0  0  0
    7.3373   -3.8468   -1.4550 H   0  0  0  0  0  0  0  0  0  0  0  0
    7.6934   -2.1672   -1.7204 H   0  0  0  0  0  0  0  0  0  0  0  0
    5.7480   -3.5005    1.8822 H   0  0  0  0  0  0  0  0  0  0  0  0
    6.2358   -4.6543    0.6606 H   0  0  0  0  0  0  0  0  0  0  0  0
    2.8956   -1.9875   -0.0758 H   0  0  0  0  0  0  0  0  0  0  0  0
    3.7393   -1.9395    1.4498 H   0  0  0  0  0  0  0  0  0  0  0  0
  1  5  1  0
  1  2  2  0
  1 16  1  0
  2  3  1  0
  3  4  2  0
  4  5  1  0
  6  5  1  1
  6 14  1  0
  6 15  1  0
  6  7  1  0
  7  8  1  0
  7 17  1  0
  7 18  1  0
  8 13  1  0
  8  9  1  0
  8 19  1  6
  9 10  1  0
  9 20  1  0
  9 21  1  0
 10 11  1  0
 10 15  1  0
 10 22  1  6
 11 12  1  0
 11 23  1  0
 11 24  1  0
 12 13  1  0
 12 14  1  0
 12 25  1  1
 13 26  1  0
 13 27  1  0
 14 28  1  0
 14 29  1  0
 15 30  1  0
 15 31  1  0
M  END
>  <i_m_ct_stereo_status>  (131) 
1

>  <s_m_source_file>  (131) 
/var/tmp/pbs.5076255.sched01/tmppnbbzaq8/41bb87crku.sdf

>  <i_m_source_file_index>  (131) 
11

>  <i_lp_mmshare_version>  (131) 
48012

>  <i_f3d_flags>  (131) 
0

>  <s_epik_input>  (131) 
bjFubltjSF1uMUMyM1tDSDJdW0NASF00W0NIMl1bQ0BASF0oW0NIMl0zKVtDSDJdW0NASF0oW0NIMl00KVtDSDJdMg==

>  <s_epik_cmdline>  (131) 
J2VwaWtfcHl0aG9uJywgJy1waHQnLCAnMi4wJywgJy1waCcsICc3LjAnLCAnLXRuJywgJzgnLCAnLW1hJywgJzIwMCcsICctaW1hZScsICc8aW5maWxlLm1hZT4nLCAnLW9tYWUnLCAnPG91dGZpbGUubWFlPic=

>  <r_lp_tautomer_probability>  (131) 
1

>  <r_epik_Ionization_Penalty>  (131) 
2.80797e-08

>  <r_epik_Ionization_Penalty_Charging>  (131) 
0

>  <r_epik_Ionization_Penalty_Neutral>  (131) 
2.80797e-08

>  <r_epik_State_Penalty>  (131) 
-0

>  <r_epik_Charging_Adjusted_Penalty>  (131) 
0

>  <i_epik_Tot_Q>  (131) 
0

>  <i_epik_Tot_abs_Q>  (131) 
0

>  <s_lp_Force_Field>  (131) 
OPLS3e

>  <r_lp_Energy>  (131) 
7.28174

>  <b_lp_Chiralities_Consistent>  (131) 
1

>  <s_lp_Variant>  (131) 
38:0-1

>  <s_i_glide_gridfile>  (131) 
pfpi4k_grid

>  <i_i_glide_lignum>  (131) 
11

>  <i_i_glide_rotatable_bonds>  (131) 
1

>  <r_i_docking_score>  (131) 
-3.49248

>  <r_i_glide_ligand_efficiency>  (131) 
-0.232832

>  <r_i_glide_ligand_efficiency_sa>  (131) 
-0.574213

>  <r_i_glide_ligand_efficiency_ln>  (131) 
-0.941864

>  <r_i_glide_gscore>  (131) 
-3.49248

>  <r_i_glide_lipo>  (131) 
-0.291919

>  <r_i_glide_hbond>  (131) 
0

>  <r_i_glide_metal>  (131) 
-0

>  <r_i_glide_rewards>  (131) 
-2.01633

>  <r_i_glide_evdw>  (131) 
-20.5319

>  <r_i_glide_ecoul>  (131) 
-2.6992

>  <r_i_glide_erotb>  (131) 
0.394182

>  <r_i_glide_esite>  (131) 
-0.146939

>  <r_i_glide_emodel>  (131) 
-28.1087

>  <r_i_glide_energy>  (131) 
-23.2311

>  <r_i_glide_einternal>  (131) 
0.210132

>  <r_i_glide_intrahb_reward>  (131) 
-0

>  <i_i_glide_confnum>  (131) 
5

>  <i_i_glide_posenum>  (131) 
1

>  <r_i_glide_eff_state_penalty>  (131) 
0

>  <ligand_id>  (131) 
38

>  <original_smiles>  (131) 
c1nnnn1C12CC3CC(CC(C3)C1)C2

>  <smiles>  (131) 
[H]c1nnnn1C12C([H])([H])C3([H])C([H])([H])C([H])(C([H])([H])C([H])(C3([H])[H])C1([H])[H])C2([H])[H]

$$$$
38:0:1
     RDKit          3D

 31 34  0  0  1  0  0  0  0  0999 V2000
    3.4247   -6.2434    1.5363 C   0  0  0  0  0  0  0  0  0  0  0  0
    2.4337   -7.1053    1.7217 N   0  0  0  0  0  0  0  0  0  0  0  0
    1.4273   -6.6079    0.9085 N   0  0  0  0  0  0  0  0  0  0  0  0
    1.8118   -5.5268    0.2932 N   0  0  0  0  0  0  0  0  0  0  0  0
    3.0841   -5.2670    0.6841 N   0  0  0  0  0  0  0  0  0  0  0  0
    3.8343   -4.0949    0.2238 C   0  0  2  0  0  0  0  0  0  0  0  0
    4.1608   -3.1773    1.4340 C   0  0  0  0  0  0  0  0  0  0  0  0
    4.9889   -1.9603    0.9701 C   0  0  1  0  0  0  0  0  0  0  0  0
    6.3076   -2.4516    0.3378 C   0  0  0  0  0  0  0  0  0  0  0  0
    5.9870   -3.3355   -0.8841 C   0  0  2  0  0  0  0  0  0  0  0  0
    5.1840   -2.5274   -1.9228 C   0  0  0  0  0  0  0  0  0  0  0  0
    3.8692   -2.0428   -1.2804 C   0  0  2  0  0  0  0  0  0  0  0  0
    4.1749   -1.1520   -0.0603 C   0  0  0  0  0  0  0  0  0  0  0  0
    3.0429   -3.2585   -0.8255 C   0  0  0  0  0  0  0  0  0  0  0  0
    5.1626   -4.5578   -0.4261 C   0  0  0  0  0  0  0  0  0  0  0  0
    4.3833   -6.3017    2.0291 H   0  0  0  0  0  0  0  0  0  0  0  0
    3.2414   -2.8380    1.9175 H   0  0  0  0  0  0  0  0  0  0  0  0
    4.7221   -3.7238    2.1935 H   0  0  0  0  0  0  0  0  0  0  0  0
    5.2146   -1.3271    1.8295 H   0  0  0  0  0  0  0  0  0  0  0  0
    6.9277   -1.6068    0.0431 H   0  0  0  0  0  0  0  0  0  0  0  0
    6.8835   -3.0201    1.0707 H   0  0  0  0  0  0  0  0  0  0  0  0
    6.9190   -3.6784   -1.3337 H   0  0  0  0  0  0  0  0  0  0  0  0
    5.7694   -1.6796   -2.2762 H   0  0  0  0  0  0  0  0  0  0  0  0
    4.9711   -3.1494   -2.7936 H   0  0  0  0  0  0  0  0  0  0  0  0
    3.2908   -1.4732   -2.0083 H   0  0  0  0  0  0  0  0  0  0  0  0
    3.2386   -0.8129    0.3869 H   0  0  0  0  0  0  0  0  0  0  0  0
    4.7193   -0.2588   -0.3638 H   0  0  0  0  0  0  0  0  0  0  0  0
    2.7868   -3.8546   -1.7032 H   0  0  0  0  0  0  0  0  0  0  0  0
    2.0997   -2.9077   -0.4045 H   0  0  0  0  0  0  0  0  0  0  0  0
    5.7506   -5.1507    0.2768 H   0  0  0  0  0  0  0  0  0  0  0  0
    4.9550   -5.2100   -1.2775 H   0  0  0  0  0  0  0  0  0  0  0  0
  1  5  1  0
  1  2  2  0
  1 16  1  0
  2  3  1  0
  3  4  2  0
  4  5  1  0
  6  5  1  1
  6 14  1  0
  6 15  1  0
  6  7  1  0
  7  8  1  0
  7 17  1  0
  7 18  1  0
  8 13  1  0
  8  9  1  0
  8 19  1  1
  9 10  1  0
  9 20  1  0
  9 21  1  0
 10 11  1  0
 10 15  1  0
 10 22  1  6
 11 12  1  0
 11 23  1  0
 11 24  1  0
 12 13  1  0
 12 14  1  0
 12 25  1  6
 13 26  1  0
 13 27  1  0
 14 28  1  0
 14 29  1  0
 15 30  1  0
 15 31  1  0
M  END
>  <i_m_ct_stereo_status>  (132) 
1

>  <s_m_source_file>  (132) 
/var/tmp/pbs.5076255.sched01/tmppnbbzaq8/41bb87crku.sdf

>  <i_m_source_file_index>  (132) 
11

>  <i_lp_mmshare_version>  (132) 
48012

>  <i_f3d_flags>  (132) 
0

>  <s_epik_input>  (132) 
bjFubltjSF1uMUMyM1tDSDJdW0NASF00W0NIMl1bQ0BASF0oW0NIMl0zKVtDSDJdW0NASF0oW0NIMl00KVtDSDJdMg==

>  <s_epik_cmdline>  (132) 
J2VwaWtfcHl0aG9uJywgJy1waHQnLCAnMi4wJywgJy1waCcsICc3LjAnLCAnLXRuJywgJzgnLCAnLW1hJywgJzIwMCcsICctaW1hZScsICc8aW5maWxlLm1hZT4nLCAnLW9tYWUnLCAnPG91dGZpbGUubWFlPic=

>  <r_lp_tautomer_probability>  (132) 
1

>  <r_epik_Ionization_Penalty>  (132) 
2.80797e-08

>  <r_epik_Ionization_Penalty_Charging>  (132) 
0

>  <r_epik_Ionization_Penalty_Neutral>  (132) 
2.80797e-08

>  <r_epik_State_Penalty>  (132) 
-0

>  <r_epik_Charging_Adjusted_Penalty>  (132) 
0

>  <i_epik_Tot_Q>  (132) 
0

>  <i_epik_Tot_abs_Q>  (132) 
0

>  <s_lp_Force_Field>  (132) 
OPLS3e

>  <r_lp_Energy>  (132) 
7.28174

>  <b_lp_Chiralities_Consistent>  (132) 
1

>  <s_lp_Variant>  (132) 
38:0-1

>  <s_i_glide_gridfile>  (132) 
pfpi4k_grid

>  <i_i_glide_lignum>  (132) 
11

>  <i_i_glide_rotatable_bonds>  (132) 
1

>  <r_i_docking_score>  (132) 
-3.45596

>  <r_i_glide_ligand_efficiency>  (132) 
-0.230397

>  <r_i_glide_ligand_efficiency_sa>  (132) 
-0.568209

>  <r_i_glide_ligand_efficiency_ln>  (132) 
-0.932015

>  <r_i_glide_gscore>  (132) 
-3.45596

>  <r_i_glide_lipo>  (132) 
-0.324249

>  <r_i_glide_hbond>  (132) 
0

>  <r_i_glide_metal>  (132) 
-0

>  <r_i_glide_rewards>  (132) 
-2.07633

>  <r_i_glide_evdw>  (132) 
-20.1211

>  <r_i_glide_ecoul>  (132) 
-1.73521

>  <r_i_glide_erotb>  (132) 
0.394182

>  <r_i_glide_esite>  (132) 
-0.183226

>  <r_i_glide_emodel>  (132) 
-26.757

>  <r_i_glide_energy>  (132) 
-21.8563

>  <r_i_glide_einternal>  (132) 
0.158935

>  <r_i_glide_intrahb_reward>  (132) 
-0

>  <i_i_glide_confnum>  (132) 
1

>  <i_i_glide_posenum>  (132) 
16

>  <r_i_glide_eff_state_penalty>  (132) 
0

>  <ligand_id>  (132) 
38

>  <original_smiles>  (132) 
c1nnnn1C12CC3CC(CC(C3)C1)C2

>  <smiles>  (132) 
[H]c1nnnn1C12C([H])([H])C3([H])C([H])([H])C([H])(C([H])([H])C([H])(C3([H])[H])C1([H])[H])C2([H])[H]

$$$$
38:0:2
     RDKit          3D

 31 34  0  0  1  0  0  0  0  0999 V2000
    4.1171   -6.0395    0.9830 C   0  0  0  0  0  0  0  0  0  0  0  0
    3.0976   -6.8224    1.2910 N   0  0  0  0  0  0  0  0  0  0  0  0
    2.0003   -6.0934    0.8725 N   0  0  0  0  0  0  0  0  0  0  0  0
    2.3565   -4.9609    0.3459 N   0  0  0  0  0  0  0  0  0  0  0  0
    3.7119   -4.8875    0.4345 N   0  0  0  0  0  0  0  0  0  0  0  0
    4.4694   -3.7369   -0.0691 C   0  0  2  0  0  0  0  0  0  0  0  0
    5.9063   -3.7461    0.5323 C   0  0  0  0  0  0  0  0  0  0  0  0
    6.7245   -2.5516    0.0192 C   0  0  1  0  0  0  0  0  0  0  0  0
    6.8267   -2.6529   -1.5169 C   0  0  0  0  0  0  0  0  0  0  0  0
    5.4129   -2.5896   -2.1283 C   0  0  2  0  0  0  0  0  0  0  0  0
    4.7254   -1.2675   -1.7210 C   0  0  0  0  0  0  0  0  0  0  0  0
    4.6177   -1.1971   -0.1834 C   0  0  2  0  0  0  0  0  0  0  0  0
    6.0239   -1.2472    0.4466 C   0  0  0  0  0  0  0  0  0  0  0  0
    3.7843   -2.3928    0.3271 C   0  0  0  0  0  0  0  0  0  0  0  0
    4.5814   -3.7860   -1.6157 C   0  0  0  0  0  0  0  0  0  0  0  0
    5.1536   -6.3077    1.1597 H   0  0  0  0  0  0  0  0  0  0  0  0
    5.8621   -3.7247    1.6236 H   0  0  0  0  0  0  0  0  0  0  0  0
    6.4383   -4.6557    0.2495 H   0  0  0  0  0  0  0  0  0  0  0  0
    7.7223   -2.5938    0.4577 H   0  0  0  0  0  0  0  0  0  0  0  0
    7.4447   -1.8601   -1.9103 H   0  0  0  0  0  0  0  0  0  0  0  0
    7.3230   -3.5779   -1.8060 H   0  0  0  0  0  0  0  0  0  0  0  0
    5.4882   -2.6427   -3.2140 H   0  0  0  0  0  0  0  0  0  0  0  0
    5.2857   -0.4121   -2.0978 H   0  0  0  0  0  0  0  0  0  0  0  0
    3.7319   -1.2049   -2.1682 H   0  0  0  0  0  0  0  0  0  0  0  0
    4.1231   -0.2685    0.1034 H   0  0  0  0  0  0  0  0  0  0  0  0
    5.9436   -1.2102    1.5345 H   0  0  0  0  0  0  0  0  0  0  0  0
    6.6112   -0.3803    0.1486 H   0  0  0  0  0  0  0  0  0  0  0  0
    2.7787   -2.3242   -0.0926 H   0  0  0  0  0  0  0  0  0  0  0  0
    3.6682   -2.3326    1.4100 H   0  0  0  0  0  0  0  0  0  0  0  0
    5.0346   -4.7255   -1.9325 H   0  0  0  0  0  0  0  0  0  0  0  0
    3.5890   -3.7662   -2.0688 H   0  0  0  0  0  0  0  0  0  0  0  0
  1  5  1  0
  1  2  2  0
  1 16  1  0
  2  3  1  0
  3  4  2  0
  4  5  1  0
  6  5  1  1
  6 14  1  0
  6 15  1  0
  6  7  1  0
  7  8  1  0
  7 17  1  0
  7 18  1  0
  8 13  1  0
  8  9  1  0
  8 19  1  1
  9 10  1  0
  9 20  1  0
  9 21  1  0
 10 11  1  0
 10 15  1  0
 10 22  1  6
 11 12  1  0
 11 23  1  0
 11 24  1  0
 12 13  1  0
 12 14  1  0
 12 25  1  6
 13 26  1  0
 13 27  1  0
 14 28  1  0
 14 29  1  0
 15 30  1  0
 15 31  1  0
M  END
>  <i_m_ct_stereo_status>  (133) 
1

>  <s_m_source_file>  (133) 
/var/tmp/pbs.5076255.sched01/tmppnbbzaq8/41bb87crku.sdf

>  <i_m_source_file_index>  (133) 
11

>  <i_lp_mmshare_version>  (133) 
48012

>  <i_f3d_flags>  (133) 
0

>  <s_epik_input>  (133) 
bjFubltjSF1uMUMyM1tDSDJdW0NASF00W0NIMl1bQ0BASF0oW0NIMl0zKVtDSDJdW0NASF0oW0NIMl00KVtDSDJdMg==

>  <s_epik_cmdline>  (133) 
J2VwaWtfcHl0aG9uJywgJy1waHQnLCAnMi4wJywgJy1waCcsICc3LjAnLCAnLXRuJywgJzgnLCAnLW1hJywgJzIwMCcsICctaW1hZScsICc8aW5maWxlLm1hZT4nLCAnLW9tYWUnLCAnPG91dGZpbGUubWFlPic=

>  <r_lp_tautomer_probability>  (133) 
1

>  <r_epik_Ionization_Penalty>  (133) 
2.80797e-08

>  <r_epik_Ionization_Penalty_Charging>  (133) 
0

>  <r_epik_Ionization_Penalty_Neutral>  (133) 
2.80797e-08

>  <r_epik_State_Penalty>  (133) 
-0

>  <r_epik_Charging_Adjusted_Penalty>  (133) 
0

>  <i_epik_Tot_Q>  (133) 
0

>  <i_epik_Tot_abs_Q>  (133) 
0

>  <s_lp_Force_Field>  (133) 
OPLS3e

>  <r_lp_Energy>  (133) 
7.28174

>  <b_lp_Chiralities_Consistent>  (133) 
1

>  <s_lp_Variant>  (133) 
38:0-1

>  <s_i_glide_gridfile>  (133) 
pfpi4k_grid

>  <i_i_glide_lignum>  (133) 
11

>  <i_i_glide_rotatable_bonds>  (133) 
1

>  <r_i_docking_score>  (133) 
-3.31212

>  <r_i_glide_ligand_efficiency>  (133) 
-0.220808

>  <r_i_glide_ligand_efficiency_sa>  (133) 
-0.544559

>  <r_i_glide_ligand_efficiency_ln>  (133) 
-0.893223

>  <r_i_glide_gscore>  (133) 
-3.31212

>  <r_i_glide_lipo>  (133) 
-0.294238

>  <r_i_glide_hbond>  (133) 
0

>  <r_i_glide_metal>  (133) 
-0

>  <r_i_glide_rewards>  (133) 
-2.12273

>  <r_i_glide_evdw>  (133) 
-22.0821

>  <r_i_glide_ecoul>  (133) 
-0.571942

>  <r_i_glide_erotb>  (133) 
0.394182

>  <r_i_glide_esite>  (133) 
-0.0994368

>  <r_i_glide_emodel>  (133) 
-27.2648

>  <r_i_glide_energy>  (133) 
-22.6541

>  <r_i_glide_einternal>  (133) 
0.164092

>  <r_i_glide_intrahb_reward>  (133) 
-0

>  <i_i_glide_confnum>  (133) 
1

>  <i_i_glide_posenum>  (133) 
7

>  <r_i_glide_eff_state_penalty>  (133) 
0

>  <ligand_id>  (133) 
38

>  <original_smiles>  (133) 
c1nnnn1C12CC3CC(CC(C3)C1)C2

>  <smiles>  (133) 
[H]c1nnnn1C12C([H])([H])C3([H])C([H])([H])C([H])(C([H])([H])C([H])(C3([H])[H])C1([H])[H])C2([H])[H]

$$$$
39:0:0
     RDKit          3D

 46 51  0  0  1  0  0  0  0  0999 V2000
   -1.4158   -8.6805    2.3933 C   0  0  0  0  0  0  0  0  0  0  0  0
   -0.2147   -7.9678    2.1481 O   0  0  0  0  0  0  0  0  0  0  0  0
    0.8891   -8.2729    2.9160 C   0  0  0  0  0  0  0  0  0  0  0  0
    0.9036   -9.2412    3.9763 C   0  0  0  0  0  0  0  0  0  0  0  0
    2.0741   -9.5046    4.7521 C   0  0  0  0  0  0  0  0  0  0  0  0
    3.2587   -8.8012    4.4551 C   0  0  0  0  0  0  0  0  0  0  0  0
    3.1536   -7.9055    3.3983 C   0  0  0  0  0  0  0  0  0  0  0  0
    2.0786   -7.5723    2.6186 C   0  0  0  0  0  0  0  0  0  0  0  0
    2.3652   -6.6014    1.6901 O   0  0  0  0  0  0  0  0  0  0  0  0
    3.7339   -6.1684    1.9078 C   0  0  2  0  0  0  0  0  0  0  0  0
    4.5659   -6.1835    0.5990 C   0  0  1  0  0  0  0  0  0  0  0  0
    4.2699   -5.0555   -0.2847 N   0  0  0  0  0  0  0  0  0  0  0  0
    4.5790   -3.7669   -0.0500 C   0  0  0  0  0  0  0  0  0  0  0  0
    5.0449   -3.3663    1.0175 O   0  0  0  0  0  0  0  0  0  0  0  0
    4.3192   -2.8365   -1.1962 C   0  0  0  0  0  0  0  0  0  0  0  0
    4.2140   -3.2206   -2.4803 N   0  0  0  0  0  0  0  0  0  0  0  0
    4.0381   -2.0646   -3.2085 N   0  0  0  0  0  0  0  0  0  0  0  0
    4.0435   -1.0912   -2.2976 C   0  0  0  0  0  0  0  0  0  0  0  0
    4.2383   -1.4918   -1.0304 N   0  0  0  0  0  0  0  0  0  0  0  0
    4.3224   -0.6576    0.1599 C   0  0  0  0  0  0  0  0  0  0  0  0
    6.0620   -6.3191    0.8919 C   0  0  0  0  0  0  0  0  0  0  0  0
    6.5369   -7.1426    1.8475 C   0  0  0  0  0  0  0  0  0  0  0  0
    5.5872   -7.9710    2.6936 C   0  0  1  0  0  0  0  0  0  0  0  0
    5.4489   -9.2598    2.1345 O   0  0  0  0  0  0  0  0  0  0  0  0
    5.6571   -7.8747    4.2366 C   0  0  2  0  0  0  0  0  0  0  0  0
    4.6851   -8.8005    5.0533 C   0  0  0  0  0  0  0  0  0  0  0  0
    4.9722   -6.5943    4.1260 O   0  0  0  0  0  0  0  0  0  0  0  0
    4.3235   -7.1414    2.9498 C   0  0  2  0  0  0  0  0  0  0  0  0
   -2.1749   -8.3421    1.6933 H   0  0  0  0  0  0  0  0  0  0  0  0
   -1.7908   -8.4896    3.3980 H   0  0  0  0  0  0  0  0  0  0  0  0
   -1.2995   -9.7540    2.2458 H   0  0  0  0  0  0  0  0  0  0  0  0
    0.0184   -9.8023    4.2199 H   0  0  0  0  0  0  0  0  0  0  0  0
    2.0584  -10.2400    5.5458 H   0  0  0  0  0  0  0  0  0  0  0  0
    3.6920   -5.1662    2.3379 H   0  0  0  0  0  0  0  0  0  0  0  0
    4.2954   -7.0805    0.0392 H   0  0  0  0  0  0  0  0  0  0  0  0
    3.8285   -5.2650   -1.1787 H   0  0  0  0  0  0  0  0  0  0  0  0
    3.9188   -0.0518   -2.5667 H   0  0  0  0  0  0  0  0  0  0  0  0
    4.2155    0.3894   -0.1036 H   0  0  0  0  0  0  0  0  0  0  0  0
    5.2877   -0.7849    0.6522 H   0  0  0  0  0  0  0  0  0  0  0  0
    3.5214   -0.9115    0.8514 H   0  0  0  0  0  0  0  0  0  0  0  0
    6.7385   -5.7388    0.2844 H   0  0  0  0  0  0  0  0  0  0  0  0
    7.5970   -7.2226    2.0414 H   0  0  0  0  0  0  0  0  0  0  0  0
    4.5858   -9.5663    2.3750 H   0  0  0  0  0  0  0  0  0  0  0  0
    6.6753   -7.7880    4.6261 H   0  0  0  0  0  0  0  0  0  0  0  0
    4.6366   -8.4885    6.1001 H   0  0  0  0  0  0  0  0  0  0  0  0
    5.0568   -9.8252    5.0457 H   0  0  0  0  0  0  0  0  0  0  0  0
  1  2  1  0
  1 29  1  0
  1 30  1  0
  1 31  1  0
  2  3  1  0
  3  8  2  0
  3  4  1  0
  4  5  2  0
  4 32  1  0
  5  6  1  0
  5 33  1  0
  6 26  1  0
  6  7  2  0
  7 28  1  0
  7  8  1  0
  8  9  1  0
  9 10  1  0
 10 28  1  0
 10 11  1  0
 10 34  1  1
 11 12  1  0
 11 21  1  0
 11 35  1  6
 12 13  1  0
 12 36  1  0
 13 14  2  0
 13 15  1  0
 15 19  1  0
 15 16  2  0
 16 17  1  0
 17 18  2  0
 18 19  1  0
 18 37  1  0
 19 20  1  0
 20 38  1  0
 20 39  1  0
 20 40  1  0
 21 22  2  0
 21 41  1  0
 22 23  1  0
 22 42  1  0
 23 28  1  0
 23 24  1  1
 23 25  1  0
 24 43  1  0
 25 26  1  0
 25 27  1  0
 25 44  1  1
 26 45  1  0
 26 46  1  0
 28 27  1  1
M  END
>  <i_m_ct_stereo_status>  (134) 
1

>  <s_m_source_file>  (134) 
/var/tmp/pbs.5076255.sched01/tmppnbbzaq8/41bb87crku.sdf

>  <i_m_source_file_index>  (134) 
12

>  <i_lp_mmshare_version>  (134) 
48012

>  <i_f3d_flags>  (134) 
0

>  <s_epik_input>  (134) 
W0NAQF0xMjNjNGM1W2NIXVtjSF1jKE9bQ0gzXSljNE9bQ0BASF0xW0NASF0oW0NIXT1bQ0hdW0NAQF0yKFtPSF0pW0NAQEhdKE8zKVtDSDJdNSlbTkhdQyg9TyljNm5uW2NIXW42W0NIM10=

>  <s_epik_cmdline>  (134) 
J2VwaWtfcHl0aG9uJywgJy1waHQnLCAnMi4wJywgJy1waCcsICc3LjAnLCAnLXRuJywgJzgnLCAnLW1hJywgJzIwMCcsICctaW1hZScsICc8aW5maWxlLm1hZT4nLCAnLW9tYWUnLCAnPG91dGZpbGUubWFlPic=

>  <r_lp_tautomer_probability>  (134) 
1

>  <r_epik_Ionization_Penalty>  (134) 
1.35302e-05

>  <r_epik_Ionization_Penalty_Charging>  (134) 
0

>  <r_epik_Ionization_Penalty_Neutral>  (134) 
1.35302e-05

>  <r_epik_State_Penalty>  (134) 
-0

>  <r_epik_Charging_Adjusted_Penalty>  (134) 
0

>  <i_epik_Tot_Q>  (134) 
0

>  <i_epik_Tot_abs_Q>  (134) 
0

>  <s_lp_Force_Field>  (134) 
OPLS3e

>  <r_lp_Energy>  (134) 
69.1178

>  <b_lp_Chiralities_Consistent>  (134) 
1

>  <s_lp_Variant>  (134) 
39:0-1

>  <s_i_glide_gridfile>  (134) 
pfpi4k_grid

>  <i_i_glide_lignum>  (134) 
12

>  <i_i_glide_rotatable_bonds>  (134) 
5

>  <r_i_docking_score>  (134) 
-3.51883

>  <r_i_glide_ligand_efficiency>  (134) 
-0.125672

>  <r_i_glide_ligand_efficiency_sa>  (134) 
-0.381615

>  <r_i_glide_ligand_efficiency_ln>  (134) 
-0.812248

>  <r_i_glide_gscore>  (134) 
-3.51883

>  <r_i_glide_lipo>  (134) 
-0.455338

>  <r_i_glide_hbond>  (134) 
-0.32

>  <r_i_glide_metal>  (134) 
-0

>  <r_i_glide_rewards>  (134) 
-0.839144

>  <r_i_glide_evdw>  (134) 
-29.3065

>  <r_i_glide_ecoul>  (134) 
-4.72295

>  <r_i_glide_erotb>  (134) 
0.398495

>  <r_i_glide_esite>  (134) 
-0.12907

>  <r_i_glide_emodel>  (134) 
-42.1294

>  <r_i_glide_energy>  (134) 
-34.0295

>  <r_i_glide_einternal>  (134) 
1.47571

>  <r_i_glide_intrahb_reward>  (134) 
-0

>  <i_i_glide_confnum>  (134) 
2

>  <i_i_glide_posenum>  (134) 
21

>  <r_i_glide_eff_state_penalty>  (134) 
0

>  <ligand_id>  (134) 
39

>  <original_smiles>  (134) 
COc1ccc2c3c1OC1C(NC(=O)c4nncn4C)C=CC4(O)C(C2)OC314

>  <smiles>  (134) 
[H]OC12C([H])=C([H])C([H])(N([H])C(=O)c3nnc([H])n3C([H])([H])[H])C3([H])Oc4c(OC([H])([H])[H])c([H])c([H])c5c4C31OC2([H])C5([H])[H]

$$$$
39:0:1
     RDKit          3D

 46 51  0  0  1  0  0  0  0  0999 V2000
   -2.1569   -8.2791    2.7949 C   0  0  0  0  0  0  0  0  0  0  0  0
   -0.8510   -7.7253    2.7320 O   0  0  0  0  0  0  0  0  0  0  0  0
    0.2233   -8.5773    2.8828 C   0  0  0  0  0  0  0  0  0  0  0  0
    0.1163   -9.9870    3.1425 C   0  0  0  0  0  0  0  0  0  0  0  0
    1.2553  -10.8349    3.2863 C   0  0  0  0  0  0  0  0  0  0  0  0
    2.5367  -10.2658    3.1666 C   0  0  0  0  0  0  0  0  0  0  0  0
    2.5411   -8.8992    2.9021 C   0  0  0  0  0  0  0  0  0  0  0  0
    1.5126   -8.0116    2.7651 C   0  0  0  0  0  0  0  0  0  0  0  0
    1.9248   -6.7212    2.5358 O   0  0  0  0  0  0  0  0  0  0  0  0
    3.3723   -6.7132    2.6062 C   0  0  2  0  0  0  0  0  0  0  0  0
    3.9932   -6.0228    1.3704 C   0  0  1  0  0  0  0  0  0  0  0  0
    3.8806   -4.5626    1.4228 N   0  0  0  0  0  0  0  0  0  0  0  0
    4.5651   -3.7397    2.2361 C   0  0  0  0  0  0  0  0  0  0  0  0
    5.3158   -4.1302    3.1283 O   0  0  0  0  0  0  0  0  0  0  0  0
    4.4957   -2.2909    1.8932 C   0  0  0  0  0  0  0  0  0  0  0  0
    5.5723   -1.4989    1.7870 N   0  0  0  0  0  0  0  0  0  0  0  0
    5.0930   -0.2604    1.4297 N   0  0  0  0  0  0  0  0  0  0  0  0
    3.7731   -0.4146    1.3836 C   0  0  0  0  0  0  0  0  0  0  0  0
    3.3314   -1.6480    1.6572 N   0  0  0  0  0  0  0  0  0  0  0  0
    1.9536   -2.1071    1.6872 C   0  0  0  0  0  0  0  0  0  0  0  0
    5.4242   -6.5036    1.1271 C   0  0  0  0  0  0  0  0  0  0  0  0
    5.7897   -7.7921    1.2825 C   0  0  0  0  0  0  0  0  0  0  0  0
    4.7674   -8.8386    1.6940 C   0  0  1  0  0  0  0  0  0  0  0  0
    4.2137   -9.4491    0.5463 O   0  0  0  0  0  0  0  0  0  0  0  0
    5.0452   -9.7353    2.9187 C   0  0  2  0  0  0  0  0  0  0  0  0
    3.9710  -10.8279    3.2589 C   0  0  0  0  0  0  0  0  0  0  0  0
    4.7106   -8.5900    3.7611 O   0  0  0  0  0  0  0  0  0  0  0  0
    3.8063   -8.1952    2.6973 C   0  0  2  0  0  0  0  0  0  0  0  0
   -2.8697   -7.4684    2.6596 H   0  0  0  0  0  0  0  0  0  0  0  0
   -2.3644   -8.7373    3.7625 H   0  0  0  0  0  0  0  0  0  0  0  0
   -2.3314   -9.0104    2.0044 H   0  0  0  0  0  0  0  0  0  0  0  0
   -0.8496  -10.4437    3.2463 H   0  0  0  0  0  0  0  0  0  0  0  0
    1.1486  -11.8993    3.4779 H   0  0  0  0  0  0  0  0  0  0  0  0
    3.6451   -6.1914    3.5236 H   0  0  0  0  0  0  0  0  0  0  0  0
    3.4327   -6.3324    0.4881 H   0  0  0  0  0  0  0  0  0  0  0  0
    3.2802   -4.1298    0.7311 H   0  0  0  0  0  0  0  0  0  0  0  0
    3.1077    0.3989    1.1587 H   0  0  0  0  0  0  0  0  0  0  0  0
    1.2874   -1.2708    1.4853 H   0  0  0  0  0  0  0  0  0  0  0  0
    1.7228   -2.5227    2.6663 H   0  0  0  0  0  0  0  0  0  0  0  0
    1.8170   -2.8649    0.9186 H   0  0  0  0  0  0  0  0  0  0  0  0
    6.1452   -5.7615    0.8187 H   0  0  0  0  0  0  0  0  0  0  0  0
    6.8135   -8.1042    1.1233 H   0  0  0  0  0  0  0  0  0  0  0  0
    4.2173  -10.4068    0.6718 H   0  0  0  0  0  0  0  0  0  0  0  0
    6.0885  -10.0418    3.0033 H   0  0  0  0  0  0  0  0  0  0  0  0
    4.1323  -11.2378    4.2569 H   0  0  0  0  0  0  0  0  0  0  0  0
    4.0562  -11.6518    2.5564 H   0  0  0  0  0  0  0  0  0  0  0  0
  1  2  1  0
  1 29  1  0
  1 30  1  0
  1 31  1  0
  2  3  1  0
  3  8  2  0
  3  4  1  0
  4  5  2  0
  4 32  1  0
  5  6  1  0
  5 33  1  0
  6 26  1  0
  6  7  2  0
  7 28  1  0
  7  8  1  0
  8  9  1  0
  9 10  1  0
 10 28  1  0
 10 11  1  0
 10 34  1  1
 11 12  1  0
 11 21  1  0
 11 35  1  6
 12 13  1  0
 12 36  1  0
 13 14  2  0
 13 15  1  0
 15 19  1  0
 15 16  2  0
 16 17  1  0
 17 18  2  0
 18 19  1  0
 18 37  1  0
 19 20  1  0
 20 38  1  0
 20 39  1  0
 20 40  1  0
 21 22  2  0
 21 41  1  0
 22 23  1  0
 22 42  1  0
 23 28  1  0
 23 24  1  6
 23 25  1  0
 24 43  1  0
 25 26  1  0
 25 27  1  0
 25 44  1  6
 26 45  1  0
 26 46  1  0
 28 27  1  1
M  END
>  <i_m_ct_stereo_status>  (135) 
1

>  <s_m_source_file>  (135) 
/var/tmp/pbs.5076255.sched01/tmppnbbzaq8/41bb87crku.sdf

>  <i_m_source_file_index>  (135) 
12

>  <i_lp_mmshare_version>  (135) 
48012

>  <i_f3d_flags>  (135) 
0

>  <s_epik_input>  (135) 
W0NAQF0xMjNjNGM1W2NIXVtjSF1jKE9bQ0gzXSljNE9bQ0BASF0xW0NASF0oW0NIXT1bQ0hdW0NAQF0yKFtPSF0pW0NAQEhdKE8zKVtDSDJdNSlbTkhdQyg9TyljNm5uW2NIXW42W0NIM10=

>  <s_epik_cmdline>  (135) 
J2VwaWtfcHl0aG9uJywgJy1waHQnLCAnMi4wJywgJy1waCcsICc3LjAnLCAnLXRuJywgJzgnLCAnLW1hJywgJzIwMCcsICctaW1hZScsICc8aW5maWxlLm1hZT4nLCAnLW9tYWUnLCAnPG91dGZpbGUubWFlPic=

>  <r_lp_tautomer_probability>  (135) 
1

>  <r_epik_Ionization_Penalty>  (135) 
1.35302e-05

>  <r_epik_Ionization_Penalty_Charging>  (135) 
0

>  <r_epik_Ionization_Penalty_Neutral>  (135) 
1.35302e-05

>  <r_epik_State_Penalty>  (135) 
-0

>  <r_epik_Charging_Adjusted_Penalty>  (135) 
0

>  <i_epik_Tot_Q>  (135) 
0

>  <i_epik_Tot_abs_Q>  (135) 
0

>  <s_lp_Force_Field>  (135) 
OPLS3e

>  <r_lp_Energy>  (135) 
69.1178

>  <b_lp_Chiralities_Consistent>  (135) 
1

>  <s_lp_Variant>  (135) 
39:0-1

>  <s_i_glide_gridfile>  (135) 
pfpi4k_grid

>  <i_i_glide_lignum>  (135) 
12

>  <i_i_glide_rotatable_bonds>  (135) 
5

>  <r_i_docking_score>  (135) 
-3.35603

>  <r_i_glide_ligand_efficiency>  (135) 
-0.119858

>  <r_i_glide_ligand_efficiency_sa>  (135) 
-0.36396

>  <r_i_glide_ligand_efficiency_ln>  (135) 
-0.774671

>  <r_i_glide_gscore>  (135) 
-3.35603

>  <r_i_glide_lipo>  (135) 
-0.420718

>  <r_i_glide_hbond>  (135) 
0

>  <r_i_glide_metal>  (135) 
-0

>  <r_i_glide_rewards>  (135) 
-0.889657

>  <r_i_glide_evdw>  (135) 
-26.4851

>  <r_i_glide_ecoul>  (135) 
-7.34501

>  <r_i_glide_erotb>  (135) 
0.398495

>  <r_i_glide_esite>  (135) 
-0.0181479

>  <r_i_glide_emodel>  (135) 
-40.2848

>  <r_i_glide_energy>  (135) 
-33.8301

>  <r_i_glide_einternal>  (135) 
3.78484

>  <r_i_glide_intrahb_reward>  (135) 
-0

>  <i_i_glide_confnum>  (135) 
5

>  <i_i_glide_posenum>  (135) 
4

>  <r_i_glide_eff_state_penalty>  (135) 
0

>  <ligand_id>  (135) 
39

>  <original_smiles>  (135) 
COc1ccc2c3c1OC1C(NC(=O)c4nncn4C)C=CC4(O)C(C2)OC314

>  <smiles>  (135) 
[H]OC12C([H])=C([H])C([H])(N([H])C(=O)c3nnc([H])n3C([H])([H])[H])C3([H])Oc4c(OC([H])([H])[H])c([H])c([H])c5c4C31OC2([H])C5([H])[H]

$$$$
39:0:2
     RDKit          3D

 46 51  0  0  1  0  0  0  0  0999 V2000
   -1.8117   -8.0148    2.6922 C   0  0  0  0  0  0  0  0  0  0  0  0
   -0.5424   -7.4245    2.4688 O   0  0  0  0  0  0  0  0  0  0  0  0
    0.5441   -7.9794    3.1117 C   0  0  0  0  0  0  0  0  0  0  0  0
    0.4705   -9.0652    4.0487 C   0  0  0  0  0  0  0  0  0  0  0  0
    1.6267   -9.5930    4.6998 C   0  0  0  0  0  0  0  0  0  0  0  0
    2.8855   -9.0392    4.3994 C   0  0  0  0  0  0  0  0  0  0  0  0
    2.8609   -8.0099    3.4655 C   0  0  0  0  0  0  0  0  0  0  0  0
    1.8088   -7.4276    2.8118 C   0  0  0  0  0  0  0  0  0  0  0  0
    2.1891   -6.3971    1.9869 O   0  0  0  0  0  0  0  0  0  0  0  0
    3.6185   -6.2018    2.1523 C   0  0  2  0  0  0  0  0  0  0  0  0
    4.3582   -6.1854    0.7970 C   0  0  1  0  0  0  0  0  0  0  0  0
    4.1790   -4.9258    0.0797 N   0  0  0  0  0  0  0  0  0  0  0  0
    4.7393   -3.7436    0.3847 C   0  0  0  0  0  0  0  0  0  0  0  0
    5.4252   -3.5433    1.3922 O   0  0  0  0  0  0  0  0  0  0  0  0
    4.5918   -2.6749   -0.6510 C   0  0  0  0  0  0  0  0  0  0  0  0
    5.5480   -1.7758   -0.9218 N   0  0  0  0  0  0  0  0  0  0  0  0
    5.0397   -0.9841   -1.9227 N   0  0  0  0  0  0  0  0  0  0  0  0
    3.8160   -1.4565   -2.1500 C   0  0  0  0  0  0  0  0  0  0  0  0
    3.4755   -2.5118   -1.4031 N   0  0  0  0  0  0  0  0  0  0  0  0
    2.2099   -3.2138   -1.4172 C   0  0  0  0  0  0  0  0  0  0  0  0
    5.8302   -6.5700    0.9525 C   0  0  0  0  0  0  0  0  0  0  0  0
    6.2329   -7.5591    1.7724 C   0  0  0  0  0  0  0  0  0  0  0  0
    5.2116   -8.3358    2.5799 C   0  0  1  0  0  0  0  0  0  0  0  0
    4.8572   -9.5065    1.8788 O   0  0  0  0  0  0  0  0  0  0  0  0
    5.3842   -8.4503    4.1127 C   0  0  2  0  0  0  0  0  0  0  0  0
    4.3279   -9.3205    4.8872 C   0  0  0  0  0  0  0  0  0  0  0  0
    4.8958   -7.0802    4.2095 O   0  0  0  0  0  0  0  0  0  0  0  0
    4.1055   -7.3728    3.0266 C   0  0  2  0  0  0  0  0  0  0  0  0
   -2.5540   -7.4823    2.1081 H   0  0  0  0  0  0  0  0  0  0  0  0
   -2.1135   -7.9342    3.7350 H   0  0  0  0  0  0  0  0  0  0  0  0
   -1.8438   -9.0579    2.3780 H   0  0  0  0  0  0  0  0  0  0  0  0
   -0.4746   -9.5161    4.2913 H   0  0  0  0  0  0  0  0  0  0  0  0
    1.5420  -10.4123    5.4033 H   0  0  0  0  0  0  0  0  0  0  0  0
    3.7624   -5.2628    2.6883 H   0  0  0  0  0  0  0  0  0  0  0  0
    3.9231   -6.9539    0.1583 H   0  0  0  0  0  0  0  0  0  0  0  0
    3.6335   -4.9801   -0.7735 H   0  0  0  0  0  0  0  0  0  0  0  0
    3.1462   -1.0169   -2.8732 H   0  0  0  0  0  0  0  0  0  0  0  0
    1.5315   -2.7620   -2.1366 H   0  0  0  0  0  0  0  0  0  0  0  0
    1.7799   -3.1834   -0.4211 H   0  0  0  0  0  0  0  0  0  0  0  0
    2.3459   -4.2524   -1.7118 H   0  0  0  0  0  0  0  0  0  0  0  0
    6.5491   -6.0231    0.3628 H   0  0  0  0  0  0  0  0  0  0  0  0
    7.2792   -7.8195    1.8737 H   0  0  0  0  0  0  0  0  0  0  0  0
    4.2197   -9.9635    2.4083 H   0  0  0  0  0  0  0  0  0  0  0  0
    6.4244   -8.5606    4.4278 H   0  0  0  0  0  0  0  0  0  0  0  0
    4.3879   -9.1371    5.9630 H   0  0  0  0  0  0  0  0  0  0  0  0
    4.5384  -10.3781    4.7321 H   0  0  0  0  0  0  0  0  0  0  0  0
  1  2  1  0
  1 29  1  0
  1 30  1  0
  1 31  1  0
  2  3  1  0
  3  8  2  0
  3  4  1  0
  4  5  2  0
  4 32  1  0
  5  6  1  0
  5 33  1  0
  6 26  1  0
  6  7  2  0
  7 28  1  0
  7  8  1  0
  8  9  1  0
  9 10  1  0
 10 28  1  0
 10 11  1  0
 10 34  1  1
 11 12  1  0
 11 21  1  0
 11 35  1  6
 12 13  1  0
 12 36  1  0
 13 14  2  0
 13 15  1  0
 15 19  1  0
 15 16  2  0
 16 17  1  0
 17 18  2  0
 18 19  1  0
 18 37  1  0
 19 20  1  0
 20 38  1  0
 20 39  1  0
 20 40  1  0
 21 22  2  0
 21 41  1  0
 22 23  1  0
 22 42  1  0
 23 28  1  0
 23 24  1  6
 23 25  1  0
 24 43  1  0
 25 26  1  0
 25 27  1  0
 25 44  1  6
 26 45  1  0
 26 46  1  0
 28 27  1  1
M  END
>  <i_m_ct_stereo_status>  (136) 
1

>  <s_m_source_file>  (136) 
/var/tmp/pbs.5076255.sched01/tmppnbbzaq8/41bb87crku.sdf

>  <i_m_source_file_index>  (136) 
12

>  <i_lp_mmshare_version>  (136) 
48012

>  <i_f3d_flags>  (136) 
0

>  <s_epik_input>  (136) 
W0NAQF0xMjNjNGM1W2NIXVtjSF1jKE9bQ0gzXSljNE9bQ0BASF0xW0NASF0oW0NIXT1bQ0hdW0NAQF0yKFtPSF0pW0NAQEhdKE8zKVtDSDJdNSlbTkhdQyg9TyljNm5uW2NIXW42W0NIM10=

>  <s_epik_cmdline>  (136) 
J2VwaWtfcHl0aG9uJywgJy1waHQnLCAnMi4wJywgJy1waCcsICc3LjAnLCAnLXRuJywgJzgnLCAnLW1hJywgJzIwMCcsICctaW1hZScsICc8aW5maWxlLm1hZT4nLCAnLW9tYWUnLCAnPG91dGZpbGUubWFlPic=

>  <r_lp_tautomer_probability>  (136) 
1

>  <r_epik_Ionization_Penalty>  (136) 
1.35302e-05

>  <r_epik_Ionization_Penalty_Charging>  (136) 
0

>  <r_epik_Ionization_Penalty_Neutral>  (136) 
1.35302e-05

>  <r_epik_State_Penalty>  (136) 
-0

>  <r_epik_Charging_Adjusted_Penalty>  (136) 
0

>  <i_epik_Tot_Q>  (136) 
0

>  <i_epik_Tot_abs_Q>  (136) 
0

>  <s_lp_Force_Field>  (136) 
OPLS3e

>  <r_lp_Energy>  (136) 
69.1178

>  <b_lp_Chiralities_Consistent>  (136) 
1

>  <s_lp_Variant>  (136) 
39:0-1

>  <s_i_glide_gridfile>  (136) 
pfpi4k_grid

>  <i_i_glide_lignum>  (136) 
12

>  <i_i_glide_rotatable_bonds>  (136) 
5

>  <r_i_docking_score>  (136) 
-3.32953

>  <r_i_glide_ligand_efficiency>  (136) 
-0.118912

>  <r_i_glide_ligand_efficiency_sa>  (136) 
-0.361086

>  <r_i_glide_ligand_efficiency_ln>  (136) 
-0.768553

>  <r_i_glide_gscore>  (136) 
-3.32953

>  <r_i_glide_lipo>  (136) 
-0.30575

>  <r_i_glide_hbond>  (136) 
-0.14903

>  <r_i_glide_metal>  (136) 
-0

>  <r_i_glide_rewards>  (136) 
-0.849134

>  <r_i_glide_evdw>  (136) 
-27.4668

>  <r_i_glide_ecoul>  (136) 
-5.65294

>  <r_i_glide_erotb>  (136) 
0.398495

>  <r_i_glide_esite>  (136) 
-0.202829

>  <r_i_glide_emodel>  (136) 
-40.2278

>  <r_i_glide_energy>  (136) 
-33.1198

>  <r_i_glide_einternal>  (136) 
2.48688

>  <r_i_glide_intrahb_reward>  (136) 
-0

>  <i_i_glide_confnum>  (136) 
2

>  <i_i_glide_posenum>  (136) 
35

>  <r_i_glide_eff_state_penalty>  (136) 
0

>  <ligand_id>  (136) 
39

>  <original_smiles>  (136) 
COc1ccc2c3c1OC1C(NC(=O)c4nncn4C)C=CC4(O)C(C2)OC314

>  <smiles>  (136) 
[H]OC12C([H])=C([H])C([H])(N([H])C(=O)c3nnc([H])n3C([H])([H])[H])C3([H])Oc4c(OC([H])([H])[H])c([H])c([H])c5c4C31OC2([H])C5([H])[H]

$$$$
41:0:0
     RDKit          3D

 39 42  0  0  1  0  0  0  0  0999 V2000
    5.1068   -1.5589    3.2134 O   0  0  0  0  0  0  0  0  0  0  0  0
    4.4924   -1.0171    2.2892 C   0  0  0  0  0  0  0  0  0  0  0  0
    4.8680   -1.4054    0.8822 C   0  0  0  0  0  0  0  0  0  0  0  0
    3.9263   -1.7337   -0.1216 C   0  0  0  0  0  0  0  0  0  0  0  0
    4.4251   -2.0062   -1.4054 C   0  0  0  0  0  0  0  0  0  0  0  0
    5.7550   -2.0425   -1.6974 N   0  0  0  0  0  0  0  0  0  0  0  0
    6.6530   -1.8573   -0.7195 N   0  0  0  0  0  0  0  0  0  0  0  0
    6.2418   -1.4979    0.5196 C   0  0  0  0  0  0  0  0  0  0  0  0
    3.5813   -0.0114    2.4837 N   0  0  0  0  0  0  0  0  0  0  0  0
    3.2156    0.4872    3.8195 C   0  0  0  0  0  0  0  0  0  0  0  0
    1.7477    0.0755    3.9057 C   0  0  1  0  0  0  0  0  0  0  0  0
    0.8203    1.0913    4.5460 C   0  0  0  0  0  0  0  0  0  0  0  0
   -0.3892    1.0083    3.7234 N   0  0  0  0  0  0  0  0  0  0  0  0
   -1.2837    2.1498    3.9110 C   0  0  0  0  0  0  0  0  0  0  0  0
   -1.7753    2.2933    5.3169 C   0  0  0  0  0  0  0  0  0  0  0  0
   -2.1944    3.4559    5.8159 N   0  0  0  0  0  0  0  0  0  0  0  0
   -2.5803    3.3674    7.1474 C   0  0  0  0  0  0  0  0  0  0  0  0
   -2.4285    2.1082    7.6709 C   0  0  0  0  0  0  0  0  0  0  0  0
   -1.8526    0.9845    6.4817 S   0  0  0  0  0  0  0  0  0  0  0  0
    0.0884    0.9477    2.3488 C   0  0  0  0  0  0  0  0  0  0  0  0
    1.2754    0.0038    2.4575 C   0  0  1  0  0  0  0  0  0  0  0  0
    2.4816    0.4096    1.5938 C   0  0  0  0  0  0  0  0  0  0  0  0
    2.8640   -1.7755    0.0763 H   0  0  0  0  0  0  0  0  0  0  0  0
    3.7244   -2.1823   -2.2113 H   0  0  0  0  0  0  0  0  0  0  0  0
    7.0341   -1.3318    1.2438 H   0  0  0  0  0  0  0  0  0  0  0  0
    3.8181    0.1071    4.6452 H   0  0  0  0  0  0  0  0  0  0  0  0
    3.3251    1.5783    3.8232 H   0  0  0  0  0  0  0  0  0  0  0  0
    1.6534   -0.9070    4.3803 H   0  0  0  0  0  0  0  0  0  0  0  0
    0.6499    0.8143    5.5856 H   0  0  0  0  0  0  0  0  0  0  0  0
    1.2461    2.0968    4.5121 H   0  0  0  0  0  0  0  0  0  0  0  0
   -0.7901    3.0737    3.6006 H   0  0  0  0  0  0  0  0  0  0  0  0
   -2.1475    2.0279    3.2535 H   0  0  0  0  0  0  0  0  0  0  0  0
   -2.9415    4.2356    7.6720 H   0  0  0  0  0  0  0  0  0  0  0  0
   -2.6308    1.7781    8.6816 H   0  0  0  0  0  0  0  0  0  0  0  0
   -0.6772    0.5913    1.6492 H   0  0  0  0  0  0  0  0  0  0  0  0
    0.4397    1.9287    2.0159 H   0  0  0  0  0  0  0  0  0  0  0  0
    0.9706   -1.0217    2.2469 H   0  0  0  0  0  0  0  0  0  0  0  0
    2.5331    1.5175    1.5022 H   0  0  0  0  0  0  0  0  0  0  0  0
    2.4007   -0.0229    0.6251 H   0  0  0  0  0  0  0  0  0  0  0  0
  1  2  2  0
  2  3  1  0
  2  9  1  0
  3  8  1  0
  3  4  2  0
  4  5  1  0
  4 23  1  0
  5  6  2  0
  5 24  1  0
  6  7  1  0
  7  8  2  0
  8 25  1  0
  9 22  1  0
  9 10  1  0
 10 11  1  0
 10 26  1  0
 10 27  1  0
 11 21  1  0
 11 12  1  0
 11 28  1  1
 12 13  1  0
 12 29  1  0
 12 30  1  0
 13 14  1  0
 13 20  1  0
 14 15  1  0
 14 31  1  0
 14 32  1  0
 15 19  1  0
 15 16  2  0
 16 17  1  0
 17 18  2  0
 17 33  1  0
 18 19  1  0
 18 34  1  0
 20 21  1  0
 20 35  1  0
 20 36  1  0
 21 22  1  0
 21 37  1  6
 22 38  1  0
 22 39  1  0
M  END
>  <i_m_ct_stereo_status>  (137) 
1

>  <s_m_source_file>  (137) 
/var/tmp/pbs.5076255.sched01/tmppnbbzaq8/41bb87crku.sdf

>  <i_m_source_file_index>  (137) 
14

>  <i_lp_mmshare_version>  (137) 
48012

>  <i_f3d_flags>  (137) 
0

>  <s_epik_input>  (137) 
W2NIXTFubltjSF1bY0hdYzFDKD1PKU4oW0NIMl0yKVtDSDJdW0NAQEhdKFtDQEBIXTIzKVtDSDJdTihbQ0gyXTMpW0NIMl1jNG5bY0hdW2NIXXM0

>  <s_epik_cmdline>  (137) 
J2VwaWtfcHl0aG9uJywgJy1waHQnLCAnMi4wJywgJy1waCcsICc3LjAnLCAnLXRuJywgJzgnLCAnLW1hJywgJzIwMCcsICctaW1hZScsICc8aW5maWxlLm1hZT4nLCAnLW9tYWUnLCAnPG91dGZpbGUubWFlPic=

>  <r_lp_tautomer_probability>  (137) 
1

>  <r_epik_Ionization_Penalty>  (137) 
0.33005

>  <r_epik_Ionization_Penalty_Charging>  (137) 
0

>  <r_epik_Ionization_Penalty_Neutral>  (137) 
0.33005

>  <r_epik_State_Penalty>  (137) 
0.325044

>  <r_epik_Charging_Adjusted_Penalty>  (137) 
0.325044

>  <i_epik_Tot_Q>  (137) 
0

>  <i_epik_Tot_abs_Q>  (137) 
0

>  <s_lp_Force_Field>  (137) 
OPLS3e

>  <r_lp_Energy>  (137) 
22.5652

>  <b_lp_Chiralities_Consistent>  (137) 
1

>  <s_lp_Variant>  (137) 
41:0-1

>  <s_i_glide_gridfile>  (137) 
pfpi4k_grid

>  <i_i_glide_lignum>  (137) 
14

>  <i_i_glide_rotatable_bonds>  (137) 
4

>  <r_i_docking_score>  (137) 
-3.18165

>  <r_i_glide_ligand_efficiency>  (137) 
-0.144621

>  <r_i_glide_ligand_efficiency_sa>  (137) 
-0.405233

>  <r_i_glide_ligand_efficiency_ln>  (137) 
-0.777712

>  <r_i_glide_gscore>  (137) 
-3.18165

>  <r_i_glide_lipo>  (137) 
-0.255194

>  <r_i_glide_hbond>  (137) 
0

>  <r_i_glide_metal>  (137) 
-0

>  <r_i_glide_rewards>  (137) 
-1.36355

>  <r_i_glide_evdw>  (137) 
-28.457

>  <r_i_glide_ecoul>  (137) 
-5.09948

>  <r_i_glide_erotb>  (137) 
0.748017

>  <r_i_glide_esite>  (137) 
-0.123156

>  <r_i_glide_emodel>  (137) 
-38.0277

>  <r_i_glide_energy>  (137) 
-33.5565

>  <r_i_glide_einternal>  (137) 
3.70712

>  <r_i_glide_intrahb_reward>  (137) 
-0

>  <i_i_glide_confnum>  (137) 
4

>  <i_i_glide_posenum>  (137) 
11

>  <r_i_glide_eff_state_penalty>  (137) 
0

>  <ligand_id>  (137) 
41

>  <original_smiles>  (137) 
O=C(c1ccnnc1)N1CC2CN(Cc3nccs3)CC2C1

>  <smiles>  (137) 
[H]c1nc(C([H])([H])N2C([H])([H])C3([H])C([H])([H])N(C(=O)c4c([H])nnc([H])c4[H])C([H])([H])C3([H])C2([H])[H])sc1[H]

$$$$
41:0:1
     RDKit          3D

 39 42  0  0  1  0  0  0  0  0999 V2000
    6.0240   -2.5811   -0.0398 O   0  0  0  0  0  0  0  0  0  0  0  0
    5.1047   -3.1062   -0.6663 C   0  0  0  0  0  0  0  0  0  0  0  0
    4.5798   -2.4356   -1.8905 C   0  0  0  0  0  0  0  0  0  0  0  0
    4.2050   -1.0789   -1.8851 C   0  0  0  0  0  0  0  0  0  0  0  0
    3.8125   -0.5060   -3.1139 C   0  0  0  0  0  0  0  0  0  0  0  0
    3.8111   -1.2024   -4.2703 N   0  0  0  0  0  0  0  0  0  0  0  0
    4.1633   -2.4883   -4.2746 N   0  0  0  0  0  0  0  0  0  0  0  0
    4.5478   -3.1002   -3.1339 C   0  0  0  0  0  0  0  0  0  0  0  0
    4.5814   -4.3190   -0.3600 N   0  0  0  0  0  0  0  0  0  0  0  0
    3.1502   -4.5081   -0.1253 C   0  0  0  0  0  0  0  0  0  0  0  0
    3.0718   -4.8189    1.3747 C   0  0  1  0  0  0  0  0  0  0  0  0
    2.0923   -5.9113    1.7818 C   0  0  0  0  0  0  0  0  0  0  0  0
    2.7890   -6.6299    2.8430 N   0  0  0  0  0  0  0  0  0  0  0  0
    2.2156   -7.9382    3.1287 C   0  0  0  0  0  0  0  0  0  0  0  0
    0.7478   -7.9272    3.4224 C   0  0  0  0  0  0  0  0  0  0  0  0
   -0.1084   -8.7868    2.8655 N   0  0  0  0  0  0  0  0  0  0  0  0
   -1.4306   -8.5399    3.2407 C   0  0  0  0  0  0  0  0  0  0  0  0
   -1.5666   -7.4491    4.0594 C   0  0  0  0  0  0  0  0  0  0  0  0
   -0.0295   -6.7470    4.4787 S   0  0  0  0  0  0  0  0  0  0  0  0
    4.1655   -6.7402    2.3600 C   0  0  0  0  0  0  0  0  0  0  0  0
    4.4367   -5.3583    1.7611 C   0  0  1  0  0  0  0  0  0  0  0  0
    5.2509   -5.3168    0.4646 C   0  0  0  0  0  0  0  0  0  0  0  0
    4.2210   -0.4953   -0.9730 H   0  0  0  0  0  0  0  0  0  0  0  0
    3.5157    0.5341   -3.1745 H   0  0  0  0  0  0  0  0  0  0  0  0
    4.8883   -4.1171   -3.2480 H   0  0  0  0  0  0  0  0  0  0  0  0
    2.5389   -3.6453   -0.3998 H   0  0  0  0  0  0  0  0  0  0  0  0
    2.7969   -5.3609   -0.7062 H   0  0  0  0  0  0  0  0  0  0  0  0
    2.8841   -3.9053    1.9394 H   0  0  0  0  0  0  0  0  0  0  0  0
    1.1651   -5.4709    2.1407 H   0  0  0  0  0  0  0  0  0  0  0  0
    1.8734   -6.5784    0.9487 H   0  0  0  0  0  0  0  0  0  0  0  0
    2.3748   -8.6144    2.2841 H   0  0  0  0  0  0  0  0  0  0  0  0
    2.7490   -8.3694    3.9795 H   0  0  0  0  0  0  0  0  0  0  0  0
   -2.2146   -9.1838    2.8773 H   0  0  0  0  0  0  0  0  0  0  0  0
   -2.4640   -7.0353    4.4717 H   0  0  0  0  0  0  0  0  0  0  0  0
    4.8670   -6.9988    3.1497 H   0  0  0  0  0  0  0  0  0  0  0  0
    4.2236   -7.4973    1.5815 H   0  0  0  0  0  0  0  0  0  0  0  0
    4.8789   -4.7023    2.5119 H   0  0  0  0  0  0  0  0  0  0  0  0
    5.2055   -6.2738   -0.0648 H   0  0  0  0  0  0  0  0  0  0  0  0
    6.3039   -5.0836    0.6464 H   0  0  0  0  0  0  0  0  0  0  0  0
  1  2  2  0
  2  3  1  0
  2  9  1  0
  3  8  1  0
  3  4  2  0
  4  5  1  0
  4 23  1  0
  5  6  2  0
  5 24  1  0
  6  7  1  0
  7  8  2  0
  8 25  1  0
  9 22  1  0
  9 10  1  0
 10 11  1  0
 10 26  1  0
 10 27  1  0
 11 21  1  0
 11 12  1  0
 11 28  1  1
 12 13  1  0
 12 29  1  0
 12 30  1  0
 13 14  1  0
 13 20  1  0
 14 15  1  0
 14 31  1  0
 14 32  1  0
 15 19  1  0
 15 16  2  0
 16 17  1  0
 17 18  2  0
 17 33  1  0
 18 19  1  0
 18 34  1  0
 20 21  1  0
 20 35  1  0
 20 36  1  0
 21 22  1  0
 21 37  1  1
 22 38  1  0
 22 39  1  0
M  END
>  <i_m_ct_stereo_status>  (138) 
1

>  <s_m_source_file>  (138) 
/var/tmp/pbs.5076255.sched01/tmppnbbzaq8/41bb87crku.sdf

>  <i_m_source_file_index>  (138) 
14

>  <i_lp_mmshare_version>  (138) 
48012

>  <i_f3d_flags>  (138) 
0

>  <s_epik_input>  (138) 
W2NIXTFubltjSF1bY0hdYzFDKD1PKU4oW0NIMl0yKVtDSDJdW0NAQEhdKFtDQEBIXTIzKVtDSDJdTihbQ0gyXTMpW0NIMl1jNG5bY0hdW2NIXXM0

>  <s_epik_cmdline>  (138) 
J2VwaWtfcHl0aG9uJywgJy1waHQnLCAnMi4wJywgJy1waCcsICc3LjAnLCAnLXRuJywgJzgnLCAnLW1hJywgJzIwMCcsICctaW1hZScsICc8aW5maWxlLm1hZT4nLCAnLW9tYWUnLCAnPG91dGZpbGUubWFlPic=

>  <r_lp_tautomer_probability>  (138) 
1

>  <r_epik_Ionization_Penalty>  (138) 
0.33005

>  <r_epik_Ionization_Penalty_Charging>  (138) 
0

>  <r_epik_Ionization_Penalty_Neutral>  (138) 
0.33005

>  <r_epik_State_Penalty>  (138) 
0.325044

>  <r_epik_Charging_Adjusted_Penalty>  (138) 
0.325044

>  <i_epik_Tot_Q>  (138) 
0

>  <i_epik_Tot_abs_Q>  (138) 
0

>  <s_lp_Force_Field>  (138) 
OPLS3e

>  <r_lp_Energy>  (138) 
22.5652

>  <b_lp_Chiralities_Consistent>  (138) 
1

>  <s_lp_Variant>  (138) 
41:0-1

>  <s_i_glide_gridfile>  (138) 
pfpi4k_grid

>  <i_i_glide_lignum>  (138) 
14

>  <i_i_glide_rotatable_bonds>  (138) 
4

>  <r_i_docking_score>  (138) 
-3.1459

>  <r_i_glide_ligand_efficiency>  (138) 
-0.142996

>  <r_i_glide_ligand_efficiency_sa>  (138) 
-0.400679

>  <r_i_glide_ligand_efficiency_ln>  (138) 
-0.768974

>  <r_i_glide_gscore>  (138) 
-3.1459

>  <r_i_glide_lipo>  (138) 
-0.410779

>  <r_i_glide_hbond>  (138) 
0

>  <r_i_glide_metal>  (138) 
-0

>  <r_i_glide_rewards>  (138) 
-1.2987

>  <r_i_glide_evdw>  (138) 
-31.0952

>  <r_i_glide_ecoul>  (138) 
-3.8018

>  <r_i_glide_erotb>  (138) 
0.748017

>  <r_i_glide_esite>  (138) 
-0.0594162

>  <r_i_glide_emodel>  (138) 
-37.0874

>  <r_i_glide_energy>  (138) 
-34.897

>  <r_i_glide_einternal>  (138) 
8.88901

>  <r_i_glide_intrahb_reward>  (138) 
-0

>  <i_i_glide_confnum>  (138) 
5

>  <i_i_glide_posenum>  (138) 
2

>  <r_i_glide_eff_state_penalty>  (138) 
0

>  <ligand_id>  (138) 
41

>  <original_smiles>  (138) 
O=C(c1ccnnc1)N1CC2CN(Cc3nccs3)CC2C1

>  <smiles>  (138) 
[H]c1nc(C([H])([H])N2C([H])([H])C3([H])C([H])([H])N(C(=O)c4c([H])nnc([H])c4[H])C([H])([H])C3([H])C2([H])[H])sc1[H]

$$$$
41:0:2
     RDKit          3D

 39 42  0  0  1  0  0  0  0  0999 V2000
    2.6526   -3.5196    1.6354 O   0  0  0  0  0  0  0  0  0  0  0  0
    3.1630   -2.4442    1.3246 C   0  0  0  0  0  0  0  0  0  0  0  0
    3.9268   -2.3493    0.0362 C   0  0  0  0  0  0  0  0  0  0  0  0
    3.5104   -3.0596   -1.1062 C   0  0  0  0  0  0  0  0  0  0  0  0
    4.2882   -2.9343   -2.2736 C   0  0  0  0  0  0  0  0  0  0  0  0
    5.4091   -2.1775   -2.3169 N   0  0  0  0  0  0  0  0  0  0  0  0
    5.8144   -1.5133   -1.2336 N   0  0  0  0  0  0  0  0  0  0  0  0
    5.1196   -1.6028   -0.0782 C   0  0  0  0  0  0  0  0  0  0  0  0
    3.0656   -1.3288    2.0877 N   0  0  0  0  0  0  0  0  0  0  0  0
    2.3536   -1.2706    3.3596 C   0  0  0  0  0  0  0  0  0  0  0  0
    1.2086   -0.2958    3.0677 C   0  0  1  0  0  0  0  0  0  0  0  0
    0.8452    0.6768    4.1861 C   0  0  0  0  0  0  0  0  0  0  0  0
    0.6019    1.9264    3.4725 N   0  0  0  0  0  0  0  0  0  0  0  0
    0.6141    3.0939    4.3380 C   0  0  0  0  0  0  0  0  0  0  0  0
   -0.4821    3.0851    5.3524 C   0  0  0  0  0  0  0  0  0  0  0  0
   -0.2635    3.1646    6.6699 N   0  0  0  0  0  0  0  0  0  0  0  0
   -1.4494    3.1171    7.4079 C   0  0  0  0  0  0  0  0  0  0  0  0
   -2.5717    2.9985    6.6316 C   0  0  0  0  0  0  0  0  0  0  0  0
   -2.1890    2.9472    4.9358 S   0  0  0  0  0  0  0  0  0  0  0  0
    1.6544    2.0080    2.4668 C   0  0  0  0  0  0  0  0  0  0  0  0
    1.7196    0.5821    1.9369 C   0  0  1  0  0  0  0  0  0  0  0  0
    3.1164    0.0531    1.6123 C   0  0  0  0  0  0  0  0  0  0  0  0
    2.6184   -3.6715   -1.1011 H   0  0  0  0  0  0  0  0  0  0  0  0
    4.0150   -3.4497   -3.1845 H   0  0  0  0  0  0  0  0  0  0  0  0
    5.5243   -1.0416    0.7515 H   0  0  0  0  0  0  0  0  0  0  0  0
    1.9975   -2.2358    3.7231 H   0  0  0  0  0  0  0  0  0  0  0  0
    3.0314   -0.8683    4.1165 H   0  0  0  0  0  0  0  0  0  0  0  0
    0.3307   -0.8455    2.7252 H   0  0  0  0  0  0  0  0  0  0  0  0
   -0.0326    0.3472    4.7408 H   0  0  0  0  0  0  0  0  0  0  0  0
    1.6774    0.7880    4.8803 H   0  0  0  0  0  0  0  0  0  0  0  0
    1.5734    3.1696    4.8530 H   0  0  0  0  0  0  0  0  0  0  0  0
    0.5155    3.9893    3.7229 H   0  0  0  0  0  0  0  0  0  0  0  0
   -1.3996    3.1738    8.4850 H   0  0  0  0  0  0  0  0  0  0  0  0
   -3.5963    2.9431    6.9485 H   0  0  0  0  0  0  0  0  0  0  0  0
    1.4221    2.7251    1.6808 H   0  0  0  0  0  0  0  0  0  0  0  0
    2.6040    2.2879    2.9203 H   0  0  0  0  0  0  0  0  0  0  0  0
    1.0652    0.4746    1.0702 H   0  0  0  0  0  0  0  0  0  0  0  0
    3.8917    0.5899    2.1637 H   0  0  0  0  0  0  0  0  0  0  0  0
    3.3153    0.1718    0.5479 H   0  0  0  0  0  0  0  0  0  0  0  0
  1  2  2  0
  2  3  1  0
  2  9  1  0
  3  8  1  0
  3  4  2  0
  4  5  1  0
  4 23  1  0
  5  6  2  0
  5 24  1  0
  6  7  1  0
  7  8  2  0
  8 25  1  0
  9 22  1  0
  9 10  1  0
 10 11  1  0
 10 26  1  0
 10 27  1  0
 11 21  1  0
 11 12  1  0
 11 28  1  6
 12 13  1  0
 12 29  1  0
 12 30  1  0
 13 14  1  0
 13 20  1  0
 14 15  1  0
 14 31  1  0
 14 32  1  0
 15 19  1  0
 15 16  2  0
 16 17  1  0
 17 18  2  0
 17 33  1  0
 18 19  1  0
 18 34  1  0
 20 21  1  0
 20 35  1  0
 20 36  1  0
 21 22  1  0
 21 37  1  6
 22 38  1  0
 22 39  1  0
M  END
>  <i_m_ct_stereo_status>  (139) 
1

>  <s_m_source_file>  (139) 
/var/tmp/pbs.5076255.sched01/tmppnbbzaq8/41bb87crku.sdf

>  <i_m_source_file_index>  (139) 
14

>  <i_lp_mmshare_version>  (139) 
48012

>  <i_f3d_flags>  (139) 
0

>  <s_epik_input>  (139) 
W2NIXTFubltjSF1bY0hdYzFDKD1PKU4oW0NIMl0yKVtDSDJdW0NAQEhdKFtDQEBIXTIzKVtDSDJdTihbQ0gyXTMpW0NIMl1jNG5bY0hdW2NIXXM0

>  <s_epik_cmdline>  (139) 
J2VwaWtfcHl0aG9uJywgJy1waHQnLCAnMi4wJywgJy1waCcsICc3LjAnLCAnLXRuJywgJzgnLCAnLW1hJywgJzIwMCcsICctaW1hZScsICc8aW5maWxlLm1hZT4nLCAnLW9tYWUnLCAnPG91dGZpbGUubWFlPic=

>  <r_lp_tautomer_probability>  (139) 
1

>  <r_epik_Ionization_Penalty>  (139) 
0.33005

>  <r_epik_Ionization_Penalty_Charging>  (139) 
0

>  <r_epik_Ionization_Penalty_Neutral>  (139) 
0.33005

>  <r_epik_State_Penalty>  (139) 
0.325044

>  <r_epik_Charging_Adjusted_Penalty>  (139) 
0.325044

>  <i_epik_Tot_Q>  (139) 
0

>  <i_epik_Tot_abs_Q>  (139) 
0

>  <s_lp_Force_Field>  (139) 
OPLS3e

>  <r_lp_Energy>  (139) 
22.5652

>  <b_lp_Chiralities_Consistent>  (139) 
1

>  <s_lp_Variant>  (139) 
41:0-1

>  <s_i_glide_gridfile>  (139) 
pfpi4k_grid

>  <i_i_glide_lignum>  (139) 
14

>  <i_i_glide_rotatable_bonds>  (139) 
4

>  <r_i_docking_score>  (139) 
-2.65483

>  <r_i_glide_ligand_efficiency>  (139) 
-0.120674

>  <r_i_glide_ligand_efficiency_sa>  (139) 
-0.338133

>  <r_i_glide_ligand_efficiency_ln>  (139) 
-0.648937

>  <r_i_glide_gscore>  (139) 
-2.65483

>  <r_i_glide_lipo>  (139) 
-0.182385

>  <r_i_glide_hbond>  (139) 
0

>  <r_i_glide_metal>  (139) 
-0

>  <r_i_glide_rewards>  (139) 
-1.25867

>  <r_i_glide_evdw>  (139) 
-28.1977

>  <r_i_glide_ecoul>  (139) 
-2.99933

>  <r_i_glide_erotb>  (139) 
0.748017

>  <r_i_glide_esite>  (139) 
-0.102002

>  <r_i_glide_emodel>  (139) 
-36.8283

>  <r_i_glide_energy>  (139) 
-31.197

>  <r_i_glide_einternal>  (139) 
0.437637

>  <r_i_glide_intrahb_reward>  (139) 
-0

>  <i_i_glide_confnum>  (139) 
3

>  <i_i_glide_posenum>  (139) 
30

>  <r_i_glide_eff_state_penalty>  (139) 
0

>  <ligand_id>  (139) 
41

>  <original_smiles>  (139) 
O=C(c1ccnnc1)N1CC2CN(Cc3nccs3)CC2C1

>  <smiles>  (139) 
[H]c1nc(C([H])([H])N2C([H])([H])C3([H])C([H])([H])N(C(=O)c4c([H])nnc([H])c4[H])C([H])([H])C3([H])C2([H])[H])sc1[H]

$$$$
41:1:0
     RDKit          3D

 40 43  0  0  1  0  0  0  0  0999 V2000
   -1.2269   -1.4017    5.4725 O   0  0  0  0  0  0  0  0  0  0  0  0
   -0.6603   -0.3582    5.1483 C   0  0  0  0  0  0  0  0  0  0  0  0
   -1.3048    0.9430    5.5084 C   0  0  0  0  0  0  0  0  0  0  0  0
   -1.4952    1.3025    6.8571 C   0  0  0  0  0  0  0  0  0  0  0  0
   -2.1419    2.5275    7.1103 C   0  0  0  0  0  0  0  0  0  0  0  0
   -2.5846    3.3379    6.1157 N   0  0  0  0  0  0  0  0  0  0  0  0
   -2.4134    2.9895    4.8399 N   0  0  0  0  0  0  0  0  0  0  0  0
   -1.7998    1.8209    4.5253 C   0  0  0  0  0  0  0  0  0  0  0  0
    0.5691   -0.3100    4.5719 N   0  0  0  0  0  0  0  0  0  0  0  0
    1.1867    0.7908    3.8313 C   0  0  0  0  0  0  0  0  0  0  0  0
    1.3225    0.1647    2.4352 C   0  0  1  0  0  0  0  0  0  0  0  0
    2.5487    0.5564    1.6296 C   0  0  0  0  0  0  0  0  0  0  0  0
    3.0329   -0.6868    1.0069 N   0  0  1  0  0  0  0  0  0  0  0  0
    4.4426   -0.5815    0.5740 C   0  0  0  0  0  0  0  0  0  0  0  0
    4.7026   -1.6397   -0.4640 C   0  0  0  0  0  0  0  0  0  0  0  0
    5.9352   -1.8255   -0.9595 N   0  0  0  0  0  0  0  0  0  0  0  0
    6.0198   -2.8444   -1.9210 C   0  0  0  0  0  0  0  0  0  0  0  0
    4.7959   -3.4461   -2.1599 C   0  0  0  0  0  0  0  0  0  0  0  0
    3.5184   -2.7302   -1.2178 S   0  0  0  0  0  0  0  0  0  0  0  0
    2.7667   -1.7494    1.9975 C   0  0  0  0  0  0  0  0  0  0  0  0
    1.4664   -1.3343    2.6828 C   0  0  1  0  0  0  0  0  0  0  0  0
    1.3747   -1.4750    4.2080 C   0  0  0  0  0  0  0  0  0  0  0  0
   -1.1319    0.6866    7.6713 H   0  0  0  0  0  0  0  0  0  0  0  0
   -2.3107    2.8726    8.1197 H   0  0  0  0  0  0  0  0  0  0  0  0
   -1.7112    1.5938    3.4742 H   0  0  0  0  0  0  0  0  0  0  0  0
    0.6269    1.7161    3.7757 H   0  0  0  0  0  0  0  0  0  0  0  0
    2.1507    1.0721    4.2719 H   0  0  0  0  0  0  0  0  0  0  0  0
    0.4095    0.3413    1.8587 H   0  0  0  0  0  0  0  0  0  0  0  0
    2.2996    1.3219    0.9007 H   0  0  0  0  0  0  0  0  0  0  0  0
    3.3060    0.9603    2.2966 H   0  0  0  0  0  0  0  0  0  0  0  0
    4.6181    0.3858    0.1134 H   0  0  0  0  0  0  0  0  0  0  0  0
    5.1549   -0.6800    1.3946 H   0  0  0  0  0  0  0  0  0  0  0  0
    6.9604   -3.0943   -2.3963 H   0  0  0  0  0  0  0  0  0  0  0  0
    4.5791   -4.2557   -2.8270 H   0  0  0  0  0  0  0  0  0  0  0  0
    2.6748   -2.7367    1.5531 H   0  0  0  0  0  0  0  0  0  0  0  0
    3.5679   -1.7806    2.7311 H   0  0  0  0  0  0  0  0  0  0  0  0
    0.6250   -1.8528    2.2243 H   0  0  0  0  0  0  0  0  0  0  0  0
    2.3629   -1.4265    4.6857 H   0  0  0  0  0  0  0  0  0  0  0  0
    0.9293   -2.4225    4.5001 H   0  0  0  0  0  0  0  0  0  0  0  0
    2.4188   -0.8419    0.2092 H   0  0  0  0  0  0  0  0  0  0  0  0
  1  2  2  0
  2  3  1  0
  2  9  1  0
  3  8  1  0
  3  4  2  0
  4  5  1  0
  4 23  1  0
  5  6  2  0
  5 24  1  0
  6  7  1  0
  7  8  2  0
  8 25  1  0
  9 22  1  0
  9 10  1  0
 10 11  1  0
 10 26  1  0
 10 27  1  0
 11 21  1  0
 11 12  1  0
 11 28  1  6
 12 13  1  0
 12 29  1  0
 12 30  1  0
 13 14  1  0
 13 20  1  0
 13 40  1  6
 14 15  1  0
 14 31  1  0
 14 32  1  0
 15 19  1  0
 15 16  2  0
 16 17  1  0
 17 18  2  0
 17 33  1  0
 18 19  1  0
 18 34  1  0
 20 21  1  0
 20 35  1  0
 20 36  1  0
 21 22  1  0
 21 37  1  6
 22 38  1  0
 22 39  1  0
M  CHG  1  13   1
M  END
>  <i_m_ct_stereo_status>  (140) 
1

>  <s_m_source_file>  (140) 
/var/tmp/pbs.5076255.sched01/tmppnbbzaq8/41bb87crku.sdf

>  <i_m_source_file_index>  (140) 
15

>  <i_lp_mmshare_version>  (140) 
48012

>  <i_f3d_flags>  (140) 
0

>  <s_epik_input>  (140) 
W2NIXTFubltjSF1bY0hdYzFDKD1PKU4oW0NIMl0yKVtDSDJdW0NAQEhdKFtDQEBIXTIzKVtDSDJdTihbQ0gyXTMpW0NIMl1jNG5bY0hdW2NIXXM0

>  <s_epik_cmdline>  (140) 
J2VwaWtfcHl0aG9uJywgJy1waHQnLCAnMi4wJywgJy1waCcsICc3LjAnLCAnLXRuJywgJzgnLCAnLW1hJywgJzIwMCcsICctaW1hZScsICc8aW5maWxlLm1hZT4nLCAnLW9tYWUnLCAnPG91dGZpbGUubWFlPic=

>  <r_lp_tautomer_probability>  (140) 
1

>  <r_epik_Ionization_Penalty>  (140) 
0.504101

>  <r_epik_Ionization_Penalty_Charging>  (140) 
0.5041

>  <r_epik_Ionization_Penalty_Neutral>  (140) 
1.37005e-06

>  <r_epik_State_Penalty>  (140) 
0.510819

>  <r_epik_Charging_Adjusted_Penalty>  (140) 
1.01492

>  <i_epik_Tot_Q>  (140) 
1

>  <i_epik_Tot_abs_Q>  (140) 
1

>  <s_lp_Force_Field>  (140) 
OPLS3e

>  <r_lp_Energy>  (140) 
26.9543

>  <b_lp_Chiralities_Consistent>  (140) 
1

>  <s_lp_Variant>  (140) 
41:0-2

>  <s_i_glide_gridfile>  (140) 
pfpi4k_grid

>  <i_i_glide_lignum>  (140) 
15

>  <i_i_glide_rotatable_bonds>  (140) 
4

>  <r_i_docking_score>  (140) 
-3.98988

>  <r_i_glide_ligand_efficiency>  (140) 
-0.181358

>  <r_i_glide_ligand_efficiency_sa>  (140) 
-0.508173

>  <r_i_glide_ligand_efficiency_ln>  (140) 
-0.975273

>  <r_i_glide_gscore>  (140) 
-3.98988

>  <r_i_glide_lipo>  (140) 
-0.271586

>  <r_i_glide_hbond>  (140) 
-0.242012

>  <r_i_glide_metal>  (140) 
-0

>  <r_i_glide_rewards>  (140) 
-1.2518

>  <r_i_glide_evdw>  (140) 
-29.7683

>  <r_i_glide_ecoul>  (140) 
-9.11732

>  <r_i_glide_erotb>  (140) 
0.743829

>  <r_i_glide_esite>  (140) 
-0.112296

>  <r_i_glide_emodel>  (140) 
-46.9077

>  <r_i_glide_energy>  (140) 
-38.8857

>  <r_i_glide_einternal>  (140) 
5.10986

>  <r_i_glide_intrahb_reward>  (140) 
-0

>  <i_i_glide_confnum>  (140) 
2

>  <i_i_glide_posenum>  (140) 
19

>  <r_i_glide_eff_state_penalty>  (140) 
0

>  <ligand_id>  (140) 
41

>  <original_smiles>  (140) 
O=C(c1ccnnc1)N1CC2CN(Cc3nccs3)CC2C1

>  <smiles>  (140) 
[H]c1nc(C([H])([H])[N+]2([H])C([H])([H])C3([H])C([H])([H])N(C(=O)c4c([H])nnc([H])c4[H])C([H])([H])C3([H])C2([H])[H])sc1[H]

$$$$
41:1:1
     RDKit          3D

 40 43  0  0  1  0  0  0  0  0999 V2000
    0.0847    0.7113    5.5018 O   0  0  0  0  0  0  0  0  0  0  0  0
    0.4641    1.4286    4.5755 C   0  0  0  0  0  0  0  0  0  0  0  0
   -0.4506    2.5007    4.0738 C   0  0  0  0  0  0  0  0  0  0  0  0
   -1.7700    2.1912    3.6906 C   0  0  0  0  0  0  0  0  0  0  0  0
   -2.5948    3.2528    3.2788 C   0  0  0  0  0  0  0  0  0  0  0  0
   -2.1851    4.5410    3.2787 N   0  0  0  0  0  0  0  0  0  0  0  0
   -0.9402    4.8432    3.6801 N   0  0  0  0  0  0  0  0  0  0  0  0
   -0.0817    3.8640    4.0503 C   0  0  0  0  0  0  0  0  0  0  0  0
    1.6819    1.3079    3.9958 N   0  0  0  0  0  0  0  0  0  0  0  0
    1.9355    1.4603    2.5643 C   0  0  0  0  0  0  0  0  0  0  0  0
    2.2890    0.0270    2.1224 C   0  0  1  0  0  0  0  0  0  0  0  0
    3.4051   -0.1178    1.0937 C   0  0  0  0  0  0  0  0  0  0  0  0
    4.2306   -1.2700    1.5358 N   0  0  1  0  0  0  0  0  0  0  0  0
    5.6110   -1.2984    0.9791 C   0  0  0  0  0  0  0  0  0  0  0  0
    5.5636   -1.9365   -0.3913 C   0  0  0  0  0  0  0  0  0  0  0  0
    6.6444   -2.5325   -0.9077 N   0  0  0  0  0  0  0  0  0  0  0  0
    6.4285   -3.0516   -2.1889 C   0  0  0  0  0  0  0  0  0  0  0  0
    5.1675   -2.8113   -2.6714 C   0  0  0  0  0  0  0  0  0  0  0  0
    4.1965   -1.9525   -1.5208 S   0  0  0  0  0  0  0  0  0  0  0  0
    4.1905   -1.2205    3.0179 C   0  0  0  0  0  0  0  0  0  0  0  0
    2.7978   -0.6797    3.3763 C   0  0  1  0  0  0  0  0  0  0  0  0
    2.7197    0.3949    4.4706 C   0  0  0  0  0  0  0  0  0  0  0  0
   -2.1395    1.1765    3.7083 H   0  0  0  0  0  0  0  0  0  0  0  0
   -3.6150    3.0706    2.9707 H   0  0  0  0  0  0  0  0  0  0  0  0
    0.8968    4.1897    4.3759 H   0  0  0  0  0  0  0  0  0  0  0  0
    1.0914    1.8540    1.9956 H   0  0  0  0  0  0  0  0  0  0  0  0
    2.7733    2.1475    2.4223 H   0  0  0  0  0  0  0  0  0  0  0  0
    1.3936   -0.4899    1.7701 H   0  0  0  0  0  0  0  0  0  0  0  0
    2.9746   -0.2545    0.1060 H   0  0  0  0  0  0  0  0  0  0  0  0
    4.0223    0.7791    1.0815 H   0  0  0  0  0  0  0  0  0  0  0  0
    6.0521   -0.3082    0.9080 H   0  0  0  0  0  0  0  0  0  0  0  0
    6.2697   -1.8933    1.6137 H   0  0  0  0  0  0  0  0  0  0  0  0
    7.2296   -3.5787   -2.6866 H   0  0  0  0  0  0  0  0  0  0  0  0
    4.7546   -3.1061   -3.6190 H   0  0  0  0  0  0  0  0  0  0  0  0
    4.3860   -2.1955    3.4708 H   0  0  0  0  0  0  0  0  0  0  0  0
    4.9568   -0.5272    3.3652 H   0  0  0  0  0  0  0  0  0  0  0  0
    2.1209   -1.5034    3.6162 H   0  0  0  0  0  0  0  0  0  0  0  0
    3.6558    0.9524    4.5555 H   0  0  0  0  0  0  0  0  0  0  0  0
    2.5134   -0.0354    5.4510 H   0  0  0  0  0  0  0  0  0  0  0  0
    3.7551   -2.1200    1.2595 H   0  0  0  0  0  0  0  0  0  0  0  0
  1  2  2  0
  2  3  1  0
  2  9  1  0
  3  8  1  0
  3  4  2  0
  4  5  1  0
  4 23  1  0
  5  6  2  0
  5 24  1  0
  6  7  1  0
  7  8  2  0
  8 25  1  0
  9 22  1  0
  9 10  1  0
 10 11  1  0
 10 26  1  0
 10 27  1  0
 11 21  1  0
 11 12  1  0
 11 28  1  6
 12 13  1  0
 12 29  1  0
 12 30  1  0
 13 14  1  0
 13 20  1  0
 13 40  1  6
 14 15  1  0
 14 31  1  0
 14 32  1  0
 15 19  1  0
 15 16  2  0
 16 17  1  0
 17 18  2  0
 17 33  1  0
 18 19  1  0
 18 34  1  0
 20 21  1  0
 20 35  1  0
 20 36  1  0
 21 22  1  0
 21 37  1  1
 22 38  1  0
 22 39  1  0
M  CHG  1  13   1
M  END
>  <i_m_ct_stereo_status>  (141) 
1

>  <s_m_source_file>  (141) 
/var/tmp/pbs.5076255.sched01/tmppnbbzaq8/41bb87crku.sdf

>  <i_m_source_file_index>  (141) 
15

>  <i_lp_mmshare_version>  (141) 
48012

>  <i_f3d_flags>  (141) 
0

>  <s_epik_input>  (141) 
W2NIXTFubltjSF1bY0hdYzFDKD1PKU4oW0NIMl0yKVtDSDJdW0NAQEhdKFtDQEBIXTIzKVtDSDJdTihbQ0gyXTMpW0NIMl1jNG5bY0hdW2NIXXM0

>  <s_epik_cmdline>  (141) 
J2VwaWtfcHl0aG9uJywgJy1waHQnLCAnMi4wJywgJy1waCcsICc3LjAnLCAnLXRuJywgJzgnLCAnLW1hJywgJzIwMCcsICctaW1hZScsICc8aW5maWxlLm1hZT4nLCAnLW9tYWUnLCAnPG91dGZpbGUubWFlPic=

>  <r_lp_tautomer_probability>  (141) 
1

>  <r_epik_Ionization_Penalty>  (141) 
0.504101

>  <r_epik_Ionization_Penalty_Charging>  (141) 
0.5041

>  <r_epik_Ionization_Penalty_Neutral>  (141) 
1.37005e-06

>  <r_epik_State_Penalty>  (141) 
0.510819

>  <r_epik_Charging_Adjusted_Penalty>  (141) 
1.01492

>  <i_epik_Tot_Q>  (141) 
1

>  <i_epik_Tot_abs_Q>  (141) 
1

>  <s_lp_Force_Field>  (141) 
OPLS3e

>  <r_lp_Energy>  (141) 
26.9543

>  <b_lp_Chiralities_Consistent>  (141) 
1

>  <s_lp_Variant>  (141) 
41:0-2

>  <s_i_glide_gridfile>  (141) 
pfpi4k_grid

>  <i_i_glide_lignum>  (141) 
15

>  <i_i_glide_rotatable_bonds>  (141) 
4

>  <r_i_docking_score>  (141) 
-3.89201

>  <r_i_glide_ligand_efficiency>  (141) 
-0.176909

>  <r_i_glide_ligand_efficiency_sa>  (141) 
-0.495707

>  <r_i_glide_ligand_efficiency_ln>  (141) 
-0.951348

>  <r_i_glide_gscore>  (141) 
-3.89201

>  <r_i_glide_lipo>  (141) 
-0.412807

>  <r_i_glide_hbond>  (141) 
-0.0316088

>  <r_i_glide_metal>  (141) 
-0

>  <r_i_glide_rewards>  (141) 
-1.2518

>  <r_i_glide_evdw>  (141) 
-28.4305

>  <r_i_glide_ecoul>  (141) 
-8.6819

>  <r_i_glide_erotb>  (141) 
0.743829

>  <r_i_glide_esite>  (141) 
-0.215804

>  <r_i_glide_emodel>  (141) 
-46.3806

>  <r_i_glide_energy>  (141) 
-37.1124

>  <r_i_glide_einternal>  (141) 
2.60999

>  <r_i_glide_intrahb_reward>  (141) 
-0

>  <i_i_glide_confnum>  (141) 
5

>  <i_i_glide_posenum>  (141) 
33

>  <r_i_glide_eff_state_penalty>  (141) 
0

>  <ligand_id>  (141) 
41

>  <original_smiles>  (141) 
O=C(c1ccnnc1)N1CC2CN(Cc3nccs3)CC2C1

>  <smiles>  (141) 
[H]c1nc(C([H])([H])[N+]2([H])C([H])([H])C3([H])C([H])([H])N(C(=O)c4c([H])nnc([H])c4[H])C([H])([H])C3([H])C2([H])[H])sc1[H]

$$$$
41:1:2
     RDKit          3D

 40 43  0  0  1  0  0  0  0  0999 V2000
    6.4217   -1.9917   -0.2060 O   0  0  0  0  0  0  0  0  0  0  0  0
    5.6018   -2.7641   -0.7062 C   0  0  0  0  0  0  0  0  0  0  0  0
    4.8661   -2.3156   -1.9377 C   0  0  0  0  0  0  0  0  0  0  0  0
    4.4551   -0.9803   -2.0699 C   0  0  0  0  0  0  0  0  0  0  0  0
    3.8075   -0.6045   -3.2645 C   0  0  0  0  0  0  0  0  0  0  0  0
    3.5902   -1.4789   -4.2731 N   0  0  0  0  0  0  0  0  0  0  0  0
    3.9754   -2.7510   -4.1498 N   0  0  0  0  0  0  0  0  0  0  0  0
    4.6198   -3.1721   -3.0349 C   0  0  0  0  0  0  0  0  0  0  0  0
    5.3197   -3.9836   -0.1894 N   0  0  0  0  0  0  0  0  0  0  0  0
    4.0752   -4.7313   -0.3409 C   0  0  0  0  0  0  0  0  0  0  0  0
    3.4992   -4.8006    1.0676 C   0  0  1  0  0  0  0  0  0  0  0  0
    2.8090   -6.1122    1.4601 C   0  0  0  0  0  0  0  0  0  0  0  0
    3.2782   -6.3916    2.8381 N   0  0  1  0  0  0  0  0  0  0  0  0
    3.1573   -7.8103    3.2727 C   0  0  0  0  0  0  0  0  0  0  0  0
    1.6877   -8.1220    3.4046 C   0  0  0  0  0  0  0  0  0  0  0  0
    0.7691   -7.3319    3.9819 N   0  0  0  0  0  0  0  0  0  0  0  0
   -0.4981   -7.9436    4.0127 C   0  0  0  0  0  0  0  0  0  0  0  0
   -0.5278   -9.1634    3.3978 C   0  0  0  0  0  0  0  0  0  0  0  0
    1.0378   -9.6573    2.8430 S   0  0  0  0  0  0  0  0  0  0  0  0
    4.6749   -5.8876    2.8976 C   0  0  0  0  0  0  0  0  0  0  0  0
    4.7191   -4.6645    1.9771 C   0  0  1  0  0  0  0  0  0  0  0  0
    5.9196   -4.5380    1.0191 C   0  0  0  0  0  0  0  0  0  0  0  0
    4.6111   -0.2566   -1.2803 H   0  0  0  0  0  0  0  0  0  0  0  0
    3.4746    0.4117   -3.4208 H   0  0  0  0  0  0  0  0  0  0  0  0
    4.9176   -4.2088   -3.0315 H   0  0  0  0  0  0  0  0  0  0  0  0
    3.3423   -4.2852   -1.0130 H   0  0  0  0  0  0  0  0  0  0  0  0
    4.3201   -5.7288   -0.7165 H   0  0  0  0  0  0  0  0  0  0  0  0
    2.8382   -3.9476    1.2284 H   0  0  0  0  0  0  0  0  0  0  0  0
    1.7218   -6.0378    1.3941 H   0  0  0  0  0  0  0  0  0  0  0  0
    3.1385   -6.9192    0.8088 H   0  0  0  0  0  0  0  0  0  0  0  0
    3.6357   -8.4902    2.5686 H   0  0  0  0  0  0  0  0  0  0  0  0
    3.6249   -7.9556    4.2454 H   0  0  0  0  0  0  0  0  0  0  0  0
   -1.3329   -7.4568    4.4912 H   0  0  0  0  0  0  0  0  0  0  0  0
   -1.3640   -9.8321    3.2876 H   0  0  0  0  0  0  0  0  0  0  0  0
    4.9822   -5.6379    3.9153 H   0  0  0  0  0  0  0  0  0  0  0  0
    5.3410   -6.6575    2.5103 H   0  0  0  0  0  0  0  0  0  0  0  0
    4.6211   -3.7402    2.5492 H   0  0  0  0  0  0  0  0  0  0  0  0
    6.3608   -5.5104    0.7778 H   0  0  0  0  0  0  0  0  0  0  0  0
    6.7140   -3.9175    1.4360 H   0  0  0  0  0  0  0  0  0  0  0  0
    2.7212   -5.8247    3.4635 H   0  0  0  0  0  0  0  0  0  0  0  0
  1  2  2  0
  2  3  1  0
  2  9  1  0
  3  8  1  0
  3  4  2  0
  4  5  1  0
  4 23  1  0
  5  6  2  0
  5 24  1  0
  6  7  1  0
  7  8  2  0
  8 25  1  0
  9 22  1  0
  9 10  1  0
 10 11  1  0
 10 26  1  0
 10 27  1  0
 11 21  1  0
 11 12  1  0
 11 28  1  1
 12 13  1  0
 12 29  1  0
 12 30  1  0
 13 14  1  0
 13 20  1  0
 13 40  1  1
 14 15  1  0
 14 31  1  0
 14 32  1  0
 15 19  1  0
 15 16  2  0
 16 17  1  0
 17 18  2  0
 17 33  1  0
 18 19  1  0
 18 34  1  0
 20 21  1  0
 20 35  1  0
 20 36  1  0
 21 22  1  0
 21 37  1  1
 22 38  1  0
 22 39  1  0
M  CHG  1  13   1
M  END
>  <i_m_ct_stereo_status>  (142) 
1

>  <s_m_source_file>  (142) 
/var/tmp/pbs.5076255.sched01/tmppnbbzaq8/41bb87crku.sdf

>  <i_m_source_file_index>  (142) 
15

>  <i_lp_mmshare_version>  (142) 
48012

>  <i_f3d_flags>  (142) 
0

>  <s_epik_input>  (142) 
W2NIXTFubltjSF1bY0hdYzFDKD1PKU4oW0NIMl0yKVtDSDJdW0NAQEhdKFtDQEBIXTIzKVtDSDJdTihbQ0gyXTMpW0NIMl1jNG5bY0hdW2NIXXM0

>  <s_epik_cmdline>  (142) 
J2VwaWtfcHl0aG9uJywgJy1waHQnLCAnMi4wJywgJy1waCcsICc3LjAnLCAnLXRuJywgJzgnLCAnLW1hJywgJzIwMCcsICctaW1hZScsICc8aW5maWxlLm1hZT4nLCAnLW9tYWUnLCAnPG91dGZpbGUubWFlPic=

>  <r_lp_tautomer_probability>  (142) 
1

>  <r_epik_Ionization_Penalty>  (142) 
0.504101

>  <r_epik_Ionization_Penalty_Charging>  (142) 
0.5041

>  <r_epik_Ionization_Penalty_Neutral>  (142) 
1.37005e-06

>  <r_epik_State_Penalty>  (142) 
0.510819

>  <r_epik_Charging_Adjusted_Penalty>  (142) 
1.01492

>  <i_epik_Tot_Q>  (142) 
1

>  <i_epik_Tot_abs_Q>  (142) 
1

>  <s_lp_Force_Field>  (142) 
OPLS3e

>  <r_lp_Energy>  (142) 
26.9543

>  <b_lp_Chiralities_Consistent>  (142) 
1

>  <s_lp_Variant>  (142) 
41:0-2

>  <s_i_glide_gridfile>  (142) 
pfpi4k_grid

>  <i_i_glide_lignum>  (142) 
15

>  <i_i_glide_rotatable_bonds>  (142) 
4

>  <r_i_docking_score>  (142) 
-3.59107

>  <r_i_glide_ligand_efficiency>  (142) 
-0.163231

>  <r_i_glide_ligand_efficiency_sa>  (142) 
-0.457378

>  <r_i_glide_ligand_efficiency_ln>  (142) 
-0.877789

>  <r_i_glide_gscore>  (142) 
-3.59107

>  <r_i_glide_lipo>  (142) 
-0.467674

>  <r_i_glide_hbond>  (142) 
-0.00346221

>  <r_i_glide_metal>  (142) 
-0

>  <r_i_glide_rewards>  (142) 
-1.33007

>  <r_i_glide_evdw>  (142) 
-31.312

>  <r_i_glide_ecoul>  (142) 
-6.13318

>  <r_i_glide_erotb>  (142) 
0.743829

>  <r_i_glide_esite>  (142) 
-0.0481182

>  <r_i_glide_emodel>  (142) 
-46.2081

>  <r_i_glide_energy>  (142) 
-37.4451

>  <r_i_glide_einternal>  (142) 
1.86414

>  <r_i_glide_intrahb_reward>  (142) 
-0

>  <i_i_glide_confnum>  (142) 
5

>  <i_i_glide_posenum>  (142) 
3

>  <r_i_glide_eff_state_penalty>  (142) 
0

>  <ligand_id>  (142) 
41

>  <original_smiles>  (142) 
O=C(c1ccnnc1)N1CC2CN(Cc3nccs3)CC2C1

>  <smiles>  (142) 
[H]c1nc(C([H])([H])[N+]2([H])C([H])([H])C3([H])C([H])([H])N(C(=O)c4c([H])nnc([H])c4[H])C([H])([H])C3([H])C2([H])[H])sc1[H]

$$$$
41:2:0
     RDKit          3D

 40 43  0  0  1  0  0  0  0  0999 V2000
    2.1565   -6.9172    1.2578 O   0  0  0  0  0  0  0  0  0  0  0  0
    2.0315   -7.8178    2.0930 C   0  0  0  0  0  0  0  0  0  0  0  0
    0.7151   -7.9742    2.8060 C   0  0  0  0  0  0  0  0  0  0  0  0
    0.5807   -8.5609    4.0896 C   0  0  0  0  0  0  0  0  0  0  0  0
   -0.6969   -8.5550    4.6756 C   0  0  0  0  0  0  0  0  0  0  0  0
   -1.7760   -8.0140    4.0719 N   0  0  0  0  0  0  0  0  0  0  0  0
   -1.6678   -7.4890    2.8507 N   0  0  0  0  0  0  0  0  0  0  0  0
   -0.4690   -7.4730    2.2253 C   0  0  0  0  0  0  0  0  0  0  0  0
    3.0084   -8.7209    2.3068 N   0  0  0  0  0  0  0  0  0  0  0  0
    4.0396   -9.0415    1.3200 C   0  0  0  0  0  0  0  0  0  0  0  0
    5.3350   -8.3952    1.8187 C   0  0  1  0  0  0  0  0  0  0  0  0
    5.5661   -6.9718    1.2805 C   0  0  0  0  0  0  0  0  0  0  0  0
    4.9738   -6.0560    2.2806 N   0  0  2  0  0  0  0  0  0  0  0  0
    5.4422   -4.6426    2.2386 C   0  0  0  0  0  0  0  0  0  0  0  0
    4.7878   -4.0009    1.0444 C   0  0  0  0  0  0  0  0  0  0  0  0
    5.3172   -4.0121   -0.1826 N   0  0  0  0  0  0  0  0  0  0  0  0
    4.5500   -3.2665   -1.0968 C   0  0  0  0  0  0  0  0  0  0  0  0
    3.4399   -2.6969   -0.5452 C   0  0  0  0  0  0  0  0  0  0  0  0
    3.2974   -3.0690    1.1531 S   0  0  0  0  0  0  0  0  0  0  0  0
    5.2209   -6.7183    3.5821 C   0  0  0  0  0  0  0  0  0  0  0  0
    5.1163   -8.2331    3.3231 C   0  0  1  0  0  0  0  0  0  0  0  0
    3.7187   -8.7919    3.5840 C   0  0  0  0  0  0  0  0  0  0  0  0
    1.3826   -9.0062    4.6620 H   0  0  0  0  0  0  0  0  0  0  0  0
   -0.8210   -8.9725    5.6645 H   0  0  0  0  0  0  0  0  0  0  0  0
   -0.4774   -7.0126    1.2467 H   0  0  0  0  0  0  0  0  0  0  0  0
    4.1474  -10.1278    1.3137 H   0  0  0  0  0  0  0  0  0  0  0  0
    3.8123   -8.7419    0.2980 H   0  0  0  0  0  0  0  0  0  0  0  0
    6.1914   -9.0326    1.5999 H   0  0  0  0  0  0  0  0  0  0  0  0
    6.6398   -6.7961    1.2303 H   0  0  0  0  0  0  0  0  0  0  0  0
    5.1446   -6.8192    0.2842 H   0  0  0  0  0  0  0  0  0  0  0  0
    5.1367   -4.1057    3.1399 H   0  0  0  0  0  0  0  0  0  0  0  0
    6.5262   -4.5641    2.1593 H   0  0  0  0  0  0  0  0  0  0  0  0
    4.8731   -3.1986   -2.1291 H   0  0  0  0  0  0  0  0  0  0  0  0
    2.6943   -2.0884   -1.0281 H   0  0  0  0  0  0  0  0  0  0  0  0
    6.2375   -6.5010    3.9007 H   0  0  0  0  0  0  0  0  0  0  0  0
    4.5485   -6.3552    4.3637 H   0  0  0  0  0  0  0  0  0  0  0  0
    5.8437   -8.7691    3.9307 H   0  0  0  0  0  0  0  0  0  0  0  0
    3.2839   -8.1982    4.3867 H   0  0  0  0  0  0  0  0  0  0  0  0
    3.7529   -9.8416    3.8915 H   0  0  0  0  0  0  0  0  0  0  0  0
    3.9789   -6.0665    2.1195 H   0  0  0  0  0  0  0  0  0  0  0  0
  1  2  2  0
  2  3  1  0
  2  9  1  0
  3  8  1  0
  3  4  2  0
  4  5  1  0
  4 23  1  0
  5  6  2  0
  5 24  1  0
  6  7  1  0
  7  8  2  0
  8 25  1  0
  9 22  1  0
  9 10  1  0
 10 11  1  0
 10 26  1  0
 10 27  1  0
 11 21  1  0
 11 12  1  0
 11 28  1  1
 12 13  1  0
 12 29  1  0
 12 30  1  0
 13 14  1  0
 13 20  1  0
 13 40  1  6
 14 15  1  0
 14 31  1  0
 14 32  1  0
 15 19  1  0
 15 16  2  0
 16 17  1  0
 17 18  2  0
 17 33  1  0
 18 19  1  0
 18 34  1  0
 20 21  1  0
 20 35  1  0
 20 36  1  0
 21 22  1  0
 21 37  1  1
 22 38  1  0
 22 39  1  0
M  CHG  1  13   1
M  END
>  <i_m_ct_stereo_status>  (143) 
1

>  <s_m_source_file>  (143) 
/var/tmp/pbs.5076255.sched01/tmppnbbzaq8/41bb87crku.sdf

>  <i_m_source_file_index>  (143) 
16

>  <i_lp_mmshare_version>  (143) 
48012

>  <i_f3d_flags>  (143) 
0

>  <s_epik_input>  (143) 
W2NIXTFubltjSF1bY0hdYzFDKD1PKU4oW0NIMl0yKVtDSDJdW0NAQEhdKFtDQEBIXTIzKVtDSDJdTihbQ0gyXTMpW0NIMl1jNG5bY0hdW2NIXXM0

>  <s_epik_cmdline>  (143) 
J2VwaWtfcHl0aG9uJywgJy1waHQnLCAnMi4wJywgJy1waCcsICc3LjAnLCAnLXRuJywgJzgnLCAnLW1hJywgJzIwMCcsICctaW1hZScsICc8aW5maWxlLm1hZT4nLCAnLW9tYWUnLCAnPG91dGZpbGUubWFlPic=

>  <r_lp_tautomer_probability>  (143) 
1

>  <r_epik_Ionization_Penalty>  (143) 
0.504101

>  <r_epik_Ionization_Penalty_Charging>  (143) 
0.5041

>  <r_epik_Ionization_Penalty_Neutral>  (143) 
1.37005e-06

>  <r_epik_State_Penalty>  (143) 
0.510819

>  <r_epik_Charging_Adjusted_Penalty>  (143) 
1.01492

>  <i_epik_Tot_Q>  (143) 
1

>  <i_epik_Tot_abs_Q>  (143) 
1

>  <s_lp_Force_Field>  (143) 
OPLS3e

>  <r_lp_Energy>  (143) 
21.805

>  <b_lp_Chiralities_Consistent>  (143) 
1

>  <s_lp_Variant>  (143) 
41:0-3

>  <s_i_glide_gridfile>  (143) 
pfpi4k_grid

>  <i_i_glide_lignum>  (143) 
16

>  <i_i_glide_rotatable_bonds>  (143) 
4

>  <r_i_docking_score>  (143) 
-3.31673

>  <r_i_glide_ligand_efficiency>  (143) 
-0.15076

>  <r_i_glide_ligand_efficiency_sa>  (143) 
-0.422436

>  <r_i_glide_ligand_efficiency_ln>  (143) 
-0.810729

>  <r_i_glide_gscore>  (143) 
-3.31673

>  <r_i_glide_lipo>  (143) 
-0.210783

>  <r_i_glide_hbond>  (143) 
0

>  <r_i_glide_metal>  (143) 
-0

>  <r_i_glide_rewards>  (143) 
-1.7518

>  <r_i_glide_evdw>  (143) 
-26.2168

>  <r_i_glide_ecoul>  (143) 
-3.94242

>  <r_i_glide_erotb>  (143) 
0.743829

>  <r_i_glide_esite>  (143) 
-0.195767

>  <r_i_glide_emodel>  (143) 
-40.851

>  <r_i_glide_energy>  (143) 
-30.1592

>  <r_i_glide_einternal>  (143) 
4.57809

>  <r_i_glide_intrahb_reward>  (143) 
-0.5

>  <i_i_glide_confnum>  (143) 
2

>  <i_i_glide_posenum>  (143) 
4

>  <r_i_glide_eff_state_penalty>  (143) 
0

>  <ligand_id>  (143) 
41

>  <original_smiles>  (143) 
O=C(c1ccnnc1)N1CC2CN(Cc3nccs3)CC2C1

>  <smiles>  (143) 
[H]c1nc(C([H])([H])[N+]2([H])C([H])([H])C3([H])C([H])([H])N(C(=O)c4c([H])nnc([H])c4[H])C([H])([H])C3([H])C2([H])[H])sc1[H]

$$$$
41:2:1
     RDKit          3D

 40 43  0  0  1  0  0  0  0  0999 V2000
    2.5068   -5.0111    1.3770 O   0  0  0  0  0  0  0  0  0  0  0  0
    3.6514   -4.8217    0.9467 C   0  0  0  0  0  0  0  0  0  0  0  0
    3.8457   -4.1347   -0.3879 C   0  0  0  0  0  0  0  0  0  0  0  0
    5.0499   -4.1712   -1.1271 C   0  0  0  0  0  0  0  0  0  0  0  0
    5.0597   -3.5675   -2.4027 C   0  0  0  0  0  0  0  0  0  0  0  0
    3.9914   -2.9280   -2.9228 N   0  0  0  0  0  0  0  0  0  0  0  0
    2.8633   -2.8453   -2.2128 N   0  0  0  0  0  0  0  0  0  0  0  0
    2.7753   -3.4374   -0.9953 C   0  0  0  0  0  0  0  0  0  0  0  0
    4.7316   -5.1210    1.6987 N   0  0  0  0  0  0  0  0  0  0  0  0
    4.6708   -5.2874    3.1514 C   0  0  0  0  0  0  0  0  0  0  0  0
    4.8420   -6.7914    3.4122 C   0  0  1  0  0  0  0  0  0  0  0  0
    3.5141   -7.5698    3.4727 C   0  0  0  0  0  0  0  0  0  0  0  0
    3.2597   -8.0513    2.0966 N   0  0  2  0  0  0  0  0  0  0  0  0
    2.2941   -9.1698    1.9489 C   0  0  0  0  0  0  0  0  0  0  0  0
    0.9639   -8.6721    2.4579 C   0  0  0  0  0  0  0  0  0  0  0  0
    0.3659   -9.1980    3.5284 N   0  0  0  0  0  0  0  0  0  0  0  0
   -0.9056   -8.6432    3.7599 C   0  0  0  0  0  0  0  0  0  0  0  0
   -1.2406   -7.6629    2.8752 C   0  0  0  0  0  0  0  0  0  0  0  0
    0.0127   -7.3895    1.6913 S   0  0  0  0  0  0  0  0  0  0  0  0
    4.5986   -8.3536    1.5452 C   0  0  0  0  0  0  0  0  0  0  0  0
    5.5584   -7.3142    2.1572 C   0  0  1  0  0  0  0  0  0  0  0  0
    5.7462   -6.0826    1.2687 C   0  0  0  0  0  0  0  0  0  0  0  0
    5.9587   -4.6362   -0.7945 H   0  0  0  0  0  0  0  0  0  0  0  0
    5.9493   -3.6271   -3.0116 H   0  0  0  0  0  0  0  0  0  0  0  0
    1.8193   -3.3320   -0.5024 H   0  0  0  0  0  0  0  0  0  0  0  0
    5.5129   -4.7397    3.5816 H   0  0  0  0  0  0  0  0  0  0  0  0
    3.7650   -4.8792    3.6054 H   0  0  0  0  0  0  0  0  0  0  0  0
    5.4292   -6.9657    4.3159 H   0  0  0  0  0  0  0  0  0  0  0  0
    3.6432   -8.4315    4.1254 H   0  0  0  0  0  0  0  0  0  0  0  0
    2.6913   -6.9656    3.8571 H   0  0  0  0  0  0  0  0  0  0  0  0
    2.1958   -9.4587    0.9027 H   0  0  0  0  0  0  0  0  0  0  0  0
    2.5981  -10.0525    2.5053 H   0  0  0  0  0  0  0  0  0  0  0  0
   -1.4911   -9.0205    4.5858 H   0  0  0  0  0  0  0  0  0  0  0  0
   -2.1609   -7.1069    2.8574 H   0  0  0  0  0  0  0  0  0  0  0  0
    4.9067   -9.3409    1.8865 H   0  0  0  0  0  0  0  0  0  0  0  0
    4.6034   -8.3706    0.4521 H   0  0  0  0  0  0  0  0  0  0  0  0
    6.5282   -7.7693    2.3713 H   0  0  0  0  0  0  0  0  0  0  0  0
    5.6583   -6.4072    0.2377 H   0  0  0  0  0  0  0  0  0  0  0  0
    6.7314   -5.6299    1.4237 H   0  0  0  0  0  0  0  0  0  0  0  0
    2.8970   -7.2565    1.5845 H   0  0  0  0  0  0  0  0  0  0  0  0
  1  2  2  0
  2  3  1  0
  2  9  1  0
  3  8  1  0
  3  4  2  0
  4  5  1  0
  4 23  1  0
  5  6  2  0
  5 24  1  0
  6  7  1  0
  7  8  2  0
  8 25  1  0
  9 22  1  0
  9 10  1  0
 10 11  1  0
 10 26  1  0
 10 27  1  0
 11 21  1  0
 11 12  1  0
 11 28  1  1
 12 13  1  0
 12 29  1  0
 12 30  1  0
 13 14  1  0
 13 20  1  0
 13 40  1  6
 14 15  1  0
 14 31  1  0
 14 32  1  0
 15 19  1  0
 15 16  2  0
 16 17  1  0
 17 18  2  0
 17 33  1  0
 18 19  1  0
 18 34  1  0
 20 21  1  0
 20 35  1  0
 20 36  1  0
 21 22  1  0
 21 37  1  1
 22 38  1  0
 22 39  1  0
M  CHG  1  13   1
M  END
>  <i_m_ct_stereo_status>  (144) 
1

>  <s_m_source_file>  (144) 
/var/tmp/pbs.5076255.sched01/tmppnbbzaq8/41bb87crku.sdf

>  <i_m_source_file_index>  (144) 
16

>  <i_lp_mmshare_version>  (144) 
48012

>  <i_f3d_flags>  (144) 
0

>  <s_epik_input>  (144) 
W2NIXTFubltjSF1bY0hdYzFDKD1PKU4oW0NIMl0yKVtDSDJdW0NAQEhdKFtDQEBIXTIzKVtDSDJdTihbQ0gyXTMpW0NIMl1jNG5bY0hdW2NIXXM0

>  <s_epik_cmdline>  (144) 
J2VwaWtfcHl0aG9uJywgJy1waHQnLCAnMi4wJywgJy1waCcsICc3LjAnLCAnLXRuJywgJzgnLCAnLW1hJywgJzIwMCcsICctaW1hZScsICc8aW5maWxlLm1hZT4nLCAnLW9tYWUnLCAnPG91dGZpbGUubWFlPic=

>  <r_lp_tautomer_probability>  (144) 
1

>  <r_epik_Ionization_Penalty>  (144) 
0.504101

>  <r_epik_Ionization_Penalty_Charging>  (144) 
0.5041

>  <r_epik_Ionization_Penalty_Neutral>  (144) 
1.37005e-06

>  <r_epik_State_Penalty>  (144) 
0.510819

>  <r_epik_Charging_Adjusted_Penalty>  (144) 
1.01492

>  <i_epik_Tot_Q>  (144) 
1

>  <i_epik_Tot_abs_Q>  (144) 
1

>  <s_lp_Force_Field>  (144) 
OPLS3e

>  <r_lp_Energy>  (144) 
21.805

>  <b_lp_Chiralities_Consistent>  (144) 
1

>  <s_lp_Variant>  (144) 
41:0-3

>  <s_i_glide_gridfile>  (144) 
pfpi4k_grid

>  <i_i_glide_lignum>  (144) 
16

>  <i_i_glide_rotatable_bonds>  (144) 
4

>  <r_i_docking_score>  (144) 
-3.04197

>  <r_i_glide_ligand_efficiency>  (144) 
-0.138271

>  <r_i_glide_ligand_efficiency_sa>  (144) 
-0.387442

>  <r_i_glide_ligand_efficiency_ln>  (144) 
-0.743568

>  <r_i_glide_gscore>  (144) 
-3.04197

>  <r_i_glide_lipo>  (144) 
-0.277313

>  <r_i_glide_hbond>  (144) 
0

>  <r_i_glide_metal>  (144) 
-0

>  <r_i_glide_rewards>  (144) 
-1.78996

>  <r_i_glide_evdw>  (144) 
-29.8616

>  <r_i_glide_ecoul>  (144) 
-1.29795

>  <r_i_glide_erotb>  (144) 
0.743829

>  <r_i_glide_esite>  (144) 
-0.0307576

>  <r_i_glide_emodel>  (144) 
-40.8823

>  <r_i_glide_energy>  (144) 
-31.1596

>  <r_i_glide_einternal>  (144) 
5.04897

>  <r_i_glide_intrahb_reward>  (144) 
-0.5

>  <i_i_glide_confnum>  (144) 
2

>  <i_i_glide_posenum>  (144) 
19

>  <r_i_glide_eff_state_penalty>  (144) 
0

>  <ligand_id>  (144) 
41

>  <original_smiles>  (144) 
O=C(c1ccnnc1)N1CC2CN(Cc3nccs3)CC2C1

>  <smiles>  (144) 
[H]c1nc(C([H])([H])[N+]2([H])C([H])([H])C3([H])C([H])([H])N(C(=O)c4c([H])nnc([H])c4[H])C([H])([H])C3([H])C2([H])[H])sc1[H]

$$$$
41:2:2
     RDKit          3D

 40 43  0  0  1  0  0  0  0  0999 V2000
   -0.2604   -0.7522    4.0585 O   0  0  0  0  0  0  0  0  0  0  0  0
    0.7398   -1.3756    4.4280 C   0  0  0  0  0  0  0  0  0  0  0  0
    0.6647   -2.1909    5.6889 C   0  0  0  0  0  0  0  0  0  0  0  0
    1.7559   -2.4152    6.5609 C   0  0  0  0  0  0  0  0  0  0  0  0
    1.5087   -3.1286    7.7425 C   0  0  0  0  0  0  0  0  0  0  0  0
    0.2841   -3.6078    8.0741 N   0  0  0  0  0  0  0  0  0  0  0  0
   -0.7503   -3.4313    7.2449 N   0  0  0  0  0  0  0  0  0  0  0  0
   -0.5778   -2.7371    6.0957 C   0  0  0  0  0  0  0  0  0  0  0  0
    1.8438   -1.4546    3.6428 N   0  0  0  0  0  0  0  0  0  0  0  0
    1.8204   -1.1949    2.2006 C   0  0  0  0  0  0  0  0  0  0  0  0
    2.5349    0.1500    2.0109 C   0  0  1  0  0  0  0  0  0  0  0  0
    1.5844    1.3615    2.0531 C   0  0  0  0  0  0  0  0  0  0  0  0
    1.5577    1.8246    3.4566 N   0  0  2  0  0  0  0  0  0  0  0  0
    1.0964    3.2284    3.6664 C   0  0  0  0  0  0  0  0  0  0  0  0
   -0.3459    3.1468    4.0812 C   0  0  0  0  0  0  0  0  0  0  0  0
   -1.3583    2.8041    3.2747 N   0  0  0  0  0  0  0  0  0  0  0  0
   -2.6067    2.9312    3.8933 C   0  0  0  0  0  0  0  0  0  0  0  0
   -2.5280    3.3206    5.2063 C   0  0  0  0  0  0  0  0  0  0  0  0
   -0.8898    3.5958    5.7028 S   0  0  0  0  0  0  0  0  0  0  0  0
    2.9230    1.5615    3.9637 C   0  0  0  0  0  0  0  0  0  0  0  0
    3.4179    0.2859    3.2610 C   0  0  1  0  0  0  0  0  0  0  0  0
    3.1512   -0.9822    4.0737 C   0  0  0  0  0  0  0  0  0  0  0  0
    2.7657   -2.0687    6.3982 H   0  0  0  0  0  0  0  0  0  0  0  0
    2.3214   -3.2920    8.4377 H   0  0  0  0  0  0  0  0  0  0  0  0
   -1.4754   -2.6186    5.5087 H   0  0  0  0  0  0  0  0  0  0  0  0
    2.3917   -1.9849    1.7056 H   0  0  0  0  0  0  0  0  0  0  0  0
    0.8263   -1.1987    1.7513 H   0  0  0  0  0  0  0  0  0  0  0  0
    3.1291    0.1559    1.0930 H   0  0  0  0  0  0  0  0  0  0  0  0
    2.0318    2.1453    1.4458 H   0  0  0  0  0  0  0  0  0  0  0  0
    0.5895    1.1479    1.6546 H   0  0  0  0  0  0  0  0  0  0  0  0
    1.6576    3.7205    4.4629 H   0  0  0  0  0  0  0  0  0  0  0  0
    1.1923    3.8444    2.7831 H   0  0  0  0  0  0  0  0  0  0  0  0
   -3.5040    2.6866    3.3466 H   0  0  0  0  0  0  0  0  0  0  0  0
   -3.3372    3.4480    5.9024 H   0  0  0  0  0  0  0  0  0  0  0  0
    3.5686    2.3838    3.6690 H   0  0  0  0  0  0  0  0  0  0  0  0
    2.9522    1.5063    5.0537 H   0  0  0  0  0  0  0  0  0  0  0  0
    4.4846    0.3645    3.0322 H   0  0  0  0  0  0  0  0  0  0  0  0
    3.2289   -0.6845    5.1111 H   0  0  0  0  0  0  0  0  0  0  0  0
    3.8897   -1.7636    3.8536 H   0  0  0  0  0  0  0  0  0  0  0  0
    0.9163    1.2072    3.9475 H   0  0  0  0  0  0  0  0  0  0  0  0
  1  2  2  0
  2  3  1  0
  2  9  1  0
  3  8  1  0
  3  4  2  0
  4  5  1  0
  4 23  1  0
  5  6  2  0
  5 24  1  0
  6  7  1  0
  7  8  2  0
  8 25  1  0
  9 22  1  0
  9 10  1  0
 10 11  1  0
 10 26  1  0
 10 27  1  0
 11 21  1  0
 11 12  1  0
 11 28  1  6
 12 13  1  0
 12 29  1  0
 12 30  1  0
 13 14  1  0
 13 20  1  0
 13 40  1  1
 14 15  1  0
 14 31  1  0
 14 32  1  0
 15 19  1  0
 15 16  2  0
 16 17  1  0
 17 18  2  0
 17 33  1  0
 18 19  1  0
 18 34  1  0
 20 21  1  0
 20 35  1  0
 20 36  1  0
 21 22  1  0
 21 37  1  6
 22 38  1  0
 22 39  1  0
M  CHG  1  13   1
M  END
>  <i_m_ct_stereo_status>  (145) 
1

>  <s_m_source_file>  (145) 
/var/tmp/pbs.5076255.sched01/tmppnbbzaq8/41bb87crku.sdf

>  <i_m_source_file_index>  (145) 
16

>  <i_lp_mmshare_version>  (145) 
48012

>  <i_f3d_flags>  (145) 
0

>  <s_epik_input>  (145) 
W2NIXTFubltjSF1bY0hdYzFDKD1PKU4oW0NIMl0yKVtDSDJdW0NAQEhdKFtDQEBIXTIzKVtDSDJdTihbQ0gyXTMpW0NIMl1jNG5bY0hdW2NIXXM0

>  <s_epik_cmdline>  (145) 
J2VwaWtfcHl0aG9uJywgJy1waHQnLCAnMi4wJywgJy1waCcsICc3LjAnLCAnLXRuJywgJzgnLCAnLW1hJywgJzIwMCcsICctaW1hZScsICc8aW5maWxlLm1hZT4nLCAnLW9tYWUnLCAnPG91dGZpbGUubWFlPic=

>  <r_lp_tautomer_probability>  (145) 
1

>  <r_epik_Ionization_Penalty>  (145) 
0.504101

>  <r_epik_Ionization_Penalty_Charging>  (145) 
0.5041

>  <r_epik_Ionization_Penalty_Neutral>  (145) 
1.37005e-06

>  <r_epik_State_Penalty>  (145) 
0.510819

>  <r_epik_Charging_Adjusted_Penalty>  (145) 
1.01492

>  <i_epik_Tot_Q>  (145) 
1

>  <i_epik_Tot_abs_Q>  (145) 
1

>  <s_lp_Force_Field>  (145) 
OPLS3e

>  <r_lp_Energy>  (145) 
21.805

>  <b_lp_Chiralities_Consistent>  (145) 
1

>  <s_lp_Variant>  (145) 
41:0-3

>  <s_i_glide_gridfile>  (145) 
pfpi4k_grid

>  <i_i_glide_lignum>  (145) 
16

>  <i_i_glide_rotatable_bonds>  (145) 
4

>  <r_i_docking_score>  (145) 
-2.81898

>  <r_i_glide_ligand_efficiency>  (145) 
-0.128135

>  <r_i_glide_ligand_efficiency_sa>  (145) 
-0.35904

>  <r_i_glide_ligand_efficiency_ln>  (145) 
-0.689061

>  <r_i_glide_gscore>  (145) 
-2.81898

>  <r_i_glide_lipo>  (145) 
-0.000128378

>  <r_i_glide_hbond>  (145) 
0

>  <r_i_glide_metal>  (145) 
-0

>  <r_i_glide_rewards>  (145) 
-1.7518

>  <r_i_glide_evdw>  (145) 
-22.9356

>  <r_i_glide_ecoul>  (145) 
-3.79279

>  <r_i_glide_erotb>  (145) 
0.743829

>  <r_i_glide_esite>  (145) 
-0.0951804

>  <r_i_glide_emodel>  (145) 
-35.4122

>  <r_i_glide_energy>  (145) 
-26.7284

>  <r_i_glide_einternal>  (145) 
5.90951

>  <r_i_glide_intrahb_reward>  (145) 
-0.5

>  <i_i_glide_confnum>  (145) 
2

>  <i_i_glide_posenum>  (145) 
6

>  <r_i_glide_eff_state_penalty>  (145) 
0

>  <ligand_id>  (145) 
41

>  <original_smiles>  (145) 
O=C(c1ccnnc1)N1CC2CN(Cc3nccs3)CC2C1

>  <smiles>  (145) 
[H]c1nc(C([H])([H])[N+]2([H])C([H])([H])C3([H])C([H])([H])N(C(=O)c4c([H])nnc([H])c4[H])C([H])([H])C3([H])C2([H])[H])sc1[H]

$$$$
42:0:0
     RDKit          3D

 27 30  0  0  1  0  0  0  0  0999 V2000
   -1.3546   -8.9141    3.2188 C   0  0  0  0  0  0  0  0  0  0  0  0
   -1.3132   -7.6426    2.6219 C   0  0  0  0  0  0  0  0  0  0  0  0
   -0.2090   -7.0753    2.0841 N   0  0  0  0  0  0  0  0  0  0  0  0
    0.9176   -7.8584    2.1474 C   0  0  0  0  0  0  0  0  0  0  0  0
    1.0003   -9.1614    2.7244 C   0  0  0  0  0  0  0  0  0  0  0  0
   -0.1838   -9.6888    3.2755 C   0  0  0  0  0  0  0  0  0  0  0  0
    2.2768   -9.6835    2.6418 N   0  0  0  0  0  0  0  0  0  0  0  0
    2.9227   -8.6995    2.0210 C   0  0  0  0  0  0  0  0  0  0  0  0
    2.2164   -7.5927    1.6972 N   0  0  0  0  0  0  0  0  0  0  0  0
    2.7195   -6.4461    1.0434 C   0  0  0  0  0  0  0  0  0  0  0  0
    1.8919   -5.4524    0.5700 N   0  0  0  0  0  0  0  0  0  0  0  0
    2.8227   -4.6478    0.0765 C   0  0  0  0  0  0  0  0  0  0  0  0
    4.0398   -5.1007    0.1892 N   0  0  0  0  0  0  0  0  0  0  0  0
    4.0360   -6.2883    0.8204 N   0  0  0  0  0  0  0  0  0  0  0  0
    5.1057   -4.3073   -0.3427 C   0  0  0  0  0  0  0  0  0  0  0  0
    4.3573   -2.9655   -0.5652 C   0  0  0  0  0  0  0  0  0  0  0  0
    2.8442   -3.3325   -0.6018 C   0  0  0  0  0  0  0  0  0  0  0  0
   -2.2677   -9.3071    3.6441 H   0  0  0  0  0  0  0  0  0  0  0  0
   -2.2161   -7.0557    2.5805 H   0  0  0  0  0  0  0  0  0  0  0  0
   -0.1846  -10.6635    3.7401 H   0  0  0  0  0  0  0  0  0  0  0  0
    3.9765   -8.7951    1.7910 H   0  0  0  0  0  0  0  0  0  0  0  0
    5.9446   -4.2489    0.3499 H   0  0  0  0  0  0  0  0  0  0  0  0
    5.4204   -4.7402   -1.2919 H   0  0  0  0  0  0  0  0  0  0  0  0
    4.5275   -2.3455    0.3177 H   0  0  0  0  0  0  0  0  0  0  0  0
    4.6966   -2.3965   -1.4336 H   0  0  0  0  0  0  0  0  0  0  0  0
    2.5007   -3.4601   -1.6297 H   0  0  0  0  0  0  0  0  0  0  0  0
    2.2155   -2.6134   -0.0810 H   0  0  0  0  0  0  0  0  0  0  0  0
  1  6  2  0
  1  2  1  0
  1 18  1  0
  2  3  2  0
  2 19  1  0
  3  4  1  0
  4  9  1  0
  4  5  2  0
  5  6  1  0
  5  7  1  0
  6 20  1  0
  7  8  2  0
  8  9  1  0
  8 21  1  0
  9 10  1  0
 10 14  2  0
 10 11  1  0
 11 12  2  0
 12 17  1  0
 12 13  1  0
 13 14  1  0
 13 15  1  0
 15 16  1  0
 15 22  1  0
 15 23  1  0
 16 17  1  0
 16 24  1  0
 16 25  1  0
 17 26  1  0
 17 27  1  0
M  END
>  <i_m_ct_stereo_status>  (146) 
1

>  <s_m_source_file>  (146) 
/var/tmp/pbs.5076255.sched01/tmppnbbzaq8/41bb87crku.sdf

>  <i_m_source_file_index>  (146) 
17

>  <i_lp_mmshare_version>  (146) 
48012

>  <i_f3d_flags>  (146) 
0

>  <s_epik_input>  (146) 
bjFbY0hdW2NIXVtjSF1jKGMxMiluW2NIXW4yLWMobjMpbm4oYzM0KVtDSDJdW0NIMl1bQ0gyXTQ=

>  <s_epik_cmdline>  (146) 
J2VwaWtfcHl0aG9uJywgJy1waHQnLCAnMi4wJywgJy1waCcsICc3LjAnLCAnLXRuJywgJzgnLCAnLW1hJywgJzIwMCcsICctaW1hZScsICc8aW5maWxlLm1hZT4nLCAnLW9tYWUnLCAnPG91dGZpbGUubWFlPic=

>  <r_lp_tautomer_probability>  (146) 
1

>  <r_epik_Ionization_Penalty>  (146) 
7.25729e-06

>  <r_epik_Ionization_Penalty_Charging>  (146) 
6.98037e-06

>  <r_epik_Ionization_Penalty_Neutral>  (146) 
2.76915e-07

>  <r_epik_State_Penalty>  (146) 
-0

>  <r_epik_Charging_Adjusted_Penalty>  (146) 
6.98037e-06

>  <i_epik_Tot_Q>  (146) 
0

>  <i_epik_Tot_abs_Q>  (146) 
0

>  <s_lp_Force_Field>  (146) 
OPLS3e

>  <r_lp_Energy>  (146) 
25.6352

>  <b_lp_Chiralities_Consistent>  (146) 
1

>  <s_lp_Variant>  (146) 
42:0-1

>  <s_i_glide_gridfile>  (146) 
pfpi4k_grid

>  <i_i_glide_lignum>  (146) 
17

>  <i_i_glide_rotatable_bonds>  (146) 
1

>  <r_i_docking_score>  (146) 
-3.68949

>  <r_i_glide_ligand_efficiency>  (146) 
-0.217029

>  <r_i_glide_ligand_efficiency_sa>  (146) 
-0.558042

>  <r_i_glide_ligand_efficiency_ln>  (146) 
-0.962505

>  <r_i_glide_gscore>  (146) 
-3.68949

>  <r_i_glide_lipo>  (146) 
-0.0778289

>  <r_i_glide_hbond>  (146) 
-0.138826

>  <r_i_glide_metal>  (146) 
-0

>  <r_i_glide_rewards>  (146) 
-1.86656

>  <r_i_glide_evdw>  (146) 
-23.3472

>  <r_i_glide_ecoul>  (146) 
-4.32226

>  <r_i_glide_erotb>  (146) 
0.331947

>  <r_i_glide_esite>  (146) 
-0.122516

>  <r_i_glide_emodel>  (146) 
-34.3748

>  <r_i_glide_energy>  (146) 
-27.6694

>  <r_i_glide_einternal>  (146) 
0.0490342

>  <r_i_glide_intrahb_reward>  (146) 
-0

>  <i_i_glide_confnum>  (146) 
2

>  <i_i_glide_posenum>  (146) 
10

>  <r_i_glide_eff_state_penalty>  (146) 
0

>  <ligand_id>  (146) 
42

>  <original_smiles>  (146) 
c1cnc2c(c1)ncn2-c1nc2n(n1)CCC2

>  <smiles>  (146) 
[H]c1nc2c(nc([H])n2-c2nc3n(n2)C([H])([H])C([H])([H])C3([H])[H])c([H])c1[H]

$$$$
42:0:1
     RDKit          3D

 27 30  0  0  1  0  0  0  0  0999 V2000
    3.9582   -2.8119   -1.3306 C   0  0  0  0  0  0  0  0  0  0  0  0
    2.6387   -3.2358   -1.0751 C   0  0  0  0  0  0  0  0  0  0  0  0
    2.3030   -4.3059   -0.3185 N   0  0  0  0  0  0  0  0  0  0  0  0
    3.3664   -5.0070    0.1798 C   0  0  0  0  0  0  0  0  0  0  0  0
    4.7424   -4.6866   -0.0164 C   0  0  0  0  0  0  0  0  0  0  0  0
    5.0317   -3.5468   -0.7947 C   0  0  0  0  0  0  0  0  0  0  0  0
    5.5723   -5.5882    0.6180 N   0  0  0  0  0  0  0  0  0  0  0  0
    4.6878   -6.4207    1.1627 C   0  0  0  0  0  0  0  0  0  0  0  0
    3.3768   -6.1653    0.9646 N   0  0  0  0  0  0  0  0  0  0  0  0
    2.2950   -6.9393    1.4545 C   0  0  0  0  0  0  0  0  0  0  0  0
    2.5369   -8.1411    2.0906 N   0  0  0  0  0  0  0  0  0  0  0  0
    1.2865   -8.4841    2.3496 C   0  0  0  0  0  0  0  0  0  0  0  0
    0.4015   -7.6164    1.9454 N   0  0  0  0  0  0  0  0  0  0  0  0
    1.0034   -6.5763    1.3358 N   0  0  0  0  0  0  0  0  0  0  0  0
   -0.9740   -7.9005    2.2060 C   0  0  0  0  0  0  0  0  0  0  0  0
   -0.8254   -9.0583    3.2242 C   0  0  0  0  0  0  0  0  0  0  0  0
    0.6134   -9.6160    3.0278 C   0  0  0  0  0  0  0  0  0  0  0  0
    4.1266   -1.9295   -1.9315 H   0  0  0  0  0  0  0  0  0  0  0  0
    1.8188   -2.6745   -1.5002 H   0  0  0  0  0  0  0  0  0  0  0  0
    6.0532   -3.2532   -0.9728 H   0  0  0  0  0  0  0  0  0  0  0  0
    5.0182   -7.2671    1.7480 H   0  0  0  0  0  0  0  0  0  0  0  0
   -1.5052   -7.0313    2.5869 H   0  0  0  0  0  0  0  0  0  0  0  0
   -1.4224   -8.2542    1.2793 H   0  0  0  0  0  0  0  0  0  0  0  0
   -0.8801   -8.6241    4.2245 H   0  0  0  0  0  0  0  0  0  0  0  0
   -1.6050   -9.8186    3.1540 H   0  0  0  0  0  0  0  0  0  0  0  0
    0.6041  -10.4742    2.3542 H   0  0  0  0  0  0  0  0  0  0  0  0
    1.1077   -9.8820    3.9635 H   0  0  0  0  0  0  0  0  0  0  0  0
  1  6  2  0
  1  2  1  0
  1 18  1  0
  2  3  2  0
  2 19  1  0
  3  4  1  0
  4  9  1  0
  4  5  2  0
  5  6  1  0
  5  7  1  0
  6 20  1  0
  7  8  2  0
  8  9  1  0
  8 21  1  0
  9 10  1  0
 10 14  2  0
 10 11  1  0
 11 12  2  0
 12 17  1  0
 12 13  1  0
 13 14  1  0
 13 15  1  0
 15 16  1  0
 15 22  1  0
 15 23  1  0
 16 17  1  0
 16 24  1  0
 16 25  1  0
 17 26  1  0
 17 27  1  0
M  END
>  <i_m_ct_stereo_status>  (147) 
1

>  <s_m_source_file>  (147) 
/var/tmp/pbs.5076255.sched01/tmppnbbzaq8/41bb87crku.sdf

>  <i_m_source_file_index>  (147) 
17

>  <i_lp_mmshare_version>  (147) 
48012

>  <i_f3d_flags>  (147) 
0

>  <s_epik_input>  (147) 
bjFbY0hdW2NIXVtjSF1jKGMxMiluW2NIXW4yLWMobjMpbm4oYzM0KVtDSDJdW0NIMl1bQ0gyXTQ=

>  <s_epik_cmdline>  (147) 
J2VwaWtfcHl0aG9uJywgJy1waHQnLCAnMi4wJywgJy1waCcsICc3LjAnLCAnLXRuJywgJzgnLCAnLW1hJywgJzIwMCcsICctaW1hZScsICc8aW5maWxlLm1hZT4nLCAnLW9tYWUnLCAnPG91dGZpbGUubWFlPic=

>  <r_lp_tautomer_probability>  (147) 
1

>  <r_epik_Ionization_Penalty>  (147) 
7.25729e-06

>  <r_epik_Ionization_Penalty_Charging>  (147) 
6.98037e-06

>  <r_epik_Ionization_Penalty_Neutral>  (147) 
2.76915e-07

>  <r_epik_State_Penalty>  (147) 
-0

>  <r_epik_Charging_Adjusted_Penalty>  (147) 
6.98037e-06

>  <i_epik_Tot_Q>  (147) 
0

>  <i_epik_Tot_abs_Q>  (147) 
0

>  <s_lp_Force_Field>  (147) 
OPLS3e

>  <r_lp_Energy>  (147) 
25.6352

>  <b_lp_Chiralities_Consistent>  (147) 
1

>  <s_lp_Variant>  (147) 
42:0-1

>  <s_i_glide_gridfile>  (147) 
pfpi4k_grid

>  <i_i_glide_lignum>  (147) 
17

>  <i_i_glide_rotatable_bonds>  (147) 
1

>  <r_i_docking_score>  (147) 
-3.52519

>  <r_i_glide_ligand_efficiency>  (147) 
-0.207364

>  <r_i_glide_ligand_efficiency_sa>  (147) 
-0.533192

>  <r_i_glide_ligand_efficiency_ln>  (147) 
-0.919644

>  <r_i_glide_gscore>  (147) 
-3.52519

>  <r_i_glide_lipo>  (147) 
-0.0668047

>  <r_i_glide_hbond>  (147) 
-0.0565225

>  <r_i_glide_metal>  (147) 
-0

>  <r_i_glide_rewards>  (147) 
-2.02383

>  <r_i_glide_evdw>  (147) 
-22.7809

>  <r_i_glide_ecoul>  (147) 
-3.01809

>  <r_i_glide_erotb>  (147) 
0.331947

>  <r_i_glide_esite>  (147) 
-0.118215

>  <r_i_glide_emodel>  (147) 
-32.1581

>  <r_i_glide_energy>  (147) 
-25.799

>  <r_i_glide_einternal>  (147) 
0.0292718

>  <r_i_glide_intrahb_reward>  (147) 
-0

>  <i_i_glide_confnum>  (147) 
3

>  <i_i_glide_posenum>  (147) 
40

>  <r_i_glide_eff_state_penalty>  (147) 
0

>  <ligand_id>  (147) 
42

>  <original_smiles>  (147) 
c1cnc2c(c1)ncn2-c1nc2n(n1)CCC2

>  <smiles>  (147) 
[H]c1nc2c(nc([H])n2-c2nc3n(n2)C([H])([H])C([H])([H])C3([H])[H])c([H])c1[H]

$$$$
42:0:2
     RDKit          3D

 27 30  0  0  1  0  0  0  0  0999 V2000
    3.9647   -2.8020   -1.4308 C   0  0  0  0  0  0  0  0  0  0  0  0
    2.6600   -3.2221   -1.1054 C   0  0  0  0  0  0  0  0  0  0  0  0
    2.3630   -4.2828   -0.3223 N   0  0  0  0  0  0  0  0  0  0  0  0
    3.4492   -4.9743    0.1400 C   0  0  0  0  0  0  0  0  0  0  0  0
    4.8135   -4.6559   -0.1230 C   0  0  0  0  0  0  0  0  0  0  0  0
    5.0626   -3.5287   -0.9353 C   0  0  0  0  0  0  0  0  0  0  0  0
    5.6757   -5.5450    0.4902 N   0  0  0  0  0  0  0  0  0  0  0  0
    4.8173   -6.3701    1.0902 C   0  0  0  0  0  0  0  0  0  0  0  0
    3.4961   -6.1160    0.9482 N   0  0  0  0  0  0  0  0  0  0  0  0
    2.4297   -6.8642    1.5089 C   0  0  0  0  0  0  0  0  0  0  0  0
    1.1059   -6.4699    1.4335 N   0  0  0  0  0  0  0  0  0  0  0  0
    0.5692   -7.4869    2.0904 C   0  0  0  0  0  0  0  0  0  0  0  0
    1.4252   -8.3778    2.5053 N   0  0  0  0  0  0  0  0  0  0  0  0
    2.6728   -8.0154    2.1601 N   0  0  0  0  0  0  0  0  0  0  0  0
    0.9236   -9.5176    3.2179 C   0  0  0  0  0  0  0  0  0  0  0  0
   -0.5874   -9.3745    2.8941 C   0  0  0  0  0  0  0  0  0  0  0  0
   -0.7974   -7.8943    2.4794 C   0  0  0  0  0  0  0  0  0  0  0  0
    4.1017   -1.9312   -2.0547 H   0  0  0  0  0  0  0  0  0  0  0  0
    1.8208   -2.6693   -1.4992 H   0  0  0  0  0  0  0  0  0  0  0  0
    6.0733   -3.2395   -1.1680 H   0  0  0  0  0  0  0  0  0  0  0  0
    5.1821   -7.2031    1.6776 H   0  0  0  0  0  0  0  0  0  0  0  0
    1.3712  -10.4472    2.8658 H   0  0  0  0  0  0  0  0  0  0  0  0
    1.1178   -9.3805    4.2826 H   0  0  0  0  0  0  0  0  0  0  0  0
   -0.8017  -10.0059    2.0310 H   0  0  0  0  0  0  0  0  0  0  0  0
   -1.2604   -9.6878    3.6825 H   0  0  0  0  0  0  0  0  0  0  0  0
   -1.1142   -7.2849    3.3266 H   0  0  0  0  0  0  0  0  0  0  0  0
   -1.4963   -7.7901    1.6575 H   0  0  0  0  0  0  0  0  0  0  0  0
  1  6  2  0
  1  2  1  0
  1 18  1  0
  2  3  2  0
  2 19  1  0
  3  4  1  0
  4  9  1  0
  4  5  2  0
  5  6  1  0
  5  7  1  0
  6 20  1  0
  7  8  2  0
  8  9  1  0
  8 21  1  0
  9 10  1  0
 10 14  2  0
 10 11  1  0
 11 12  2  0
 12 17  1  0
 12 13  1  0
 13 14  1  0
 13 15  1  0
 15 16  1  0
 15 22  1  0
 15 23  1  0
 16 17  1  0
 16 24  1  0
 16 25  1  0
 17 26  1  0
 17 27  1  0
M  END
>  <i_m_ct_stereo_status>  (148) 
1

>  <s_m_source_file>  (148) 
/var/tmp/pbs.5076255.sched01/tmppnbbzaq8/41bb87crku.sdf

>  <i_m_source_file_index>  (148) 
17

>  <i_lp_mmshare_version>  (148) 
48012

>  <i_f3d_flags>  (148) 
0

>  <s_epik_input>  (148) 
bjFbY0hdW2NIXVtjSF1jKGMxMiluW2NIXW4yLWMobjMpbm4oYzM0KVtDSDJdW0NIMl1bQ0gyXTQ=

>  <s_epik_cmdline>  (148) 
J2VwaWtfcHl0aG9uJywgJy1waHQnLCAnMi4wJywgJy1waCcsICc3LjAnLCAnLXRuJywgJzgnLCAnLW1hJywgJzIwMCcsICctaW1hZScsICc8aW5maWxlLm1hZT4nLCAnLW9tYWUnLCAnPG91dGZpbGUubWFlPic=

>  <r_lp_tautomer_probability>  (148) 
1

>  <r_epik_Ionization_Penalty>  (148) 
7.25729e-06

>  <r_epik_Ionization_Penalty_Charging>  (148) 
6.98037e-06

>  <r_epik_Ionization_Penalty_Neutral>  (148) 
2.76915e-07

>  <r_epik_State_Penalty>  (148) 
-0

>  <r_epik_Charging_Adjusted_Penalty>  (148) 
6.98037e-06

>  <i_epik_Tot_Q>  (148) 
0

>  <i_epik_Tot_abs_Q>  (148) 
0

>  <s_lp_Force_Field>  (148) 
OPLS3e

>  <r_lp_Energy>  (148) 
25.6352

>  <b_lp_Chiralities_Consistent>  (148) 
1

>  <s_lp_Variant>  (148) 
42:0-1

>  <s_i_glide_gridfile>  (148) 
pfpi4k_grid

>  <i_i_glide_lignum>  (148) 
17

>  <i_i_glide_rotatable_bonds>  (148) 
1

>  <r_i_docking_score>  (148) 
-3.52144

>  <r_i_glide_ligand_efficiency>  (148) 
-0.207143

>  <r_i_glide_ligand_efficiency_sa>  (148) 
-0.532624

>  <r_i_glide_ligand_efficiency_ln>  (148) 
-0.918665

>  <r_i_glide_gscore>  (148) 
-3.52144

>  <r_i_glide_lipo>  (148) 
-0.0667247

>  <r_i_glide_hbond>  (148) 
-0.0599367

>  <r_i_glide_metal>  (148) 
-0

>  <r_i_glide_rewards>  (148) 
-2.04479

>  <r_i_glide_evdw>  (148) 
-21.9666

>  <r_i_glide_ecoul>  (148) 
-3.18806

>  <r_i_glide_erotb>  (148) 
0.331947

>  <r_i_glide_esite>  (148) 
-0.105391

>  <r_i_glide_emodel>  (148) 
-31.5173

>  <r_i_glide_energy>  (148) 
-25.1547

>  <r_i_glide_einternal>  (148) 
0.0414915

>  <r_i_glide_intrahb_reward>  (148) 
-0

>  <i_i_glide_confnum>  (148) 
2

>  <i_i_glide_posenum>  (148) 
24

>  <r_i_glide_eff_state_penalty>  (148) 
0

>  <ligand_id>  (148) 
42

>  <original_smiles>  (148) 
c1cnc2c(c1)ncn2-c1nc2n(n1)CCC2

>  <smiles>  (148) 
[H]c1nc2c(nc([H])n2-c2nc3n(n2)C([H])([H])C([H])([H])C3([H])[H])c([H])c1[H]

$$$$
44:0:0
     RDKit          3D

 66 71  0  0  1  0  0  0  0  0999 V2000
    4.4928   -4.5761    5.5624 C   0  0  0  0  0  0  0  0  0  0  0  0
    3.1913   -5.1960    5.0755 C   0  0  0  0  0  0  0  0  0  0  0  0
    2.2680   -5.7731    5.8568 C   0  0  0  0  0  0  0  0  0  0  0  0
    2.2020   -6.0466    7.3486 C   0  0  0  0  0  0  0  0  0  0  0  0
    1.8544   -7.5383    7.6056 C   0  0  0  0  0  0  0  0  0  0  0  0
    0.6842   -8.0666    6.7354 C   0  0  0  0  0  0  0  0  0  0  0  0
    0.9341   -7.7886    5.2424 C   0  0  1  0  0  0  0  0  0  0  0  0
   -0.1653   -8.1797    4.2342 C   0  0  0  0  0  0  0  0  0  0  0  0
    0.0525   -7.6318    2.8678 N   0  0  0  0  0  0  0  0  0  0  0  0
   -0.8132   -8.2582    1.8706 C   0  0  0  0  0  0  0  0  0  0  0  0
    0.8997   -6.6016    2.5316 C   0  0  0  0  0  0  0  0  0  0  0  0
    0.9832   -6.1690    1.3810 O   0  0  0  0  0  0  0  0  0  0  0  0
    1.6176   -6.0443    3.6707 C   0  0  0  0  0  0  0  0  0  0  0  0
    2.7769   -5.3518    3.6841 C   0  0  0  0  0  0  0  0  0  0  0  0
    3.6076   -4.9367    2.4802 C   0  0  0  0  0  0  0  0  0  0  0  0
    3.4325   -3.4335    2.1608 C   0  0  0  0  0  0  0  0  0  0  0  0
    4.6211   -2.7666    1.4309 C   0  0  2  0  0  0  0  0  0  0  0  0
    5.8604   -2.6483    2.3396 C   0  0  0  0  0  0  0  0  0  0  0  0
    5.6749   -1.3606    3.1896 C   0  0  0  0  0  0  0  0  0  0  0  0
    4.5746   -0.5567    2.5049 C   0  0  0  0  0  0  0  0  0  0  0  0
    4.3441   -1.2941    1.2167 C   0  0  0  0  0  0  0  0  0  0  0  0
    4.1738   -0.7220    0.0215 C   0  0  0  0  0  0  0  0  0  0  0  0
    4.1692   -1.5006   -1.2106 C   0  0  0  0  0  0  0  0  0  0  0  0
    4.5232   -2.8115   -1.1868 C   0  0  0  0  0  0  0  0  0  0  0  0
    4.5251   -3.6913   -2.4261 C   0  0  0  0  0  0  0  0  0  0  0  0
    4.6592   -2.8878   -3.7112 C   0  0  0  0  0  0  0  0  0  0  0  0
    3.6378   -1.7554   -3.7435 C   0  0  0  0  0  0  0  0  0  0  0  0
    3.8019   -0.8248   -2.5324 C   0  0  0  0  0  0  0  0  0  0  0  0
    4.9402   -3.4660    0.0831 C   0  0  0  0  0  0  0  0  0  0  0  0
    5.5467   -4.5310    0.1025 O   0  0  0  0  0  0  0  0  0  0  0  0
    1.1295   -6.3068    5.0548 C   0  0  2  0  0  0  0  0  0  0  0  0
    5.2989   -4.7267    4.8439 H   0  0  0  0  0  0  0  0  0  0  0  0
    4.8244   -5.0155    6.5033 H   0  0  0  0  0  0  0  0  0  0  0  0
    4.3713   -3.5032    5.7111 H   0  0  0  0  0  0  0  0  0  0  0  0
    3.1247   -5.7601    7.8487 H   0  0  0  0  0  0  0  0  0  0  0  0
    1.4081   -5.4158    7.7549 H   0  0  0  0  0  0  0  0  0  0  0  0
    2.7375   -8.1457    7.3984 H   0  0  0  0  0  0  0  0  0  0  0  0
    1.6136   -7.6868    8.6616 H   0  0  0  0  0  0  0  0  0  0  0  0
    0.5230   -9.1306    6.9086 H   0  0  0  0  0  0  0  0  0  0  0  0
   -0.2020   -7.5357    7.0513 H   0  0  0  0  0  0  0  0  0  0  0  0
    1.8442   -8.3222    4.9644 H   0  0  0  0  0  0  0  0  0  0  0  0
   -0.2021   -9.2685    4.1807 H   0  0  0  0  0  0  0  0  0  0  0  0
   -1.1408   -7.8476    4.5893 H   0  0  0  0  0  0  0  0  0  0  0  0
   -0.7437   -7.8154    0.8746 H   0  0  0  0  0  0  0  0  0  0  0  0
   -1.8561   -8.2020    2.1798 H   0  0  0  0  0  0  0  0  0  0  0  0
   -0.5534   -9.3137    1.7671 H   0  0  0  0  0  0  0  0  0  0  0  0
    4.6371   -5.1804    2.7117 H   0  0  0  0  0  0  0  0  0  0  0  0
    3.3820   -5.5307    1.6019 H   0  0  0  0  0  0  0  0  0  0  0  0
    2.5256   -3.3049    1.5648 H   0  0  0  0  0  0  0  0  0  0  0  0
    3.2459   -2.9032    3.0918 H   0  0  0  0  0  0  0  0  0  0  0  0
    6.0348   -3.5220    2.9591 H   0  0  0  0  0  0  0  0  0  0  0  0
    6.7465   -2.5229    1.7194 H   0  0  0  0  0  0  0  0  0  0  0  0
    5.3856   -1.6145    4.2081 H   0  0  0  0  0  0  0  0  0  0  0  0
    6.5831   -0.7578    3.2320 H   0  0  0  0  0  0  0  0  0  0  0  0
    3.6608   -0.5912    3.1001 H   0  0  0  0  0  0  0  0  0  0  0  0
    4.8364    0.4897    2.3552 H   0  0  0  0  0  0  0  0  0  0  0  0
    4.1457    0.3573    0.0182 H   0  0  0  0  0  0  0  0  0  0  0  0
    5.3184   -4.4351   -2.3906 H   0  0  0  0  0  0  0  0  0  0  0  0
    3.5751   -4.2147   -2.4429 H   0  0  0  0  0  0  0  0  0  0  0  0
    5.6586   -2.4720   -3.6899 H   0  0  0  0  0  0  0  0  0  0  0  0
    4.5599   -3.5317   -4.5899 H   0  0  0  0  0  0  0  0  0  0  0  0
    3.7149   -1.1785   -4.6662 H   0  0  0  0  0  0  0  0  0  0  0  0
    2.6306   -2.1790   -3.7302 H   0  0  0  0  0  0  0  0  0  0  0  0
    2.8427   -0.3270   -2.4085 H   0  0  0  0  0  0  0  0  0  0  0  0
    4.5847   -0.0884   -2.7347 H   0  0  0  0  0  0  0  0  0  0  0  0
    0.2132   -5.7407    5.2619 H   0  0  0  0  0  0  0  0  0  0  0  0
  1  2  1  0
  1 32  1  0
  1 33  1  0
  1 34  1  0
  2 14  1  0
  2  3  2  0
  3 31  1  0
  3  4  1  0
  4  5  1  0
  4 35  1  0
  4 36  1  0
  5  6  1  0
  5 37  1  0
  5 38  1  0
  6  7  1  0
  6 39  1  0
  6 40  1  0
  7 31  1  0
  7  8  1  0
  7 41  1  6
  8  9  1  0
  8 42  1  0
  8 43  1  0
  9 10  1  0
  9 11  1  0
 10 44  1  0
 10 45  1  0
 10 46  1  0
 11 12  2  0
 11 13  1  0
 13 14  2  0
 13 31  1  0
 14 15  1  0
 15 16  1  0
 15 47  1  0
 15 48  1  0
 17 16  1  1
 16 49  1  0
 16 50  1  0
 17 21  1  0
 17 29  1  0
 17 18  1  0
 18 19  1  0
 18 51  1  0
 18 52  1  0
 19 20  1  0
 19 53  1  0
 19 54  1  0
 20 21  1  0
 20 55  1  0
 20 56  1  0
 21 22  2  0
 22 23  1  0
 22 57  1  0
 23 28  1  0
 23 24  2  0
 24 25  1  0
 24 29  1  0
 25 26  1  0
 25 58  1  0
 25 59  1  0
 26 27  1  0
 26 60  1  0
 26 61  1  0
 27 28  1  0
 27 62  1  0
 27 63  1  0
 28 64  1  0
 28 65  1  0
 29 30  2  0
 31 66  1  1
M  END
>  <i_m_ct_stereo_status>  (149) 
1

>  <s_m_source_file>  (149) 
/var/tmp/pbs.5076255.sched01/tmppnbbzaq8/41bb87crku.sdf

>  <i_m_source_file_index>  (149) 
19

>  <i_lp_mmshare_version>  (149) 
48012

>  <i_f3d_flags>  (149) 
0

>  <s_epik_input>  (149) 
W0NIMl0xW0NIMl1bQ0gyXVtDQEhdKFtDQEhdMkMxMylbQ0gyXU4oW0NIM10pQyg9TylDMj1DKEM9M1tDSDNdKVtDSDJdW0NIMl1bQ0BAXTQ1QyhbQ0gyXVtDSDJdW0NIMl00KT1bQ0hdQzY9QyhDNT1PKVtDSDJdW0NIMl1bQ0gyXVtDSDJdNg==

>  <s_epik_cmdline>  (149) 
J2VwaWtfcHl0aG9uJywgJy1waHQnLCAnMi4wJywgJy1waCcsICc3LjAnLCAnLXRuJywgJzgnLCAnLW1hJywgJzIwMCcsICctaW1hZScsICc8aW5maWxlLm1hZT4nLCAnLW9tYWUnLCAnPG91dGZpbGUubWFlPic=

>  <r_lp_tautomer_probability>  (149) 
1

>  <r_epik_Ionization_Penalty>  (149) 
1.06011e-05

>  <r_epik_Ionization_Penalty_Charging>  (149) 
0

>  <r_epik_Ionization_Penalty_Neutral>  (149) 
1.06011e-05

>  <r_epik_State_Penalty>  (149) 
-0

>  <r_epik_Charging_Adjusted_Penalty>  (149) 
0

>  <i_epik_Tot_Q>  (149) 
0

>  <i_epik_Tot_abs_Q>  (149) 
0

>  <s_lp_Force_Field>  (149) 
OPLS3e

>  <r_lp_Energy>  (149) 
53.7499

>  <b_lp_Chiralities_Consistent>  (149) 
1

>  <s_lp_Variant>  (149) 
44:0-1

>  <s_i_glide_gridfile>  (149) 
pfpi4k_grid

>  <i_i_glide_lignum>  (149) 
19

>  <i_i_glide_rotatable_bonds>  (149) 
3

>  <r_i_docking_score>  (149) 
-2.69702

>  <r_i_glide_ligand_efficiency>  (149) 
-0.0870007

>  <r_i_glide_ligand_efficiency_sa>  (149) 
-0.273302

>  <r_i_glide_ligand_efficiency_ln>  (149) 
-0.608261

>  <r_i_glide_gscore>  (149) 
-2.69702

>  <r_i_glide_lipo>  (149) 
-0.499261

>  <r_i_glide_hbond>  (149) 
-0.16

>  <r_i_glide_metal>  (149) 
-0

>  <r_i_glide_rewards>  (149) 
-0.614362

>  <r_i_glide_evdw>  (149) 
-24.626

>  <r_i_glide_ecoul>  (149) 
-2.87251

>  <r_i_glide_erotb>  (149) 
0.340067

>  <r_i_glide_esite>  (149) 
-0.101288

>  <r_i_glide_emodel>  (149) 
-30.9819

>  <r_i_glide_energy>  (149) 
-27.4986

>  <r_i_glide_einternal>  (149) 
2.12954

>  <r_i_glide_intrahb_reward>  (149) 
-0

>  <i_i_glide_confnum>  (149) 
4

>  <i_i_glide_posenum>  (149) 
6

>  <r_i_glide_eff_state_penalty>  (149) 
0

>  <ligand_id>  (149) 
44

>  <original_smiles>  (149) 
CC1=C2CCCC3CN(C)C(=O)C(=C1CCC14CCCC1=CC1=C(CCCC1)C4=O)C23

>  <smiles>  (149) 
[H]C1=C2C([H])([H])C([H])([H])C([H])([H])C2(C([H])([H])C([H])([H])C2=C3C(=O)N(C([H])([H])[H])C([H])([H])C4([H])C3([H])C(=C2C([H])([H])[H])C([H])([H])C([H])([H])C4([H])[H])C(=O)C2=C1C([H])([H])C([H])([H])C([H])([H])C2([H])[H]

$$$$
44:0:1
     RDKit          3D

 66 71  0  0  1  0  0  0  0  0999 V2000
    8.2672   -7.3810    3.4462 C   0  0  0  0  0  0  0  0  0  0  0  0
    7.3146   -6.7419    2.4500 C   0  0  0  0  0  0  0  0  0  0  0  0
    7.6666   -5.9771    1.4015 C   0  0  0  0  0  0  0  0  0  0  0  0
    9.0060   -5.4806    0.8915 C   0  0  0  0  0  0  0  0  0  0  0  0
    8.9526   -3.9428    0.6607 C   0  0  0  0  0  0  0  0  0  0  0  0
    7.6906   -3.4637   -0.0996 C   0  0  0  0  0  0  0  0  0  0  0  0
    6.4193   -3.9715    0.5975 C   0  0  1  0  0  0  0  0  0  0  0  0
    5.0736   -3.6330   -0.0652 C   0  0  0  0  0  0  0  0  0  0  0  0
    3.9326   -4.4036    0.4969 N   0  0  0  0  0  0  0  0  0  0  0  0
    2.6403   -3.8472    0.0852 C   0  0  0  0  0  0  0  0  0  0  0  0
    4.0125   -5.5310    1.2734 C   0  0  0  0  0  0  0  0  0  0  0  0
    3.0122   -6.1107    1.7000 O   0  0  0  0  0  0  0  0  0  0  0  0
    5.3818   -5.9850    1.5232 C   0  0  0  0  0  0  0  0  0  0  0  0
    5.8571   -6.7654    2.5168 C   0  0  0  0  0  0  0  0  0  0  0  0
    5.0449   -7.4015    3.6276 C   0  0  0  0  0  0  0  0  0  0  0  0
    4.3376   -8.6943    3.1639 C   0  0  0  0  0  0  0  0  0  0  0  0
    3.2758   -9.2825    4.1336 C   0  0  2  0  0  0  0  0  0  0  0  0
    3.9364   -9.9892    5.3385 C   0  0  0  0  0  0  0  0  0  0  0  0
    4.2764  -11.4255    4.8732 C   0  0  0  0  0  0  0  0  0  0  0  0
    3.4845  -11.6677    3.5804 C   0  0  0  0  0  0  0  0  0  0  0  0
    2.5740  -10.4639    3.4940 C   0  0  0  0  0  0  0  0  0  0  0  0
    1.2905  -10.4648    3.0901 C   0  0  0  0  0  0  0  0  0  0  0  0
    0.4566   -9.2781    3.2353 C   0  0  0  0  0  0  0  0  0  0  0  0
    0.9065   -8.1916    3.9164 C   0  0  0  0  0  0  0  0  0  0  0  0
    0.0827   -6.9217    4.1008 C   0  0  0  0  0  0  0  0  0  0  0  0
   -1.4176   -7.1955    4.0032 C   0  0  0  0  0  0  0  0  0  0  0  0
   -1.6997   -7.9628    2.7128 C   0  0  0  0  0  0  0  0  0  0  0  0
   -0.9674   -9.3118    2.6846 C   0  0  0  0  0  0  0  0  0  0  0  0
    2.2398   -8.2143    4.5715 C   0  0  0  0  0  0  0  0  0  0  0  0
    2.5384   -7.4296    5.4737 O   0  0  0  0  0  0  0  0  0  0  0  0
    6.4783   -5.4740    0.6649 C   0  0  2  0  0  0  0  0  0  0  0  0
    7.8445   -7.3991    4.4505 H   0  0  0  0  0  0  0  0  0  0  0  0
    9.2109   -6.8370    3.5086 H   0  0  0  0  0  0  0  0  0  0  0  0
    8.4779   -8.4088    3.1488 H   0  0  0  0  0  0  0  0  0  0  0  0
    9.7980   -5.7652    1.5848 H   0  0  0  0  0  0  0  0  0  0  0  0
    9.1981   -5.9940   -0.0532 H   0  0  0  0  0  0  0  0  0  0  0  0
    8.9889   -3.4662    1.6402 H   0  0  0  0  0  0  0  0  0  0  0  0
    9.8173   -3.5887    0.1112 H   0  0  0  0  0  0  0  0  0  0  0  0
    7.6926   -2.3782   -0.1593 H   0  0  0  0  0  0  0  0  0  0  0  0
    7.7266   -3.8381   -1.1237 H   0  0  0  0  0  0  0  0  0  0  0  0
    6.4107   -3.5567    1.6079 H   0  0  0  0  0  0  0  0  0  0  0  0
    4.8856   -2.5666    0.0361 H   0  0  0  0  0  0  0  0  0  0  0  0
    5.1233   -3.8451   -1.1376 H   0  0  0  0  0  0  0  0  0  0  0  0
    1.8116   -4.4747    0.3980 H   0  0  0  0  0  0  0  0  0  0  0  0
    2.5890   -3.7710   -1.0047 H   0  0  0  0  0  0  0  0  0  0  0  0
    2.4881   -2.8466    0.5034 H   0  0  0  0  0  0  0  0  0  0  0  0
    5.6711   -7.6203    4.4918 H   0  0  0  0  0  0  0  0  0  0  0  0
    4.3561   -6.6245    3.9479 H   0  0  0  0  0  0  0  0  0  0  0  0
    3.8700   -8.5307    2.1975 H   0  0  0  0  0  0  0  0  0  0  0  0
    5.1130   -9.4366    2.9738 H   0  0  0  0  0  0  0  0  0  0  0  0
    4.8111   -9.4672    5.7286 H   0  0  0  0  0  0  0  0  0  0  0  0
    3.2233  -10.0664    6.1618 H   0  0  0  0  0  0  0  0  0  0  0  0
    5.3446  -11.5320    4.6867 H   0  0  0  0  0  0  0  0  0  0  0  0
    4.0058  -12.1575    5.6379 H   0  0  0  0  0  0  0  0  0  0  0  0
    4.1590  -11.6538    2.7234 H   0  0  0  0  0  0  0  0  0  0  0  0
    2.9408  -12.6144    3.5728 H   0  0  0  0  0  0  0  0  0  0  0  0
    0.8490  -11.3844    2.7349 H   0  0  0  0  0  0  0  0  0  0  0  0
    0.2899   -6.4401    5.0553 H   0  0  0  0  0  0  0  0  0  0  0  0
    0.3847   -6.2128    3.3275 H   0  0  0  0  0  0  0  0  0  0  0  0
   -1.7371   -7.7796    4.8673 H   0  0  0  0  0  0  0  0  0  0  0  0
   -1.9758   -6.2633    4.0370 H   0  0  0  0  0  0  0  0  0  0  0  0
   -2.7692   -8.1322    2.6108 H   0  0  0  0  0  0  0  0  0  0  0  0
   -1.3738   -7.3723    1.8571 H   0  0  0  0  0  0  0  0  0  0  0  0
   -0.9686   -9.7217    1.6804 H   0  0  0  0  0  0  0  0  0  0  0  0
   -1.5229  -10.0301    3.2809 H   0  0  0  0  0  0  0  0  0  0  0  0
    6.4005   -5.9151   -0.3189 H   0  0  0  0  0  0  0  0  0  0  0  0
  1  2  1  0
  1 32  1  0
  1 33  1  0
  1 34  1  0
  2 14  1  0
  2  3  2  0
  3 31  1  0
  3  4  1  0
  4  5  1  0
  4 35  1  0
  4 36  1  0
  5  6  1  0
  5 37  1  0
  5 38  1  0
  6  7  1  0
  6 39  1  0
  6 40  1  0
  7 31  1  0
  7  8  1  0
  7 41  1  1
  8  9  1  0
  8 42  1  0
  8 43  1  0
  9 10  1  0
  9 11  1  0
 10 44  1  0
 10 45  1  0
 10 46  1  0
 11 12  2  0
 11 13  1  0
 13 14  2  0
 13 31  1  0
 14 15  1  0
 15 16  1  0
 15 47  1  0
 15 48  1  0
 17 16  1  6
 16 49  1  0
 16 50  1  0
 17 21  1  0
 17 29  1  0
 17 18  1  0
 18 19  1  0
 18 51  1  0
 18 52  1  0
 19 20  1  0
 19 53  1  0
 19 54  1  0
 20 21  1  0
 20 55  1  0
 20 56  1  0
 21 22  2  0
 22 23  1  0
 22 57  1  0
 23 28  1  0
 23 24  2  0
 24 25  1  0
 24 29  1  0
 25 26  1  0
 25 58  1  0
 25 59  1  0
 26 27  1  0
 26 60  1  0
 26 61  1  0
 27 28  1  0
 27 62  1  0
 27 63  1  0
 28 64  1  0
 28 65  1  0
 29 30  2  0
 31 66  1  6
M  END
>  <i_m_ct_stereo_status>  (150) 
1

>  <s_m_source_file>  (150) 
/var/tmp/pbs.5076255.sched01/tmppnbbzaq8/41bb87crku.sdf

>  <i_m_source_file_index>  (150) 
19

>  <i_lp_mmshare_version>  (150) 
48012

>  <i_f3d_flags>  (150) 
0

>  <s_epik_input>  (150) 
W0NIMl0xW0NIMl1bQ0gyXVtDQEhdKFtDQEhdMkMxMylbQ0gyXU4oW0NIM10pQyg9TylDMj1DKEM9M1tDSDNdKVtDSDJdW0NIMl1bQ0BAXTQ1QyhbQ0gyXVtDSDJdW0NIMl00KT1bQ0hdQzY9QyhDNT1PKVtDSDJdW0NIMl1bQ0gyXVtDSDJdNg==

>  <s_epik_cmdline>  (150) 
J2VwaWtfcHl0aG9uJywgJy1waHQnLCAnMi4wJywgJy1waCcsICc3LjAnLCAnLXRuJywgJzgnLCAnLW1hJywgJzIwMCcsICctaW1hZScsICc8aW5maWxlLm1hZT4nLCAnLW9tYWUnLCAnPG91dGZpbGUubWFlPic=

>  <r_lp_tautomer_probability>  (150) 
1

>  <r_epik_Ionization_Penalty>  (150) 
1.06011e-05

>  <r_epik_Ionization_Penalty_Charging>  (150) 
0

>  <r_epik_Ionization_Penalty_Neutral>  (150) 
1.06011e-05

>  <r_epik_State_Penalty>  (150) 
-0

>  <r_epik_Charging_Adjusted_Penalty>  (150) 
0

>  <i_epik_Tot_Q>  (150) 
0

>  <i_epik_Tot_abs_Q>  (150) 
0

>  <s_lp_Force_Field>  (150) 
OPLS3e

>  <r_lp_Energy>  (150) 
53.7499

>  <b_lp_Chiralities_Consistent>  (150) 
1

>  <s_lp_Variant>  (150) 
44:0-1

>  <s_i_glide_gridfile>  (150) 
pfpi4k_grid

>  <i_i_glide_lignum>  (150) 
19

>  <i_i_glide_rotatable_bonds>  (150) 
3

>  <r_i_docking_score>  (150) 
-2.60368

>  <r_i_glide_ligand_efficiency>  (150) 
-0.0839898

>  <r_i_glide_ligand_efficiency_sa>  (150) 
-0.263844

>  <r_i_glide_ligand_efficiency_ln>  (150) 
-0.58721

>  <r_i_glide_gscore>  (150) 
-2.60368

>  <r_i_glide_lipo>  (150) 
-0.783514

>  <r_i_glide_hbond>  (150) 
0

>  <r_i_glide_metal>  (150) 
-0

>  <r_i_glide_rewards>  (150) 
-0.627862

>  <r_i_glide_evdw>  (150) 
-28.147

>  <r_i_glide_ecoul>  (150) 
-0.805879

>  <r_i_glide_erotb>  (150) 
0.340067

>  <r_i_glide_esite>  (150) 
-0.0041423

>  <r_i_glide_emodel>  (150) 
-32.3288

>  <r_i_glide_energy>  (150) 
-28.9529

>  <r_i_glide_einternal>  (150) 
1.76417

>  <r_i_glide_intrahb_reward>  (150) 
-0

>  <i_i_glide_confnum>  (150) 
4

>  <i_i_glide_posenum>  (150) 
12

>  <r_i_glide_eff_state_penalty>  (150) 
0

>  <ligand_id>  (150) 
44

>  <original_smiles>  (150) 
CC1=C2CCCC3CN(C)C(=O)C(=C1CCC14CCCC1=CC1=C(CCCC1)C4=O)C23

>  <smiles>  (150) 
[H]C1=C2C([H])([H])C([H])([H])C([H])([H])C2(C([H])([H])C([H])([H])C2=C3C(=O)N(C([H])([H])[H])C([H])([H])C4([H])C3([H])C(=C2C([H])([H])[H])C([H])([H])C([H])([H])C4([H])[H])C(=O)C2=C1C([H])([H])C([H])([H])C([H])([H])C2([H])[H]

$$$$
44:0:2
     RDKit          3D

 66 71  0  0  1  0  0  0  0  0999 V2000
    3.3436   -3.4826    4.9293 C   0  0  0  0  0  0  0  0  0  0  0  0
    3.9276   -3.2687    3.5428 C   0  0  0  0  0  0  0  0  0  0  0  0
    4.3807   -2.1013    3.0630 C   0  0  0  0  0  0  0  0  0  0  0  0
    4.4235   -0.6960    3.6337 C   0  0  0  0  0  0  0  0  0  0  0  0
    3.8049    0.3080    2.6233 C   0  0  0  0  0  0  0  0  0  0  0  0
    4.3292    0.1295    1.1667 C   0  0  0  0  0  0  0  0  0  0  0  0
    4.1310   -1.3236    0.7027 C   0  0  1  0  0  0  0  0  0  0  0  0
    4.6357   -1.7095   -0.7015 C   0  0  0  0  0  0  0  0  0  0  0  0
    4.6712   -3.1794   -0.9427 N   0  0  0  0  0  0  0  0  0  0  0  0
    4.8471   -3.5088   -2.3641 C   0  0  0  0  0  0  0  0  0  0  0  0
    4.6054   -4.1630    0.0135 C   0  0  0  0  0  0  0  0  0  0  0  0
    4.6597   -5.3580   -0.2533 O   0  0  0  0  0  0  0  0  0  0  0  0
    4.4948   -3.6469    1.3786 C   0  0  0  0  0  0  0  0  0  0  0  0
    4.0104   -4.2660    2.4783 C   0  0  0  0  0  0  0  0  0  0  0  0
    3.5044   -5.6951    2.5755 C   0  0  0  0  0  0  0  0  0  0  0  0
    4.6553   -6.6916    2.8302 C   0  0  0  0  0  0  0  0  0  0  0  0
    4.2403   -8.1733    3.0041 C   0  0  2  0  0  0  0  0  0  0  0  0
    5.4768   -9.1007    2.9722 C   0  0  0  0  0  0  0  0  0  0  0  0
    5.7674   -9.3946    1.4792 C   0  0  0  0  0  0  0  0  0  0  0  0
    4.5062   -8.9815    0.7105 C   0  0  0  0  0  0  0  0  0  0  0  0
    3.5083   -8.6839    1.7875 C   0  0  0  0  0  0  0  0  0  0  0  0
    2.2087   -9.0129    1.7672 C   0  0  0  0  0  0  0  0  0  0  0  0
    1.3714   -8.8765    2.9513 C   0  0  0  0  0  0  0  0  0  0  0  0
    1.9254   -8.5605    4.1518 C   0  0  0  0  0  0  0  0  0  0  0  0
    1.1052   -8.3895    5.4305 C   0  0  0  0  0  0  0  0  0  0  0  0
   -0.2139   -9.1565    5.3592 C   0  0  0  0  0  0  0  0  0  0  0  0
   -0.9537   -8.7806    4.0661 C   0  0  0  0  0  0  0  0  0  0  0  0
   -0.1270   -9.1542    2.8236 C   0  0  0  0  0  0  0  0  0  0  0  0
    3.3954   -8.3610    4.2814 C   0  0  0  0  0  0  0  0  0  0  0  0
    3.9713   -8.3180    5.3699 O   0  0  0  0  0  0  0  0  0  0  0  0
    4.8652   -2.2334    1.6592 C   0  0  2  0  0  0  0  0  0  0  0  0
    2.5448   -4.2231    4.9203 H   0  0  0  0  0  0  0  0  0  0  0  0
    2.9176   -2.5619    5.3308 H   0  0  0  0  0  0  0  0  0  0  0  0
    4.1184   -3.8304    5.6138 H   0  0  0  0  0  0  0  0  0  0  0  0
    3.9279   -0.6419    4.6013 H   0  0  0  0  0  0  0  0  0  0  0  0
    5.4714   -0.4390    3.7966 H   0  0  0  0  0  0  0  0  0  0  0  0
    2.7203    0.1767    2.6198 H   0  0  0  0  0  0  0  0  0  0  0  0
    3.9633    1.3290    2.9772 H   0  0  0  0  0  0  0  0  0  0  0  0
    3.8157    0.8155    0.5007 H   0  0  0  0  0  0  0  0  0  0  0  0
    5.3876    0.3769    1.1078 H   0  0  0  0  0  0  0  0  0  0  0  0
    3.0599   -1.5326    0.7342 H   0  0  0  0  0  0  0  0  0  0  0  0
    3.9934   -1.2310   -1.4381 H   0  0  0  0  0  0  0  0  0  0  0  0
    5.6422   -1.3135   -0.8515 H   0  0  0  0  0  0  0  0  0  0  0  0
    4.9862   -4.5748   -2.5586 H   0  0  0  0  0  0  0  0  0  0  0  0
    5.7282   -2.9988   -2.7566 H   0  0  0  0  0  0  0  0  0  0  0  0
    3.9802   -3.1819   -2.9428 H   0  0  0  0  0  0  0  0  0  0  0  0
    2.7739   -5.7658    3.3751 H   0  0  0  0  0  0  0  0  0  0  0  0
    2.9578   -5.9468    1.6669 H   0  0  0  0  0  0  0  0  0  0  0  0
    5.3578   -6.6171    2.0027 H   0  0  0  0  0  0  0  0  0  0  0  0
    5.2116   -6.3761    3.7121 H   0  0  0  0  0  0  0  0  0  0  0  0
    6.3413   -8.6836    3.4876 H   0  0  0  0  0  0  0  0  0  0  0  0
    5.2446  -10.0491    3.4559 H   0  0  0  0  0  0  0  0  0  0  0  0
    6.6265   -8.8228    1.1303 H   0  0  0  0  0  0  0  0  0  0  0  0
    5.9910  -10.4516    1.3185 H   0  0  0  0  0  0  0  0  0  0  0  0
    4.6851   -8.0661    0.1460 H   0  0  0  0  0  0  0  0  0  0  0  0
    4.1376   -9.7519    0.0363 H   0  0  0  0  0  0  0  0  0  0  0  0
    1.8289   -9.4768    0.8706 H   0  0  0  0  0  0  0  0  0  0  0  0
    1.6603   -8.7161    6.3088 H   0  0  0  0  0  0  0  0  0  0  0  0
    0.9016   -7.3248    5.5637 H   0  0  0  0  0  0  0  0  0  0  0  0
   -0.0034  -10.2259    5.3849 H   0  0  0  0  0  0  0  0  0  0  0  0
   -0.8324   -8.9599    6.2346 H   0  0  0  0  0  0  0  0  0  0  0  0
   -1.9221   -9.2725    4.0014 H   0  0  0  0  0  0  0  0  0  0  0  0
   -1.1736   -7.7114    4.0710 H   0  0  0  0  0  0  0  0  0  0  0  0
   -0.5307   -8.6475    1.9458 H   0  0  0  0  0  0  0  0  0  0  0  0
   -0.2271  -10.2265    2.6470 H   0  0  0  0  0  0  0  0  0  0  0  0
    5.9493   -2.0857    1.6044 H   0  0  0  0  0  0  0  0  0  0  0  0
  1  2  1  0
  1 32  1  0
  1 33  1  0
  1 34  1  0
  2 14  1  0
  2  3  2  0
  3 31  1  0
  3  4  1  0
  4  5  1  0
  4 35  1  0
  4 36  1  0
  5  6  1  0
  5 37  1  0
  5 38  1  0
  6  7  1  0
  6 39  1  0
  6 40  1  0
  7 31  1  0
  7  8  1  0
  7 41  1  6
  8  9  1  0
  8 42  1  0
  8 43  1  0
  9 10  1  0
  9 11  1  0
 10 44  1  0
 10 45  1  0
 10 46  1  0
 11 12  2  0
 11 13  1  0
 13 14  2  0
 13 31  1  0
 14 15  1  0
 15 16  1  0
 15 47  1  0
 15 48  1  0
 17 16  1  6
 16 49  1  0
 16 50  1  0
 17 21  1  0
 17 29  1  0
 17 18  1  0
 18 19  1  0
 18 51  1  0
 18 52  1  0
 19 20  1  0
 19 53  1  0
 19 54  1  0
 20 21  1  0
 20 55  1  0
 20 56  1  0
 21 22  2  0
 22 23  1  0
 22 57  1  0
 23 28  1  0
 23 24  2  0
 24 25  1  0
 24 29  1  0
 25 26  1  0
 25 58  1  0
 25 59  1  0
 26 27  1  0
 26 60  1  0
 26 61  1  0
 27 28  1  0
 27 62  1  0
 27 63  1  0
 28 64  1  0
 28 65  1  0
 29 30  2  0
 31 66  1  1
M  END
>  <i_m_ct_stereo_status>  (151) 
1

>  <s_m_source_file>  (151) 
/var/tmp/pbs.5076255.sched01/tmppnbbzaq8/41bb87crku.sdf

>  <i_m_source_file_index>  (151) 
19

>  <i_lp_mmshare_version>  (151) 
48012

>  <i_f3d_flags>  (151) 
0

>  <s_epik_input>  (151) 
W0NIMl0xW0NIMl1bQ0gyXVtDQEhdKFtDQEhdMkMxMylbQ0gyXU4oW0NIM10pQyg9TylDMj1DKEM9M1tDSDNdKVtDSDJdW0NIMl1bQ0BAXTQ1QyhbQ0gyXVtDSDJdW0NIMl00KT1bQ0hdQzY9QyhDNT1PKVtDSDJdW0NIMl1bQ0gyXVtDSDJdNg==

>  <s_epik_cmdline>  (151) 
J2VwaWtfcHl0aG9uJywgJy1waHQnLCAnMi4wJywgJy1waCcsICc3LjAnLCAnLXRuJywgJzgnLCAnLW1hJywgJzIwMCcsICctaW1hZScsICc8aW5maWxlLm1hZT4nLCAnLW9tYWUnLCAnPG91dGZpbGUubWFlPic=

>  <r_lp_tautomer_probability>  (151) 
1

>  <r_epik_Ionization_Penalty>  (151) 
1.06011e-05

>  <r_epik_Ionization_Penalty_Charging>  (151) 
0

>  <r_epik_Ionization_Penalty_Neutral>  (151) 
1.06011e-05

>  <r_epik_State_Penalty>  (151) 
-0

>  <r_epik_Charging_Adjusted_Penalty>  (151) 
0

>  <i_epik_Tot_Q>  (151) 
0

>  <i_epik_Tot_abs_Q>  (151) 
0

>  <s_lp_Force_Field>  (151) 
OPLS3e

>  <r_lp_Energy>  (151) 
53.7499

>  <b_lp_Chiralities_Consistent>  (151) 
1

>  <s_lp_Variant>  (151) 
44:0-1

>  <s_i_glide_gridfile>  (151) 
pfpi4k_grid

>  <i_i_glide_lignum>  (151) 
19

>  <i_i_glide_rotatable_bonds>  (151) 
3

>  <r_i_docking_score>  (151) 
-1.89605

>  <r_i_glide_ligand_efficiency>  (151) 
-0.0611628

>  <r_i_glide_ligand_efficiency_sa>  (151) 
-0.192136

>  <r_i_glide_ligand_efficiency_ln>  (151) 
-0.427617

>  <r_i_glide_gscore>  (151) 
-1.89605

>  <r_i_glide_lipo>  (151) 
-0.276271

>  <r_i_glide_hbond>  (151) 
0

>  <r_i_glide_metal>  (151) 
-0

>  <r_i_glide_rewards>  (151) 
-0.624093

>  <r_i_glide_evdw>  (151) 
-26.9096

>  <r_i_glide_ecoul>  (151) 
0.065322

>  <r_i_glide_erotb>  (151) 
0.340067

>  <r_i_glide_esite>  (151) 
-7.05971e-05

>  <r_i_glide_emodel>  (151) 
-29.9509

>  <r_i_glide_energy>  (151) 
-26.8442

>  <r_i_glide_einternal>  (151) 
0.225494

>  <r_i_glide_intrahb_reward>  (151) 
-0

>  <i_i_glide_confnum>  (151) 
1

>  <i_i_glide_posenum>  (151) 
5

>  <r_i_glide_eff_state_penalty>  (151) 
0

>  <ligand_id>  (151) 
44

>  <original_smiles>  (151) 
CC1=C2CCCC3CN(C)C(=O)C(=C1CCC14CCCC1=CC1=C(CCCC1)C4=O)C23

>  <smiles>  (151) 
[H]C1=C2C([H])([H])C([H])([H])C([H])([H])C2(C([H])([H])C([H])([H])C2=C3C(=O)N(C([H])([H])[H])C([H])([H])C4([H])C3([H])C(=C2C([H])([H])[H])C([H])([H])C([H])([H])C4([H])[H])C(=O)C2=C1C([H])([H])C([H])([H])C([H])([H])C2([H])[H]

$$$$
45:0:0
     RDKit          3D

 67 70  0  0  1  0  0  0  0  0999 V2000
    3.6400   -0.6263   -4.4265 C   0  0  0  0  0  0  0  0  0  0  0  0
    3.6788   -1.2087   -3.0160 C   0  0  0  0  0  0  0  0  0  0  0  0
    4.5704   -2.4415   -2.8765 C   0  0  0  0  0  0  0  0  0  0  0  0
    4.6059   -3.3347   -3.7259 O   0  0  0  0  0  0  0  0  0  0  0  0
    5.2177   -2.4262   -1.7054 O   0  0  0  0  0  0  0  0  0  0  0  0
    5.8078   -3.5961   -1.1735 C   0  0  2  0  0  0  0  0  0  0  0  0
    4.8976   -4.4812   -0.2935 C   0  0  1  0  0  0  0  0  0  0  0  0
    5.8127   -5.2456    0.4947 O   0  0  0  0  0  0  0  0  0  0  0  0
    7.1335   -4.7453    0.3689 C   0  0  0  0  0  0  0  0  0  0  0  0
    7.0315   -3.3607   -0.3044 C   0  0  1  0  0  0  0  0  0  0  0  0
    8.2894   -3.1358   -1.1812 C   0  0  0  0  0  0  0  0  0  0  0  0
    6.8662   -2.2593    0.7985 C   0  0  1  0  0  0  0  0  0  0  0  0
    7.5967   -1.0799    0.4818 O   0  0  0  0  0  0  0  0  0  0  0  0
    5.4716   -1.8411    1.3477 C   0  0  1  0  0  0  0  0  0  0  0  0
    4.8610   -0.8427    0.5581 O   0  0  0  0  0  0  0  0  0  0  0  0
    4.5194   -2.9963    1.8341 C   0  0  1  0  0  0  0  0  0  0  0  0
    3.6201   -2.6421    3.1016 C   0  0  2  0  0  0  0  0  0  0  0  0
    2.6126   -1.5044    2.7856 C   0  0  0  0  0  0  0  0  0  0  0  0
    4.4839   -2.0674    4.2257 C   0  0  0  0  0  0  0  0  0  0  0  0
    4.6923   -2.6044    5.4455 C   0  0  0  0  0  0  0  0  0  0  0  0
    4.1275   -3.8903    5.8352 C   0  0  0  0  0  0  0  0  0  0  0  0
    4.1751   -4.2848    6.9987 O   0  0  0  0  0  0  0  0  0  0  0  0
    3.4937   -4.7908    4.7526 C   0  0  0  0  0  0  0  0  0  0  0  0
    4.6216   -5.7237    4.2565 C   0  0  0  0  0  0  0  0  0  0  0  0
    2.4147   -5.6868    5.4264 C   0  0  0  0  0  0  0  0  0  0  0  0
    2.8306   -3.8947    3.6368 C   0  0  2  0  0  0  0  0  0  0  0  0
    2.1609   -4.6665    2.4879 C   0  0  0  0  0  0  0  0  0  0  0  0
    3.0860   -5.0505    1.3335 C   0  0  1  0  0  0  0  0  0  0  0  0
    2.2719   -5.7312    0.3963 O   0  0  0  0  0  0  0  0  0  0  0  0
    3.8280   -3.8454    0.6782 C   0  0  2  0  0  0  0  0  0  0  0  0
    2.7754   -3.0700   -0.1693 C   0  0  0  0  0  0  0  0  0  0  0  0
    2.9362    0.2084   -4.4795 H   0  0  0  0  0  0  0  0  0  0  0  0
    3.3164   -1.3903   -5.1270 H   0  0  0  0  0  0  0  0  0  0  0  0
    4.6167   -0.2629   -4.7222 H   0  0  0  0  0  0  0  0  0  0  0  0
    3.9937   -0.4400   -2.3076 H   0  0  0  0  0  0  0  0  0  0  0  0
    2.6678   -1.5039   -2.7300 H   0  0  0  0  0  0  0  0  0  0  0  0
    6.1327   -4.2174   -2.0073 H   0  0  0  0  0  0  0  0  0  0  0  0
    4.3931   -5.1718   -0.9726 H   0  0  0  0  0  0  0  0  0  0  0  0
    7.6571   -4.7498    1.3252 H   0  0  0  0  0  0  0  0  0  0  0  0
    7.6854   -5.4507   -0.2423 H   0  0  0  0  0  0  0  0  0  0  0  0
    9.1924   -3.0479   -0.5767 H   0  0  0  0  0  0  0  0  0  0  0  0
    8.2041   -2.2430   -1.7929 H   0  0  0  0  0  0  0  0  0  0  0  0
    8.4698   -3.9387   -1.8907 H   0  0  0  0  0  0  0  0  0  0  0  0
    7.3322   -2.6783    1.6731 H   0  0  0  0  0  0  0  0  0  0  0  0
    7.5515   -0.4649    1.2026 H   0  0  0  0  0  0  0  0  0  0  0  0
    5.7601   -1.2689    2.2213 H   0  0  0  0  0  0  0  0  0  0  0  0
    4.0472   -0.5815    0.9737 H   0  0  0  0  0  0  0  0  0  0  0  0
    5.2274   -3.6960    2.2651 H   0  0  0  0  0  0  0  0  0  0  0  0
    1.8617   -1.7601    2.0466 H   0  0  0  0  0  0  0  0  0  0  0  0
    3.1087   -0.5987    2.4462 H   0  0  0  0  0  0  0  0  0  0  0  0
    2.0598   -1.2174    3.6794 H   0  0  0  0  0  0  0  0  0  0  0  0
    4.8976   -1.0897    4.0627 H   0  0  0  0  0  0  0  0  0  0  0  0
    5.2775   -2.0822    6.1847 H   0  0  0  0  0  0  0  0  0  0  0  0
    4.2449   -6.5334    3.6275 H   0  0  0  0  0  0  0  0  0  0  0  0
    5.1180   -6.2119    5.0997 H   0  0  0  0  0  0  0  0  0  0  0  0
    5.4022   -5.1896    3.7154 H   0  0  0  0  0  0  0  0  0  0  0  0
    2.0235   -6.4534    4.7570 H   0  0  0  0  0  0  0  0  0  0  0  0
    1.5727   -5.0930    5.7802 H   0  0  0  0  0  0  0  0  0  0  0  0
    2.8046   -6.2278    6.2891 H   0  0  0  0  0  0  0  0  0  0  0  0
    1.9858   -3.4656    4.1787 H   0  0  0  0  0  0  0  0  0  0  0  0
    1.6394   -5.5475    2.8469 H   0  0  0  0  0  0  0  0  0  0  0  0
    1.3839   -4.0239    2.1077 H   0  0  0  0  0  0  0  0  0  0  0  0
    3.8095   -5.7707    1.6975 H   0  0  0  0  0  0  0  0  0  0  0  0
    2.7989   -5.9453   -0.3644 H   0  0  0  0  0  0  0  0  0  0  0  0
    1.8265   -2.9597    0.3320 H   0  0  0  0  0  0  0  0  0  0  0  0
    2.5485   -3.5911   -1.1029 H   0  0  0  0  0  0  0  0  0  0  0  0
    3.0720   -2.0655   -0.4386 H   0  0  0  0  0  0  0  0  0  0  0  0
  1  2  1  0
  1 32  1  0
  1 33  1  0
  1 34  1  0
  2  3  1  0
  2 35  1  0
  2 36  1  0
  3  4  2  0
  3  5  1  0
  5  6  1  0
  6 10  1  0
  6  7  1  0
  6 37  1  6
  7 30  1  0
  7  8  1  0
  7 38  1  6
  8  9  1  0
  9 10  1  0
  9 39  1  0
  9 40  1  0
 10 11  1  6
 10 12  1  0
 11 41  1  0
 11 42  1  0
 11 43  1  0
 12 13  1  0
 12 14  1  0
 12 44  1  1
 13 45  1  0
 14 15  1  0
 14 16  1  0
 14 46  1  1
 15 47  1  0
 16 30  1  0
 16 17  1  0
 16 48  1  1
 17 26  1  0
 17 18  1  6
 17 19  1  0
 18 49  1  0
 18 50  1  0
 18 51  1  0
 19 20  2  0
 19 52  1  0
 20 21  1  0
 20 53  1  0
 21 22  2  0
 21 23  1  0
 23 24  1  0
 23 25  1  0
 23 26  1  0
 24 54  1  0
 24 55  1  0
 24 56  1  0
 25 57  1  0
 25 58  1  0
 25 59  1  0
 26 27  1  0
 26 60  1  1
 27 28  1  0
 27 61  1  0
 27 62  1  0
 28 29  1  0
 28 30  1  0
 28 63  1  1
 29 64  1  0
 30 31  1  6
 31 65  1  0
 31 66  1  0
 31 67  1  0
M  END
>  <i_m_ct_stereo_status>  (152) 
1

>  <s_m_source_file>  (152) 
/var/tmp/pbs.5076255.sched01/tmppnbbzaq8/41bb87crku.sdf

>  <i_m_source_file_index>  (152) 
20

>  <i_lp_mmshare_version>  (152) 
48012

>  <i_f3d_flags>  (152) 
0

>  <s_epik_input>  (152) 
W0NIM11bQ0gyXUMoPU8pT1tDQEBIXShbQ0BdMTJbQ0gzXSlbQ0BASF0oT1tDSDJdMSlbQ0BdMyhbQ0gzXSlbQ0BASF0oW0NASF0oW09IXSlbQ0BASF0yW09IXSlbQ0BAXTQoW0NIM10pW0NAQEhdKFtDSDJdW0NASF0zW09IXSlDKFtDSDNdKShbQ0gzXSlDKD1PKVtDSF09W0NIXTQ=

>  <s_epik_cmdline>  (152) 
J2VwaWtfcHl0aG9uJywgJy1waHQnLCAnMi4wJywgJy1waCcsICc3LjAnLCAnLXRuJywgJzgnLCAnLW1hJywgJzIwMCcsICctaW1hZScsICc8aW5maWxlLm1hZT4nLCAnLW9tYWUnLCAnPG91dGZpbGUubWFlPic=

>  <r_lp_tautomer_probability>  (152) 
1

>  <r_epik_Ionization_Penalty>  (152) 
2.1346e-07

>  <r_epik_Ionization_Penalty_Charging>  (152) 
0

>  <r_epik_Ionization_Penalty_Neutral>  (152) 
2.1346e-07

>  <r_epik_State_Penalty>  (152) 
-0

>  <r_epik_Charging_Adjusted_Penalty>  (152) 
0

>  <i_epik_Tot_Q>  (152) 
0

>  <i_epik_Tot_abs_Q>  (152) 
0

>  <s_epik_Chemistry_Notes>  (152) 
This compound has an ester and may undergo hydrolysis at high or low pH.

>  <s_lp_Force_Field>  (152) 
OPLS3e

>  <r_lp_Energy>  (152) 
54.0563

>  <b_lp_Chiralities_Consistent>  (152) 
1

>  <s_lp_Variant>  (152) 
45:0-1

>  <s_i_glide_gridfile>  (152) 
pfpi4k_grid

>  <i_i_glide_lignum>  (152) 
20

>  <i_i_glide_rotatable_bonds>  (152) 
6

>  <r_i_docking_score>  (152) 
-3.82014

>  <r_i_glide_ligand_efficiency>  (152) 
-0.12323

>  <r_i_glide_ligand_efficiency_sa>  (152) 
-0.387114

>  <r_i_glide_ligand_efficiency_ln>  (152) 
-0.861559

>  <r_i_glide_gscore>  (152) 
-3.82014

>  <r_i_glide_lipo>  (152) 
-0.837874

>  <r_i_glide_hbond>  (152) 
-0.158987

>  <r_i_glide_metal>  (152) 
-0

>  <r_i_glide_rewards>  (152) 
-0.600936

>  <r_i_glide_evdw>  (152) 
-26.1776

>  <r_i_glide_ecoul>  (152) 
-7.48448

>  <r_i_glide_erotb>  (152) 
0.209205

>  <r_i_glide_esite>  (152) 
0

>  <r_i_glide_emodel>  (152) 
-39.4469

>  <r_i_glide_energy>  (152) 
-33.6621

>  <r_i_glide_einternal>  (152) 
3.58116

>  <r_i_glide_intrahb_reward>  (152) 
-0

>  <i_i_glide_confnum>  (152) 
2

>  <i_i_glide_posenum>  (152) 
11

>  <r_i_glide_eff_state_penalty>  (152) 
0

>  <ligand_id>  (152) 
45

>  <original_smiles>  (152) 
CCC(=O)OC1C2OCC1(C)C(O)C(O)C1C3(C)C=CC(=O)C(C)(C)C3CC(O)C21C

>  <smiles>  (152) 
[H]OC1([H])C([H])(O[H])C2(C([H])([H])[H])C([H])([H])OC([H])(C2([H])OC(=O)C([H])([H])C([H])([H])[H])C2(C([H])([H])[H])C([H])(O[H])C([H])([H])C3([H])C(C([H])([H])[H])(C([H])([H])[H])C(=O)C([H])=C([H])C3(C([H])([H])[H])C12[H]

$$$$
46:0:0
     RDKit          3D

 23 26  0  0  1  0  0  0  0  0999 V2000
    1.1720   -7.4608    1.4623 C   0  0  0  0  0  0  0  0  0  0  0  0
    1.0685   -6.2416    0.8299 N   0  0  0  0  0  0  0  0  0  0  0  0
    2.3396   -5.8508    0.7475 C   0  0  0  0  0  0  0  0  0  0  0  0
    2.7861   -4.6795    0.2149 N   0  0  0  0  0  0  0  0  0  0  0  0
    4.1350   -4.4868    0.2121 C   0  0  0  0  0  0  0  0  0  0  0  0
    4.5424   -3.2026   -0.4184 C   0  0  0  0  0  0  0  0  0  0  0  0
    5.7917   -2.8885   -1.0345 C   0  0  0  0  0  0  0  0  0  0  0  0
    5.8164   -1.6544   -1.5201 N   0  0  0  0  0  0  0  0  0  0  0  0
    4.5992   -1.1602   -1.2329 N   0  0  0  0  0  0  0  0  0  0  0  0
    3.7913   -2.0662   -0.5760 C   0  0  0  0  0  0  0  0  0  0  0  0
    5.0623   -5.4306    0.7533 C   0  0  0  0  0  0  0  0  0  0  0  0
    6.7994   -5.3615    0.8824 S   0  0  0  0  0  0  0  0  0  0  0  0
    6.7306   -6.9451    1.6486 C   0  0  0  0  0  0  0  0  0  0  0  0
    5.4650   -7.4836    1.8091 C   0  0  0  0  0  0  0  0  0  0  0  0
    4.4562   -6.6015    1.2854 C   0  0  0  0  0  0  0  0  0  0  0  0
    3.0879   -6.8119    1.2834 N   0  0  0  0  0  0  0  0  0  0  0  0
    2.4089   -7.8588    1.7638 N   0  0  0  0  0  0  0  0  0  0  0  0
    4.3355   -0.2182   -1.4904 H   0  0  0  0  0  0  0  0  0  0  0  0
    0.3002   -8.0632    1.6953 H   0  0  0  0  0  0  0  0  0  0  0  0
    6.6723   -3.5037   -1.1566 H   0  0  0  0  0  0  0  0  0  0  0  0
    2.7719   -1.8225   -0.2949 H   0  0  0  0  0  0  0  0  0  0  0  0
    7.6562   -7.4116    1.9477 H   0  0  0  0  0  0  0  0  0  0  0  0
    5.1806   -8.4278    2.2564 H   0  0  0  0  0  0  0  0  0  0  0  0
  1 17  2  0
  1  2  1  0
  1 19  1  0
  2  3  2  0
  3 16  1  0
  3  4  1  0
  4  5  2  0
  5  6  1  0
  5 11  1  0
  6 10  2  0
  6  7  1  0
  7  8  2  0
  7 20  1  0
  8  9  1  0
  9 18  1  0
  9 10  1  0
 10 21  1  0
 11 15  2  0
 11 12  1  0
 12 13  1  0
 13 14  2  0
 13 22  1  0
 14 15  1  0
 14 23  1  0
 15 16  1  0
 16 17  1  0
M  END
>  <i_m_ct_stereo_status>  (153) 
1

>  <s_m_source_file>  (153) 
/var/tmp/pbs.5076255.sched01/tmppnbbzaq8/41bb87crku.sdf

>  <i_m_source_file_index>  (153) 
21

>  <i_lp_mmshare_version>  (153) 
48012

>  <i_f3d_flags>  (153) 
0

>  <s_epik_input>  (153) 
bjFbY0hdbm4oYzEyKWMzYyhzW2NIXVtjSF0zKWMobjIpLWM0W2NIXW5bbkhdW2NIXTQ=

>  <s_epik_cmdline>  (153) 
J2VwaWtfcHl0aG9uJywgJy1waHQnLCAnMi4wJywgJy1waCcsICc3LjAnLCAnLXRuJywgJzgnLCAnLW1hJywgJzIwMCcsICctaW1hZScsICc8aW5maWxlLm1hZT4nLCAnLW9tYWUnLCAnPG91dGZpbGUubWFlPic=

>  <r_lp_tautomer_probability>  (153) 
1

>  <r_epik_Ionization_Penalty>  (153) 
1.39211e-05

>  <r_epik_Ionization_Penalty_Charging>  (153) 
0

>  <r_epik_Ionization_Penalty_Neutral>  (153) 
1.39211e-05

>  <r_epik_State_Penalty>  (153) 
-0

>  <r_epik_Charging_Adjusted_Penalty>  (153) 
0

>  <i_epik_Tot_Q>  (153) 
0

>  <i_epik_Tot_abs_Q>  (153) 
0

>  <s_lp_Force_Field>  (153) 
OPLS3e

>  <r_lp_Energy>  (153) 
18.2051

>  <b_lp_Chiralities_Consistent>  (153) 
1

>  <s_lp_Variant>  (153) 
46:0-1

>  <s_i_glide_gridfile>  (153) 
pfpi4k_grid

>  <i_i_glide_lignum>  (153) 
21

>  <i_i_glide_rotatable_bonds>  (153) 
1

>  <r_i_docking_score>  (153) 
-4.48601

>  <r_i_glide_ligand_efficiency>  (153) 
-0.263883

>  <r_i_glide_ligand_efficiency_sa>  (153) 
-0.678518

>  <r_i_glide_ligand_efficiency_ln>  (153) 
-1.1703

>  <r_i_glide_gscore>  (153) 
-4.48601

>  <r_i_glide_lipo>  (153) 
-0.456937

>  <r_i_glide_hbond>  (153) 
-0.223902

>  <r_i_glide_metal>  (153) 
-0

>  <r_i_glide_rewards>  (153) 
-1.82598

>  <r_i_glide_evdw>  (153) 
-22.2174

>  <r_i_glide_ecoul>  (153) 
-6.89368

>  <r_i_glide_erotb>  (153) 
0.295478

>  <r_i_glide_esite>  (153) 
-0.129751

>  <r_i_glide_emodel>  (153) 
-38.273

>  <r_i_glide_energy>  (153) 
-29.1111

>  <r_i_glide_einternal>  (153) 
0.422837

>  <r_i_glide_intrahb_reward>  (153) 
-0

>  <i_i_glide_confnum>  (153) 
6

>  <i_i_glide_posenum>  (153) 
12

>  <r_i_glide_eff_state_penalty>  (153) 
0

>  <ligand_id>  (153) 
46

>  <original_smiles>  (153) 
c1nc2nc(-c3cn[nH]c3)c3sccc3n2n1

>  <smiles>  (153) 
[H]c1nc2nc(-c3c([H])nn([H])c3[H])c3sc([H])c([H])c3n2n1

$$$$
46:0:1
     RDKit          3D

 23 26  0  0  1  0  0  0  0  0999 V2000
    2.1923   -6.6474    1.9109 C   0  0  0  0  0  0  0  0  0  0  0  0
    1.6815   -5.8442    0.9146 N   0  0  0  0  0  0  0  0  0  0  0  0
    2.7555   -5.1627    0.5190 C   0  0  0  0  0  0  0  0  0  0  0  0
    2.7832   -4.1815   -0.4252 N   0  0  0  0  0  0  0  0  0  0  0  0
    4.0088   -3.6610   -0.7180 C   0  0  0  0  0  0  0  0  0  0  0  0
    3.9928   -2.6745   -1.8163 C   0  0  0  0  0  0  0  0  0  0  0  0
    4.4474   -2.8573   -3.1565 C   0  0  0  0  0  0  0  0  0  0  0  0
    4.2169   -1.7860   -3.9163 N   0  0  0  0  0  0  0  0  0  0  0  0
    3.6146   -0.9148   -3.0716 N   0  0  0  0  0  0  0  0  0  0  0  0
    3.4512   -1.4219   -1.7983 C   0  0  0  0  0  0  0  0  0  0  0  0
    5.2092   -4.0386   -0.0521 C   0  0  0  0  0  0  0  0  0  0  0  0
    6.8279   -3.4477   -0.2673 S   0  0  0  0  0  0  0  0  0  0  0  0
    7.3007   -4.5736    1.0074 C   0  0  0  0  0  0  0  0  0  0  0  0
    6.2829   -5.3379    1.5589 C   0  0  0  0  0  0  0  0  0  0  0  0
    5.0225   -5.0408    0.9369 C   0  0  0  0  0  0  0  0  0  0  0  0
    3.7934   -5.6065    1.2231 N   0  0  0  0  0  0  0  0  0  0  0  0
    3.5032   -6.5363    2.1375 N   0  0  0  0  0  0  0  0  0  0  0  0
    3.3154    0.0031   -3.3738 H   0  0  0  0  0  0  0  0  0  0  0  0
    1.5655   -7.3173    2.4909 H   0  0  0  0  0  0  0  0  0  0  0  0
    4.9094   -3.7220   -3.6103 H   0  0  0  0  0  0  0  0  0  0  0  0
    2.9638   -0.8644   -1.0128 H   0  0  0  0  0  0  0  0  0  0  0  0
    8.3337   -4.6123    1.3123 H   0  0  0  0  0  0  0  0  0  0  0  0
    6.3380   -6.0713    2.3549 H   0  0  0  0  0  0  0  0  0  0  0  0
  1 17  2  0
  1  2  1  0
  1 19  1  0
  2  3  2  0
  3 16  1  0
  3  4  1  0
  4  5  2  0
  5  6  1  0
  5 11  1  0
  6 10  2  0
  6  7  1  0
  7  8  2  0
  7 20  1  0
  8  9  1  0
  9 18  1  0
  9 10  1  0
 10 21  1  0
 11 15  2  0
 11 12  1  0
 12 13  1  0
 13 14  2  0
 13 22  1  0
 14 15  1  0
 14 23  1  0
 15 16  1  0
 16 17  1  0
M  END
>  <i_m_ct_stereo_status>  (154) 
1

>  <s_m_source_file>  (154) 
/var/tmp/pbs.5076255.sched01/tmppnbbzaq8/41bb87crku.sdf

>  <i_m_source_file_index>  (154) 
21

>  <i_lp_mmshare_version>  (154) 
48012

>  <i_f3d_flags>  (154) 
0

>  <s_epik_input>  (154) 
bjFbY0hdbm4oYzEyKWMzYyhzW2NIXVtjSF0zKWMobjIpLWM0W2NIXW5bbkhdW2NIXTQ=

>  <s_epik_cmdline>  (154) 
J2VwaWtfcHl0aG9uJywgJy1waHQnLCAnMi4wJywgJy1waCcsICc3LjAnLCAnLXRuJywgJzgnLCAnLW1hJywgJzIwMCcsICctaW1hZScsICc8aW5maWxlLm1hZT4nLCAnLW9tYWUnLCAnPG91dGZpbGUubWFlPic=

>  <r_lp_tautomer_probability>  (154) 
1

>  <r_epik_Ionization_Penalty>  (154) 
1.39211e-05

>  <r_epik_Ionization_Penalty_Charging>  (154) 
0

>  <r_epik_Ionization_Penalty_Neutral>  (154) 
1.39211e-05

>  <r_epik_State_Penalty>  (154) 
-0

>  <r_epik_Charging_Adjusted_Penalty>  (154) 
0

>  <i_epik_Tot_Q>  (154) 
0

>  <i_epik_Tot_abs_Q>  (154) 
0

>  <s_lp_Force_Field>  (154) 
OPLS3e

>  <r_lp_Energy>  (154) 
18.2051

>  <b_lp_Chiralities_Consistent>  (154) 
1

>  <s_lp_Variant>  (154) 
46:0-1

>  <s_i_glide_gridfile>  (154) 
pfpi4k_grid

>  <i_i_glide_lignum>  (154) 
21

>  <i_i_glide_rotatable_bonds>  (154) 
1

>  <r_i_docking_score>  (154) 
-4.42487

>  <r_i_glide_ligand_efficiency>  (154) 
-0.260286

>  <r_i_glide_ligand_efficiency_sa>  (154) 
-0.669269

>  <r_i_glide_ligand_efficiency_ln>  (154) 
-1.15435

>  <r_i_glide_gscore>  (154) 
-4.42487

>  <r_i_glide_lipo>  (154) 
-0.568647

>  <r_i_glide_hbond>  (154) 
-0.20309

>  <r_i_glide_metal>  (154) 
-0

>  <r_i_glide_rewards>  (154) 
-1.79545

>  <r_i_glide_evdw>  (154) 
-24.1867

>  <r_i_glide_ecoul>  (154) 
-5.95154

>  <r_i_glide_erotb>  (154) 
0.295478

>  <r_i_glide_esite>  (154) 
-0.0510945

>  <r_i_glide_emodel>  (154) 
-37.7833

>  <r_i_glide_energy>  (154) 
-30.1382

>  <r_i_glide_einternal>  (154) 
3.03164

>  <r_i_glide_intrahb_reward>  (154) 
-0

>  <i_i_glide_confnum>  (154) 
1

>  <i_i_glide_posenum>  (154) 
22

>  <r_i_glide_eff_state_penalty>  (154) 
0

>  <ligand_id>  (154) 
46

>  <original_smiles>  (154) 
c1nc2nc(-c3cn[nH]c3)c3sccc3n2n1

>  <smiles>  (154) 
[H]c1nc2nc(-c3c([H])nn([H])c3[H])c3sc([H])c([H])c3n2n1

$$$$
46:0:2
     RDKit          3D

 23 26  0  0  1  0  0  0  0  0999 V2000
    2.0792   -6.6743    1.4618 C   0  0  0  0  0  0  0  0  0  0  0  0
    1.5508   -5.8337    0.5080 N   0  0  0  0  0  0  0  0  0  0  0  0
    2.6002   -5.0699    0.1880 C   0  0  0  0  0  0  0  0  0  0  0  0
    2.5977   -4.0329   -0.6984 N   0  0  0  0  0  0  0  0  0  0  0  0
    3.7949   -3.4238   -0.9209 C   0  0  0  0  0  0  0  0  0  0  0  0
    3.7239   -2.3667   -1.9559 C   0  0  0  0  0  0  0  0  0  0  0  0
    3.0399   -2.4605   -3.2079 C   0  0  0  0  0  0  0  0  0  0  0  0
    3.1405   -1.3440   -3.9174 N   0  0  0  0  0  0  0  0  0  0  0  0
    3.8375   -0.5114   -3.1180 N   0  0  0  0  0  0  0  0  0  0  0  0
    4.2185   -1.0893   -1.9235 C   0  0  0  0  0  0  0  0  0  0  0  0
    4.9973   -3.7807   -0.2423 C   0  0  0  0  0  0  0  0  0  0  0  0
    6.5989   -3.1190   -0.3843 S   0  0  0  0  0  0  0  0  0  0  0  0
    7.0971   -4.2864    0.8401 C   0  0  0  0  0  0  0  0  0  0  0  0
    6.1093   -5.1345    1.3102 C   0  0  0  0  0  0  0  0  0  0  0  0
    4.8471   -4.8552    0.6767 C   0  0  0  0  0  0  0  0  0  0  0  0
    3.6415   -5.5024    0.8930 N   0  0  0  0  0  0  0  0  0  0  0  0
    3.3768   -6.5116    1.7283 N   0  0  0  0  0  0  0  0  0  0  0  0
    4.0013    0.4500   -3.3813 H   0  0  0  0  0  0  0  0  0  0  0  0
    1.4756   -7.4179    1.9747 H   0  0  0  0  0  0  0  0  0  0  0  0
    2.4824   -3.2843   -3.6309 H   0  0  0  0  0  0  0  0  0  0  0  0
    4.7695   -0.5468   -1.1652 H   0  0  0  0  0  0  0  0  0  0  0  0
    8.1255   -4.2917    1.1637 H   0  0  0  0  0  0  0  0  0  0  0  0
    6.1887   -5.9201    2.0531 H   0  0  0  0  0  0  0  0  0  0  0  0
  1 17  2  0
  1  2  1  0
  1 19  1  0
  2  3  2  0
  3 16  1  0
  3  4  1  0
  4  5  2  0
  5  6  1  0
  5 11  1  0
  6 10  2  0
  6  7  1  0
  7  8  2  0
  7 20  1  0
  8  9  1  0
  9 18  1  0
  9 10  1  0
 10 21  1  0
 11 15  2  0
 11 12  1  0
 12 13  1  0
 13 14  2  0
 13 22  1  0
 14 15  1  0
 14 23  1  0
 15 16  1  0
 16 17  1  0
M  END
>  <i_m_ct_stereo_status>  (155) 
1

>  <s_m_source_file>  (155) 
/var/tmp/pbs.5076255.sched01/tmppnbbzaq8/41bb87crku.sdf

>  <i_m_source_file_index>  (155) 
21

>  <i_lp_mmshare_version>  (155) 
48012

>  <i_f3d_flags>  (155) 
0

>  <s_epik_input>  (155) 
bjFbY0hdbm4oYzEyKWMzYyhzW2NIXVtjSF0zKWMobjIpLWM0W2NIXW5bbkhdW2NIXTQ=

>  <s_epik_cmdline>  (155) 
J2VwaWtfcHl0aG9uJywgJy1waHQnLCAnMi4wJywgJy1waCcsICc3LjAnLCAnLXRuJywgJzgnLCAnLW1hJywgJzIwMCcsICctaW1hZScsICc8aW5maWxlLm1hZT4nLCAnLW9tYWUnLCAnPG91dGZpbGUubWFlPic=

>  <r_lp_tautomer_probability>  (155) 
1

>  <r_epik_Ionization_Penalty>  (155) 
1.39211e-05

>  <r_epik_Ionization_Penalty_Charging>  (155) 
0

>  <r_epik_Ionization_Penalty_Neutral>  (155) 
1.39211e-05

>  <r_epik_State_Penalty>  (155) 
-0

>  <r_epik_Charging_Adjusted_Penalty>  (155) 
0

>  <i_epik_Tot_Q>  (155) 
0

>  <i_epik_Tot_abs_Q>  (155) 
0

>  <s_lp_Force_Field>  (155) 
OPLS3e

>  <r_lp_Energy>  (155) 
18.2051

>  <b_lp_Chiralities_Consistent>  (155) 
1

>  <s_lp_Variant>  (155) 
46:0-1

>  <s_i_glide_gridfile>  (155) 
pfpi4k_grid

>  <i_i_glide_lignum>  (155) 
21

>  <i_i_glide_rotatable_bonds>  (155) 
1

>  <r_i_docking_score>  (155) 
-4.15752

>  <r_i_glide_ligand_efficiency>  (155) 
-0.24456

>  <r_i_glide_ligand_efficiency_sa>  (155) 
-0.628833

>  <r_i_glide_ligand_efficiency_ln>  (155) 
-1.08461

>  <r_i_glide_gscore>  (155) 
-4.15752

>  <r_i_glide_lipo>  (155) 
-0.514932

>  <r_i_glide_hbond>  (155) 
-0.147067

>  <r_i_glide_metal>  (155) 
-0

>  <r_i_glide_rewards>  (155) 
-1.76598

>  <r_i_glide_evdw>  (155) 
-25.8754

>  <r_i_glide_ecoul>  (155) 
-4.37282

>  <r_i_glide_erotb>  (155) 
0.295478

>  <r_i_glide_esite>  (155) 
-0.0753299

>  <r_i_glide_emodel>  (155) 
-38.1216

>  <r_i_glide_energy>  (155) 
-30.2482

>  <r_i_glide_einternal>  (155) 
1.43785

>  <r_i_glide_intrahb_reward>  (155) 
-0

>  <i_i_glide_confnum>  (155) 
4

>  <i_i_glide_posenum>  (155) 
33

>  <r_i_glide_eff_state_penalty>  (155) 
0

>  <ligand_id>  (155) 
46

>  <original_smiles>  (155) 
c1nc2nc(-c3cn[nH]c3)c3sccc3n2n1

>  <smiles>  (155) 
[H]c1nc2nc(-c3c([H])nn([H])c3[H])c3sc([H])c([H])c3n2n1

$$$$
47:0:0
     RDKit          3D

 61 65  0  0  1  0  0  0  0  0999 V2000
   -1.2659   -8.4813    4.6961 C   0  0  0  0  0  0  0  0  0  0  0  0
   -0.4972   -7.5004    3.8344 C   0  0  1  0  0  0  0  0  0  0  0  0
   -1.3627   -7.1234    2.7881 O   0  0  0  0  0  0  0  0  0  0  0  0
   -0.1010   -6.2941    4.6785 C   0  0  0  0  0  0  0  0  0  0  0  0
    0.9488   -5.3987    4.0127 C   0  0  0  0  0  0  0  0  0  0  0  0
    2.1599   -6.2442    3.5744 C   0  0  1  0  0  0  0  0  0  0  0  0
    1.6716   -7.2952    2.5535 C   0  0  1  0  0  0  0  0  0  0  0  0
    2.8562   -8.0358    1.9428 C   0  0  0  0  0  0  0  0  0  0  0  0
    3.7717   -7.0862    1.1387 C   0  0  0  0  0  0  0  0  0  0  0  0
    3.7350   -5.6181    1.5986 C   0  0  2  0  0  0  0  0  0  0  0  0
    5.0386   -4.9091    1.1675 C   0  0  1  0  0  0  0  0  0  0  0  0
    5.0093   -4.6066   -0.3407 C   0  0  0  0  0  0  0  0  0  0  0  0
    6.2263   -3.7893   -0.8317 C   0  0  1  0  0  0  0  0  0  0  0  0
    6.1227   -3.5095   -2.3469 C   0  0  0  0  0  0  0  0  0  0  0  0
    5.0942   -2.4972   -2.7346 C   0  0  0  0  0  0  0  0  0  0  0  0
    4.5164   -2.5886   -3.8192 O   0  0  0  0  0  0  0  0  0  0  0  0
    4.9333   -1.3157   -1.8033 C   0  0  0  0  0  0  0  0  0  0  0  0
    4.4995   -0.2593   -2.2497 O   0  0  0  0  0  0  0  0  0  0  0  0
    5.3303   -1.4864   -0.3106 C   0  0  0  0  0  0  0  0  0  0  0  0
    6.4756   -2.5084   -0.0196 C   0  0  2  0  0  0  0  0  0  0  0  0
    7.8875   -1.9916   -0.3301 C   0  0  0  0  0  0  0  0  0  0  0  0
    6.5360   -2.8684    1.4587 C   0  0  0  0  0  0  0  0  0  0  0  0
    5.3379   -3.6478    1.9446 C   0  0  0  0  0  0  0  0  0  0  0  0
    4.6221   -3.2292    2.9999 C   0  0  0  0  0  0  0  0  0  0  0  0
    3.4501   -3.9890    3.5519 C   0  0  0  0  0  0  0  0  0  0  0  0
    3.4394   -5.4683    3.1087 C   0  0  1  0  0  0  0  0  0  0  0  0
    0.6875   -8.2562    3.2224 C   0  0  0  0  0  0  0  0  0  0  0  0
   -0.6327   -8.8522    5.5002 H   0  0  0  0  0  0  0  0  0  0  0  0
   -1.5102   -9.3196    4.0435 H   0  0  0  0  0  0  0  0  0  0  0  0
   -2.1611   -8.0779    5.0883 H   0  0  0  0  0  0  0  0  0  0  0  0
   -1.5392   -7.8857    2.2610 H   0  0  0  0  0  0  0  0  0  0  0  0
   -0.9768   -5.6894    4.8692 H   0  0  0  0  0  0  0  0  0  0  0  0
    0.2589   -6.6105    5.6591 H   0  0  0  0  0  0  0  0  0  0  0  0
    0.5193   -4.9007    3.1473 H   0  0  0  0  0  0  0  0  0  0  0  0
    1.2201   -4.6222    4.7262 H   0  0  0  0  0  0  0  0  0  0  0  0
    2.4678   -6.7806    4.4761 H   0  0  0  0  0  0  0  0  0  0  0  0
    1.1361   -6.8052    1.7370 H   0  0  0  0  0  0  0  0  0  0  0  0
    3.4184   -8.4973    2.7610 H   0  0  0  0  0  0  0  0  0  0  0  0
    2.5148   -8.8508    1.3046 H   0  0  0  0  0  0  0  0  0  0  0  0
    4.7859   -7.4917    1.1530 H   0  0  0  0  0  0  0  0  0  0  0  0
    3.4601   -7.0535    0.0856 H   0  0  0  0  0  0  0  0  0  0  0  0
    2.9051   -5.1363    1.0965 H   0  0  0  0  0  0  0  0  0  0  0  0
    5.8820   -5.5654    1.3706 H   0  0  0  0  0  0  0  0  0  0  0  0
    4.9841   -5.5359   -0.9104 H   0  0  0  0  0  0  0  0  0  0  0  0
    4.0905   -4.0673   -0.5903 H   0  0  0  0  0  0  0  0  0  0  0  0
    7.1329   -4.3845   -0.6710 H   0  0  0  0  0  0  0  0  0  0  0  0
    7.0965   -3.2236   -2.7312 H   0  0  0  0  0  0  0  0  0  0  0  0
    5.8052   -4.4086   -2.8636 H   0  0  0  0  0  0  0  0  0  0  0  0
    5.5722   -0.5186    0.1157 H   0  0  0  0  0  0  0  0  0  0  0  0
    4.4271   -1.8387    0.1814 H   0  0  0  0  0  0  0  0  0  0  0  0
    8.0820   -1.0386    0.1636 H   0  0  0  0  0  0  0  0  0  0  0  0
    7.9886   -1.9052   -1.4052 H   0  0  0  0  0  0  0  0  0  0  0  0
    8.7077   -2.6652   -0.0551 H   0  0  0  0  0  0  0  0  0  0  0  0
    7.4170   -3.4981    1.6338 H   0  0  0  0  0  0  0  0  0  0  0  0
    6.6368   -1.9595    2.0492 H   0  0  0  0  0  0  0  0  0  0  0  0
    4.8774   -2.3071    3.4897 H   0  0  0  0  0  0  0  0  0  0  0  0
    3.4924   -3.9192    4.6439 H   0  0  0  0  0  0  0  0  0  0  0  0
    2.5697   -3.4534    3.1960 H   0  0  0  0  0  0  0  0  0  0  0  0
    4.2772   -5.9519    3.6248 H   0  0  0  0  0  0  0  0  0  0  0  0
    1.2007   -8.8359    3.9849 H   0  0  0  0  0  0  0  0  0  0  0  0
    0.3218   -8.9735    2.4953 H   0  0  0  0  0  0  0  0  0  0  0  0
  1  2  1  0
  1 28  1  0
  1 29  1  0
  1 30  1  0
  2 27  1  0
  2  3  1  6
  2  4  1  0
  3 31  1  0
  4  5  1  0
  4 32  1  0
  4 33  1  0
  5  6  1  0
  5 34  1  0
  5 35  1  0
  6 26  1  0
  6  7  1  0
  6 36  1  1
  7  8  1  0
  7 27  1  0
  7 37  1  6
  8  9  1  0
  8 38  1  0
  8 39  1  0
  9 10  1  0
  9 40  1  0
  9 41  1  0
 10 26  1  0
 10 11  1  0
 10 42  1  6
 11 23  1  0
 11 12  1  0
 11 43  1  6
 12 13  1  0
 12 44  1  0
 12 45  1  0
 13 20  1  0
 13 14  1  0
 13 46  1  6
 14 15  1  0
 14 47  1  0
 14 48  1  0
 15 16  2  0
 15 17  1  0
 17 18  2  0
 17 19  1  0
 19 20  1  0
 19 49  1  0
 19 50  1  0
 20 21  1  6
 20 22  1  0
 21 51  1  0
 21 52  1  0
 21 53  1  0
 22 23  1  0
 22 54  1  0
 22 55  1  0
 23 24  2  0
 24 25  1  0
 24 56  1  0
 25 26  1  0
 25 57  1  0
 25 58  1  0
 26 59  1  1
 27 60  1  0
 27 61  1  0
M  END
>  <i_m_ct_stereo_status>  (156) 
1

>  <s_m_source_file>  (156) 
/var/tmp/pbs.5076255.sched01/tmppnbbzaq8/41bb87crku.sdf

>  <i_m_source_file_index>  (156) 
22

>  <i_lp_mmshare_version>  (156) 
48012

>  <i_f3d_flags>  (156) 
0

>  <s_epik_input>  (156) 
W0NIMl0xW0NIMl1bQ0BAXShbQ0gzXSkoW09IXSlbQ0gyXVtDQEhdKFtDSDJdW0NIMl0yKVtDQEhdMVtDQEhdKFtDSDJdW0NIXT1DM1tDSDJdNClbQ0BIXTJbQ0BIXTNbQ0gyXVtDQEhdKFtDQF00NVtDSDNdKVtDSDJdQyg9TylDKD1PKVtDSDJdNQ==

>  <s_epik_cmdline>  (156) 
J2VwaWtfcHl0aG9uJywgJy1waHQnLCAnMi4wJywgJy1waCcsICc3LjAnLCAnLXRuJywgJzgnLCAnLW1hJywgJzIwMCcsICctaW1hZScsICc8aW5maWxlLm1hZT4nLCAnLW9tYWUnLCAnPG91dGZpbGUubWFlPic=

>  <r_lp_tautomer_probability>  (156) 
1

>  <r_epik_Ionization_Penalty>  (156) 
2.87195e-06

>  <r_epik_Ionization_Penalty_Charging>  (156) 
0

>  <r_epik_Ionization_Penalty_Neutral>  (156) 
2.87195e-06

>  <r_epik_State_Penalty>  (156) 
-0

>  <r_epik_Charging_Adjusted_Penalty>  (156) 
0

>  <i_epik_Tot_Q>  (156) 
0

>  <i_epik_Tot_abs_Q>  (156) 
0

>  <s_lp_Force_Field>  (156) 
OPLS3e

>  <r_lp_Energy>  (156) 
35.392

>  <b_lp_Chiralities_Consistent>  (156) 
1

>  <s_lp_Variant>  (156) 
47:0-1

>  <s_i_glide_gridfile>  (156) 
pfpi4k_grid

>  <i_i_glide_lignum>  (156) 
22

>  <i_i_glide_rotatable_bonds>  (156) 
1

>  <r_i_docking_score>  (156) 
-3.75201

>  <r_i_glide_ligand_efficiency>  (156) 
-0.138963

>  <r_i_glide_ligand_efficiency_sa>  (156) 
-0.41689

>  <r_i_glide_ligand_efficiency_ln>  (156) 
-0.873406

>  <r_i_glide_gscore>  (156) 
-3.75201

>  <r_i_glide_lipo>  (156) 
-0.655218

>  <r_i_glide_hbond>  (156) 
-0.22439

>  <r_i_glide_metal>  (156) 
-0

>  <r_i_glide_rewards>  (156) 
-1.10065

>  <r_i_glide_evdw>  (156) 
-21.0341

>  <r_i_glide_ecoul>  (156) 
-4.4873

>  <r_i_glide_erotb>  (156) 
0

>  <r_i_glide_esite>  (156) 
-0.0469504

>  <r_i_glide_emodel>  (156) 
-31.8878

>  <r_i_glide_energy>  (156) 
-25.5214

>  <r_i_glide_einternal>  (156) 
0.141651

>  <r_i_glide_intrahb_reward>  (156) 
-0

>  <i_i_glide_confnum>  (156) 
2

>  <i_i_glide_posenum>  (156) 
3

>  <r_i_glide_eff_state_penalty>  (156) 
0

>  <ligand_id>  (156) 
47

>  <original_smiles>  (156) 
CC1(O)CCC2C(CCC3C4CC5CC(=O)C(=O)CC5(C)CC4=CCC23)C1

>  <smiles>  (156) 
[H]OC1(C([H])([H])[H])C([H])([H])C([H])([H])C2([H])C([H])(C([H])([H])C([H])([H])C3([H])C4([H])C(=C([H])C([H])([H])C32[H])C([H])([H])C2(C([H])([H])[H])C([H])([H])C(=O)C(=O)C([H])([H])C2([H])C4([H])[H])C1([H])[H]

$$$$
47:0:1
     RDKit          3D

 61 65  0  0  1  0  0  0  0  0999 V2000
    0.9111  -11.3190    3.7789 C   0  0  0  0  0  0  0  0  0  0  0  0
    0.7509   -9.7872    3.8823 C   0  0  1  0  0  0  0  0  0  0  0  0
   -0.6126   -9.4584    3.6842 O   0  0  0  0  0  0  0  0  0  0  0  0
    1.1370   -9.3043    5.2988 C   0  0  0  0  0  0  0  0  0  0  0  0
    1.3850   -7.7897    5.4258 C   0  0  0  0  0  0  0  0  0  0  0  0
    2.3568   -7.2769    4.3412 C   0  0  1  0  0  0  0  0  0  0  0  0
    1.7100   -7.5697    2.9725 C   0  0  1  0  0  0  0  0  0  0  0  0
    2.5264   -6.9173    1.8574 C   0  0  0  0  0  0  0  0  0  0  0  0
    2.5349   -5.3797    1.9609 C   0  0  0  0  0  0  0  0  0  0  0  0
    2.3571   -4.8240    3.3989 C   0  0  2  0  0  0  0  0  0  0  0  0
    2.9579   -3.3839    3.5013 C   0  0  1  0  0  0  0  0  0  0  0  0
    2.0364   -2.3424    2.8239 C   0  0  0  0  0  0  0  0  0  0  0  0
    2.5196   -0.8726    2.9571 C   0  0  1  0  0  0  0  0  0  0  0  0
    1.5444    0.1100    2.2619 C   0  0  0  0  0  0  0  0  0  0  0  0
    0.2802    0.4287    3.0640 C   0  0  0  0  0  0  0  0  0  0  0  0
   -0.7753    0.7020    2.4955 O   0  0  0  0  0  0  0  0  0  0  0  0
    0.3627    0.3960    4.6055 C   0  0  0  0  0  0  0  0  0  0  0  0
   -0.4473    0.9995    5.3071 O   0  0  0  0  0  0  0  0  0  0  0  0
    1.4693   -0.4494    5.2419 C   0  0  0  0  0  0  0  0  0  0  0  0
    2.7948   -0.4769    4.4399 C   0  0  2  0  0  0  0  0  0  0  0  0
    3.4841    0.9093    4.5199 C   0  0  0  0  0  0  0  0  0  0  0  0
    3.7673   -1.5112    5.0559 C   0  0  0  0  0  0  0  0  0  0  0  0
    3.2800   -2.9485    4.9202 C   0  0  0  0  0  0  0  0  0  0  0  0
    3.1696   -3.7658    5.9808 C   0  0  0  0  0  0  0  0  0  0  0  0
    2.7515   -5.2167    5.8948 C   0  0  0  0  0  0  0  0  0  0  0  0
    2.8964   -5.8052    4.4748 C   0  0  1  0  0  0  0  0  0  0  0  0
    1.5644   -9.0894    2.7667 C   0  0  0  0  0  0  0  0  0  0  0  0
    1.9586  -11.5979    3.9294 H   0  0  0  0  0  0  0  0  0  0  0  0
    0.6081  -11.6985    2.7990 H   0  0  0  0  0  0  0  0  0  0  0  0
    0.3254  -11.8358    4.5445 H   0  0  0  0  0  0  0  0  0  0  0  0
   -1.1482  -10.0238    4.2445 H   0  0  0  0  0  0  0  0  0  0  0  0
    0.3551   -9.5991    5.9989 H   0  0  0  0  0  0  0  0  0  0  0  0
    2.0309   -9.8333    5.6231 H   0  0  0  0  0  0  0  0  0  0  0  0
    0.4379   -7.2562    5.3620 H   0  0  0  0  0  0  0  0  0  0  0  0
    1.7826   -7.6096    6.4221 H   0  0  0  0  0  0  0  0  0  0  0  0
    3.2434   -7.9115    4.4188 H   0  0  0  0  0  0  0  0  0  0  0  0
    0.7061   -7.1412    2.9436 H   0  0  0  0  0  0  0  0  0  0  0  0
    3.5528   -7.2904    1.9034 H   0  0  0  0  0  0  0  0  0  0  0  0
    2.1228   -7.2150    0.8891 H   0  0  0  0  0  0  0  0  0  0  0  0
    3.4540   -5.0097    1.5026 H   0  0  0  0  0  0  0  0  0  0  0  0
    1.7251   -4.9902    1.3464 H   0  0  0  0  0  0  0  0  0  0  0  0
    1.2865   -4.7528    3.5931 H   0  0  0  0  0  0  0  0  0  0  0  0
    3.9212   -3.3797    2.9890 H   0  0  0  0  0  0  0  0  0  0  0  0
    1.9464   -2.5811    1.7644 H   0  0  0  0  0  0  0  0  0  0  0  0
    1.0330   -2.4390    3.2412 H   0  0  0  0  0  0  0  0  0  0  0  0
    3.4650   -0.8033    2.4144 H   0  0  0  0  0  0  0  0  0  0  0  0
    2.0472    1.0559    2.0622 H   0  0  0  0  0  0  0  0  0  0  0  0
    1.2505   -0.2909    1.2902 H   0  0  0  0  0  0  0  0  0  0  0  0
    1.6491   -0.0792    6.2517 H   0  0  0  0  0  0  0  0  0  0  0  0
    1.0697   -1.4578    5.3447 H   0  0  0  0  0  0  0  0  0  0  0  0
    3.7141    1.1710    5.5525 H   0  0  0  0  0  0  0  0  0  0  0  0
    2.8662    1.7154    4.1225 H   0  0  0  0  0  0  0  0  0  0  0  0
    4.4233    0.9234    3.9642 H   0  0  0  0  0  0  0  0  0  0  0  0
    4.7328   -1.4462    4.5463 H   0  0  0  0  0  0  0  0  0  0  0  0
    3.9546   -1.2813    6.1056 H   0  0  0  0  0  0  0  0  0  0  0  0
    3.3854   -3.3997    6.9709 H   0  0  0  0  0  0  0  0  0  0  0  0
    3.3601   -5.7899    6.5958 H   0  0  0  0  0  0  0  0  0  0  0  0
    1.7165   -5.2568    6.2324 H   0  0  0  0  0  0  0  0  0  0  0  0
    3.9711   -5.8691    4.2836 H   0  0  0  0  0  0  0  0  0  0  0  0
    2.5499   -9.5468    2.6879 H   0  0  0  0  0  0  0  0  0  0  0  0
    1.0772   -9.2816    1.8095 H   0  0  0  0  0  0  0  0  0  0  0  0
  1  2  1  0
  1 28  1  0
  1 29  1  0
  1 30  1  0
  2 27  1  0
  2  3  1  6
  2  4  1  0
  3 31  1  0
  4  5  1  0
  4 32  1  0
  4 33  1  0
  5  6  1  0
  5 34  1  0
  5 35  1  0
  6 26  1  0
  6  7  1  0
  6 36  1  6
  7  8  1  0
  7 27  1  0
  7 37  1  1
  8  9  1  0
  8 38  1  0
  8 39  1  0
  9 10  1  0
  9 40  1  0
  9 41  1  0
 10 26  1  0
 10 11  1  0
 10 42  1  1
 11 23  1  0
 11 12  1  0
 11 43  1  6
 12 13  1  0
 12 44  1  0
 12 45  1  0
 13 20  1  0
 13 14  1  0
 13 46  1  6
 14 15  1  0
 14 47  1  0
 14 48  1  0
 15 16  2  0
 15 17  1  0
 17 18  2  0
 17 19  1  0
 19 20  1  0
 19 49  1  0
 19 50  1  0
 20 21  1  6
 20 22  1  0
 21 51  1  0
 21 52  1  0
 21 53  1  0
 22 23  1  0
 22 54  1  0
 22 55  1  0
 23 24  2  0
 24 25  1  0
 24 56  1  0
 25 26  1  0
 25 57  1  0
 25 58  1  0
 26 59  1  6
 27 60  1  0
 27 61  1  0
M  END
>  <i_m_ct_stereo_status>  (157) 
1

>  <s_m_source_file>  (157) 
/var/tmp/pbs.5076255.sched01/tmppnbbzaq8/41bb87crku.sdf

>  <i_m_source_file_index>  (157) 
22

>  <i_lp_mmshare_version>  (157) 
48012

>  <i_f3d_flags>  (157) 
0

>  <s_epik_input>  (157) 
W0NIMl0xW0NIMl1bQ0BAXShbQ0gzXSkoW09IXSlbQ0gyXVtDQEhdKFtDSDJdW0NIMl0yKVtDQEhdMVtDQEhdKFtDSDJdW0NIXT1DM1tDSDJdNClbQ0BIXTJbQ0BIXTNbQ0gyXVtDQEhdKFtDQF00NVtDSDNdKVtDSDJdQyg9TylDKD1PKVtDSDJdNQ==

>  <s_epik_cmdline>  (157) 
J2VwaWtfcHl0aG9uJywgJy1waHQnLCAnMi4wJywgJy1waCcsICc3LjAnLCAnLXRuJywgJzgnLCAnLW1hJywgJzIwMCcsICctaW1hZScsICc8aW5maWxlLm1hZT4nLCAnLW9tYWUnLCAnPG91dGZpbGUubWFlPic=

>  <r_lp_tautomer_probability>  (157) 
1

>  <r_epik_Ionization_Penalty>  (157) 
2.87195e-06

>  <r_epik_Ionization_Penalty_Charging>  (157) 
0

>  <r_epik_Ionization_Penalty_Neutral>  (157) 
2.87195e-06

>  <r_epik_State_Penalty>  (157) 
-0

>  <r_epik_Charging_Adjusted_Penalty>  (157) 
0

>  <i_epik_Tot_Q>  (157) 
0

>  <i_epik_Tot_abs_Q>  (157) 
0

>  <s_lp_Force_Field>  (157) 
OPLS3e

>  <r_lp_Energy>  (157) 
35.392

>  <b_lp_Chiralities_Consistent>  (157) 
1

>  <s_lp_Variant>  (157) 
47:0-1

>  <s_i_glide_gridfile>  (157) 
pfpi4k_grid

>  <i_i_glide_lignum>  (157) 
22

>  <i_i_glide_rotatable_bonds>  (157) 
1

>  <r_i_docking_score>  (157) 
-3.07554

>  <r_i_glide_ligand_efficiency>  (157) 
-0.113909

>  <r_i_glide_ligand_efficiency_sa>  (157) 
-0.341727

>  <r_i_glide_ligand_efficiency_ln>  (157) 
-0.715935

>  <r_i_glide_gscore>  (157) 
-3.07554

>  <r_i_glide_lipo>  (157) 
-0.162966

>  <r_i_glide_hbond>  (157) 
-0.16

>  <r_i_glide_metal>  (157) 
-0

>  <r_i_glide_rewards>  (157) 
-0.882784

>  <r_i_glide_evdw>  (157) 
-23.6131

>  <r_i_glide_ecoul>  (157) 
-4.34011

>  <r_i_glide_erotb>  (157) 
0

>  <r_i_glide_esite>  (157) 
-0.0381168

>  <r_i_glide_emodel>  (157) 
-33.8026

>  <r_i_glide_energy>  (157) 
-27.9532

>  <r_i_glide_einternal>  (157) 
0.119992

>  <r_i_glide_intrahb_reward>  (157) 
-0

>  <i_i_glide_confnum>  (157) 
1

>  <i_i_glide_posenum>  (157) 
25

>  <r_i_glide_eff_state_penalty>  (157) 
0

>  <ligand_id>  (157) 
47

>  <original_smiles>  (157) 
CC1(O)CCC2C(CCC3C4CC5CC(=O)C(=O)CC5(C)CC4=CCC23)C1

>  <smiles>  (157) 
[H]OC1(C([H])([H])[H])C([H])([H])C([H])([H])C2([H])C([H])(C([H])([H])C([H])([H])C3([H])C4([H])C(=C([H])C([H])([H])C32[H])C([H])([H])C2(C([H])([H])[H])C([H])([H])C(=O)C(=O)C([H])([H])C2([H])C4([H])[H])C1([H])[H]

$$$$
47:0:2
     RDKit          3D

 61 65  0  0  1  0  0  0  0  0999 V2000
    0.5874  -10.2919    3.0148 C   0  0  0  0  0  0  0  0  0  0  0  0
    0.2797   -8.7635    3.1468 C   0  0  1  0  0  0  0  0  0  0  0  0
   -0.9100   -8.5470    2.4265 O   0  0  0  0  0  0  0  0  0  0  0  0
    0.0666   -8.4262    4.6306 C   0  0  0  0  0  0  0  0  0  0  0  0
    0.1441   -6.9147    4.9626 C   0  0  0  0  0  0  0  0  0  0  0  0
    1.4307   -6.2750    4.3789 C   0  0  1  0  0  0  0  0  0  0  0  0
    1.3873   -6.4646    2.8482 C   0  0  1  0  0  0  0  0  0  0  0  0
    2.5180   -5.6837    2.1819 C   0  0  0  0  0  0  0  0  0  0  0  0
    2.4075   -4.1682    2.4226 C   0  0  0  0  0  0  0  0  0  0  0  0
    1.6345   -3.7498    3.7014 C   0  0  2  0  0  0  0  0  0  0  0  0
    2.0562   -2.3094    4.1418 C   0  0  1  0  0  0  0  0  0  0  0  0
    1.4039   -1.2423    3.2314 C   0  0  0  0  0  0  0  0  0  0  0  0
    1.6945    0.2250    3.6508 C   0  0  1  0  0  0  0  0  0  0  0  0
    0.9961    1.2306    2.7044 C   0  0  0  0  0  0  0  0  0  0  0  0
   -0.5071    1.4186    2.9932 C   0  0  0  0  0  0  0  0  0  0  0  0
   -1.2801    1.6797    2.0804 O   0  0  0  0  0  0  0  0  0  0  0  0
   -0.9890    1.2804    4.4191 C   0  0  0  0  0  0  0  0  0  0  0  0
   -2.0167    1.8288    4.8229 O   0  0  0  0  0  0  0  0  0  0  0  0
   -0.1859    0.3988    5.3754 C   0  0  0  0  0  0  0  0  0  0  0  0
    1.3539    0.4939    5.1504 C   0  0  2  0  0  0  0  0  0  0  0  0
    1.8572    1.8857    5.5881 C   0  0  0  0  0  0  0  0  0  0  0  0
    2.0678   -0.5678    6.0162 C   0  0  0  0  0  0  0  0  0  0  0  0
    1.7721   -1.9950    5.5923 C   0  0  0  0  0  0  0  0  0  0  0  0
    1.3062   -2.9134    6.4693 C   0  0  0  0  0  0  0  0  0  0  0  0
    1.0547   -4.3533    6.1139 C   0  0  0  0  0  0  0  0  0  0  0  0
    1.7814   -4.8107    4.8286 C   0  0  1  0  0  0  0  0  0  0  0  0
    1.4262   -7.9660    2.4899 C   0  0  0  0  0  0  0  0  0  0  0  0
    1.5115  -10.5381    3.5423 H   0  0  0  0  0  0  0  0  0  0  0  0
    0.7060  -10.5983    1.9808 H   0  0  0  0  0  0  0  0  0  0  0  0
   -0.1985  -10.8981    3.4670 H   0  0  0  0  0  0  0  0  0  0  0  0
   -0.8101   -8.8915    1.5546 H   0  0  0  0  0  0  0  0  0  0  0  0
   -0.9081   -8.7999    4.9457 H   0  0  0  0  0  0  0  0  0  0  0  0
    0.7956   -8.9474    5.2392 H   0  0  0  0  0  0  0  0  0  0  0  0
   -0.7315   -6.4104    4.5702 H   0  0  0  0  0  0  0  0  0  0  0  0
    0.1191   -6.8210    6.0449 H   0  0  0  0  0  0  0  0  0  0  0  0
    2.2533   -6.8885    4.7553 H   0  0  0  0  0  0  0  0  0  0  0  0
    0.4494   -6.0597    2.4671 H   0  0  0  0  0  0  0  0  0  0  0  0
    3.4720   -6.0207    2.6150 H   0  0  0  0  0  0  0  0  0  0  0  0
    2.5735   -5.8961    1.1137 H   0  0  0  0  0  0  0  0  0  0  0  0
    3.3904   -3.7158    2.3712 H   0  0  0  0  0  0  0  0  0  0  0  0
    1.8598   -3.7379    1.5681 H   0  0  0  0  0  0  0  0  0  0  0  0
    0.5765   -3.7257    3.4666 H   0  0  0  0  0  0  0  0  0  0  0  0
    3.1375   -2.2220    4.0478 H   0  0  0  0  0  0  0  0  0  0  0  0
    1.7436   -1.3802    2.2038 H   0  0  0  0  0  0  0  0  0  0  0  0
    0.3232   -1.4043    3.2188 H   0  0  0  0  0  0  0  0  0  0  0  0
    2.7710    0.3807    3.5293 H   0  0  0  0  0  0  0  0  0  0  0  0
    1.4716    2.2079    2.7788 H   0  0  0  0  0  0  0  0  0  0  0  0
    1.1245    0.9120    1.6645 H   0  0  0  0  0  0  0  0  0  0  0  0
   -0.4361    0.6805    6.3948 H   0  0  0  0  0  0  0  0  0  0  0  0
   -0.5271   -0.6265    5.2259 H   0  0  0  0  0  0  0  0  0  0  0  0
    1.6519    2.0597    6.6497 H   0  0  0  0  0  0  0  0  0  0  0  0
    1.3915    2.7059    5.0428 H   0  0  0  0  0  0  0  0  0  0  0  0
    2.9320    1.9798    5.4510 H   0  0  0  0  0  0  0  0  0  0  0  0
    3.1490   -0.4186    5.9331 H   0  0  0  0  0  0  0  0  0  0  0  0
    1.8210   -0.4247    7.0695 H   0  0  0  0  0  0  0  0  0  0  0  0
    1.0949   -2.6327    7.4830 H   0  0  0  0  0  0  0  0  0  0  0  0
    1.3782   -4.9741    6.9558 H   0  0  0  0  0  0  0  0  0  0  0  0
   -0.0290   -4.4663    6.0180 H   0  0  0  0  0  0  0  0  0  0  0  0
    2.8423   -4.8218    5.0745 H   0  0  0  0  0  0  0  0  0  0  0  0
    2.3834   -8.3745    2.7802 H   0  0  0  0  0  0  0  0  0  0  0  0
    1.3614   -8.0788    1.4098 H   0  0  0  0  0  0  0  0  0  0  0  0
  1  2  1  0
  1 28  1  0
  1 29  1  0
  1 30  1  0
  2 27  1  0
  2  3  1  6
  2  4  1  0
  3 31  1  0
  4  5  1  0
  4 32  1  0
  4 33  1  0
  5  6  1  0
  5 34  1  0
  5 35  1  0
  6 26  1  0
  6  7  1  0
  6 36  1  1
  7  8  1  0
  7 27  1  0
  7 37  1  6
  8  9  1  0
  8 38  1  0
  8 39  1  0
  9 10  1  0
  9 40  1  0
  9 41  1  0
 10 26  1  0
 10 11  1  0
 10 42  1  6
 11 23  1  0
 11 12  1  0
 11 43  1  1
 12 13  1  0
 12 44  1  0
 12 45  1  0
 13 20  1  0
 13 14  1  0
 13 46  1  1
 14 15  1  0
 14 47  1  0
 14 48  1  0
 15 16  2  0
 15 17  1  0
 17 18  2  0
 17 19  1  0
 19 20  1  0
 19 49  1  0
 19 50  1  0
 20 21  1  1
 20 22  1  0
 21 51  1  0
 21 52  1  0
 21 53  1  0
 22 23  1  0
 22 54  1  0
 22 55  1  0
 23 24  2  0
 24 25  1  0
 24 56  1  0
 25 26  1  0
 25 57  1  0
 25 58  1  0
 26 59  1  1
 27 60  1  0
 27 61  1  0
M  END
>  <i_m_ct_stereo_status>  (158) 
1

>  <s_m_source_file>  (158) 
/var/tmp/pbs.5076255.sched01/tmppnbbzaq8/41bb87crku.sdf

>  <i_m_source_file_index>  (158) 
22

>  <i_lp_mmshare_version>  (158) 
48012

>  <i_f3d_flags>  (158) 
0

>  <s_epik_input>  (158) 
W0NIMl0xW0NIMl1bQ0BAXShbQ0gzXSkoW09IXSlbQ0gyXVtDQEhdKFtDSDJdW0NIMl0yKVtDQEhdMVtDQEhdKFtDSDJdW0NIXT1DM1tDSDJdNClbQ0BIXTJbQ0BIXTNbQ0gyXVtDQEhdKFtDQF00NVtDSDNdKVtDSDJdQyg9TylDKD1PKVtDSDJdNQ==

>  <s_epik_cmdline>  (158) 
J2VwaWtfcHl0aG9uJywgJy1waHQnLCAnMi4wJywgJy1waCcsICc3LjAnLCAnLXRuJywgJzgnLCAnLW1hJywgJzIwMCcsICctaW1hZScsICc8aW5maWxlLm1hZT4nLCAnLW9tYWUnLCAnPG91dGZpbGUubWFlPic=

>  <r_lp_tautomer_probability>  (158) 
1

>  <r_epik_Ionization_Penalty>  (158) 
2.87195e-06

>  <r_epik_Ionization_Penalty_Charging>  (158) 
0

>  <r_epik_Ionization_Penalty_Neutral>  (158) 
2.87195e-06

>  <r_epik_State_Penalty>  (158) 
-0

>  <r_epik_Charging_Adjusted_Penalty>  (158) 
0

>  <i_epik_Tot_Q>  (158) 
0

>  <i_epik_Tot_abs_Q>  (158) 
0

>  <s_lp_Force_Field>  (158) 
OPLS3e

>  <r_lp_Energy>  (158) 
35.392

>  <b_lp_Chiralities_Consistent>  (158) 
1

>  <s_lp_Variant>  (158) 
47:0-1

>  <s_i_glide_gridfile>  (158) 
pfpi4k_grid

>  <i_i_glide_lignum>  (158) 
22

>  <i_i_glide_rotatable_bonds>  (158) 
1

>  <r_i_docking_score>  (158) 
-2.96883

>  <r_i_glide_ligand_efficiency>  (158) 
-0.109957

>  <r_i_glide_ligand_efficiency_sa>  (158) 
-0.32987

>  <r_i_glide_ligand_efficiency_ln>  (158) 
-0.691095

>  <r_i_glide_gscore>  (158) 
-2.96883

>  <r_i_glide_lipo>  (158) 
-0.0855844

>  <r_i_glide_hbond>  (158) 
-0.176597

>  <r_i_glide_metal>  (158) 
-0

>  <r_i_glide_rewards>  (158) 
-0.882784

>  <r_i_glide_evdw>  (158) 
-27.2587

>  <r_i_glide_ecoul>  (158) 
-2.64962

>  <r_i_glide_erotb>  (158) 
0

>  <r_i_glide_esite>  (158) 
-0.0634848

>  <r_i_glide_emodel>  (158) 
-35.4809

>  <r_i_glide_energy>  (158) 
-29.9084

>  <r_i_glide_einternal>  (158) 
0.11868

>  <r_i_glide_intrahb_reward>  (158) 
-0

>  <i_i_glide_confnum>  (158) 
2

>  <i_i_glide_posenum>  (158) 
2

>  <r_i_glide_eff_state_penalty>  (158) 
0

>  <ligand_id>  (158) 
47

>  <original_smiles>  (158) 
CC1(O)CCC2C(CCC3C4CC5CC(=O)C(=O)CC5(C)CC4=CCC23)C1

>  <smiles>  (158) 
[H]OC1(C([H])([H])[H])C([H])([H])C([H])([H])C2([H])C([H])(C([H])([H])C([H])([H])C3([H])C4([H])C(=C([H])C([H])([H])C32[H])C([H])([H])C2(C([H])([H])[H])C([H])([H])C(=O)C(=O)C([H])([H])C2([H])C4([H])[H])C1([H])[H]

$$$$
48:0:0
     RDKit          3D

 38 40  0  0  1  0  0  0  0  0999 V2000
   -4.6032    3.3861    2.3381 C   0  0  0  0  0  0  0  0  0  0  0  0
   -4.3736    4.7515    1.9253 N   0  0  0  0  0  0  0  0  0  0  0  0
   -5.2221    5.5723    1.2829 C   0  0  0  0  0  0  0  0  0  0  0  0
   -4.7196    6.7726    1.0093 N   0  0  0  0  0  0  0  0  0  0  0  0
   -3.4163    6.7455    1.4959 C   0  0  0  0  0  0  0  0  0  0  0  0
   -3.2215    5.5120    2.0817 C   0  0  0  0  0  0  0  0  0  0  0  0
   -2.0427    5.0530    2.7092 C   0  0  0  0  0  0  0  0  0  0  0  0
   -1.0231    4.6899    3.2759 C   0  0  0  0  0  0  0  0  0  0  0  0
    0.2348    4.2422    3.9044 C   0  0  0  0  0  0  0  0  0  0  0  0
    0.3963    2.9730    4.5165 C   0  0  0  0  0  0  0  0  0  0  0  0
   -0.6602    2.0583    4.6797 N   0  0  0  0  0  0  0  0  0  0  0  0
   -1.8947    2.4552    5.3340 C   0  0  0  0  0  0  0  0  0  0  0  0
   -2.1894    1.5187    6.5174 C   0  0  0  0  0  0  0  0  0  0  0  0
   -2.1773    0.1550    6.0907 O   0  0  0  0  0  0  0  0  0  0  0  0
   -0.9082   -0.2272    5.5545 C   0  0  0  0  0  0  0  0  0  0  0  0
   -0.5405    0.6462    4.3376 C   0  0  0  0  0  0  0  0  0  0  0  0
    1.5867    2.5964    5.0334 N   0  0  0  0  0  0  0  0  0  0  0  0
    2.6344    3.4244    4.9855 C   0  0  0  0  0  0  0  0  0  0  0  0
    2.5647    4.6306    4.4269 N   0  0  0  0  0  0  0  0  0  0  0  0
    1.4001    5.0488    3.8665 C   0  0  0  0  0  0  0  0  0  0  0  0
    1.4171    6.3148    3.2995 N   0  0  0  0  0  0  0  0  0  0  0  0
   -5.5895    3.0601    2.0012 H   0  0  0  0  0  0  0  0  0  0  0  0
   -4.5604    3.3317    3.4272 H   0  0  0  0  0  0  0  0  0  0  0  0
   -3.8399    2.7333    1.9068 H   0  0  0  0  0  0  0  0  0  0  0  0
   -6.2186    5.2762    0.9846 H   0  0  0  0  0  0  0  0  0  0  0  0
   -2.7490    7.6023    1.4125 H   0  0  0  0  0  0  0  0  0  0  0  0
   -1.8301    3.4861    5.6815 H   0  0  0  0  0  0  0  0  0  0  0  0
   -2.6873    2.4021    4.5899 H   0  0  0  0  0  0  0  0  0  0  0  0
   -1.4604    1.6657    7.3161 H   0  0  0  0  0  0  0  0  0  0  0  0
   -3.1687    1.7602    6.9311 H   0  0  0  0  0  0  0  0  0  0  0  0
   -0.1457   -0.1445    6.3301 H   0  0  0  0  0  0  0  0  0  0  0  0
   -0.9554   -1.2765    5.2620 H   0  0  0  0  0  0  0  0  0  0  0  0
   -1.2419    0.4510    3.5261 H   0  0  0  0  0  0  0  0  0  0  0  0
    0.4553    0.3983    3.9628 H   0  0  0  0  0  0  0  0  0  0  0  0
    3.5876    3.1387    5.4207 H   0  0  0  0  0  0  0  0  0  0  0  0
    0.6093    6.7316    2.8472 H   0  0  0  0  0  0  0  0  0  0  0  0
    3.3931    5.2328    4.4123 H   0  0  0  0  0  0  0  0  0  0  0  0
    2.2463    6.8858    3.2922 H   0  0  0  0  0  0  0  0  0  0  0  0
  1  2  1  0
  1 22  1  0
  1 23  1  0
  1 24  1  0
  2  6  1  0
  2  3  1  0
  3  4  2  0
  3 25  1  0
  4  5  1  0
  5  6  2  0
  5 26  1  0
  6  7  1  0
  7  8  3  0
  8  9  1  0
  9 20  2  0
  9 10  1  0
 10 11  1  0
 10 17  2  0
 11 16  1  0
 11 12  1  0
 12 13  1  0
 12 27  1  0
 12 28  1  0
 13 14  1  0
 13 29  1  0
 13 30  1  0
 14 15  1  0
 15 16  1  0
 15 31  1  0
 15 32  1  0
 16 33  1  0
 16 34  1  0
 17 18  1  0
 18 19  2  0
 18 35  1  0
 19 20  1  0
 19 37  1  0
 20 21  1  0
 21 36  1  0
 21 38  1  0
M  CHG  1  19   1
M  END
>  <i_m_ct_stereo_status>  (159) 
1

>  <s_m_source_file>  (159) 
/var/tmp/pbs.5076255.sched01/tmppnbbzaq8/41bb87crku.sdf

>  <i_m_source_file_index>  (159) 
23

>  <i_lp_mmshare_version>  (159) 
48012

>  <i_f3d_flags>  (159) 
0

>  <s_epik_input>  (159) 
W0NIM11uMVtjSF1uW2NIXWMxQyNDYzJjKFtuSF1bY0hdbmNcMj1OL1tIXSlOM1tDSDJdW0NIMl1PW0NIMl1bQ0gyXTM=

>  <s_epik_cmdline>  (159) 
J2VwaWtfcHl0aG9uJywgJy1waHQnLCAnMi4wJywgJy1waCcsICc3LjAnLCAnLXRuJywgJzgnLCAnLW1hJywgJzIwMCcsICctaW1hZScsICc8aW5maWxlLm1hZT4nLCAnLW9tYWUnLCAnPG91dGZpbGUubWFlPic=

>  <r_epik_Ionization_Penalty>  (159) 
5.77549

>  <r_epik_Ionization_Penalty_Charging>  (159) 
5.77529

>  <r_epik_Ionization_Penalty_Neutral>  (159) 
0.000202424

>  <r_epik_State_Penalty>  (159) 
0.0715734

>  <r_epik_Charging_Adjusted_Penalty>  (159) 
5.84686

>  <i_epik_Tot_Q>  (159) 
1

>  <i_epik_Tot_abs_Q>  (159) 
1

>  <s_lp_Force_Field>  (159) 
OPLS3e

>  <r_lp_Energy>  (159) 
32.2677

>  <b_lp_Chiralities_Consistent>  (159) 
1

>  <s_lp_Variant>  (159) 
48:0-1

>  <s_i_glide_gridfile>  (159) 
pfpi4k_grid

>  <i_i_glide_lignum>  (159) 
23

>  <i_i_glide_rotatable_bonds>  (159) 
3

>  <r_i_docking_score>  (159) 
-3.43889

>  <r_i_glide_ligand_efficiency>  (159) 
-0.163757

>  <r_i_glide_ligand_efficiency_sa>  (159) 
-0.451792

>  <r_i_glide_ligand_efficiency_ln>  (159) 
-0.850259

>  <r_i_glide_gscore>  (159) 
-3.43889

>  <r_i_glide_lipo>  (159) 
-0.266774

>  <r_i_glide_hbond>  (159) 
-0.311026

>  <r_i_glide_metal>  (159) 
-0

>  <r_i_glide_rewards>  (159) 
-1.78834

>  <r_i_glide_evdw>  (159) 
-14.4117

>  <r_i_glide_ecoul>  (159) 
-6.02247

>  <r_i_glide_erotb>  (159) 
0.668532

>  <r_i_glide_esite>  (159) 
-0.117332

>  <r_i_glide_emodel>  (159) 
-26.244

>  <r_i_glide_energy>  (159) 
-20.4342

>  <r_i_glide_einternal>  (159) 
2.62444

>  <r_i_glide_intrahb_reward>  (159) 
-0

>  <i_i_glide_confnum>  (159) 
3

>  <i_i_glide_posenum>  (159) 
8

>  <r_i_glide_eff_state_penalty>  (159) 
0

>  <ligand_id>  (159) 
48

>  <original_smiles>  (159) 
Cn1cncc1C#Cc1c(N2CCOCC2)[nH]cnc1=N

>  <smiles>  (159) 
[H]c1nc([H])n(C([H])([H])[H])c1C#Cc1c(N2C([H])([H])C([H])([H])OC([H])([H])C2([H])[H])nc([H])[n+]([H])c1N([H])[H]

$$$$
48:0:1
     RDKit          3D

 38 40  0  0  1  0  0  0  0  0999 V2000
    3.1059   -3.4479   -0.5476 C   0  0  0  0  0  0  0  0  0  0  0  0
    4.1815   -2.5100   -0.2711 N   0  0  0  0  0  0  0  0  0  0  0  0
    5.3965   -2.4896   -0.8480 C   0  0  0  0  0  0  0  0  0  0  0  0
    6.2028   -1.5213   -0.4194 N   0  0  0  0  0  0  0  0  0  0  0  0
    5.4443   -0.8474    0.5413 C   0  0  0  0  0  0  0  0  0  0  0  0
    4.2042   -1.4380    0.6156 C   0  0  0  0  0  0  0  0  0  0  0  0
    3.1368   -1.0112    1.4360 C   0  0  0  0  0  0  0  0  0  0  0  0
    2.2048   -0.6940    2.1629 C   0  0  0  0  0  0  0  0  0  0  0  0
    1.0578   -0.3119    2.9938 C   0  0  0  0  0  0  0  0  0  0  0  0
    0.5964   -1.0822    4.0987 C   0  0  0  0  0  0  0  0  0  0  0  0
    1.0879   -2.3530    4.4652 N   0  0  0  0  0  0  0  0  0  0  0  0
    1.3080   -3.4044    3.4832 C   0  0  0  0  0  0  0  0  0  0  0  0
    2.7783   -3.8617    3.5537 C   0  0  0  0  0  0  0  0  0  0  0  0
    3.0820   -4.2655    4.8862 O   0  0  0  0  0  0  0  0  0  0  0  0
    2.9551   -3.1891    5.8165 C   0  0  0  0  0  0  0  0  0  0  0  0
    1.5025   -2.6661    5.8318 C   0  0  0  0  0  0  0  0  0  0  0  0
   -0.4256   -0.6388    4.8657 N   0  0  0  0  0  0  0  0  0  0  0  0
   -1.0197    0.5194    4.5780 C   0  0  0  0  0  0  0  0  0  0  0  0
   -0.6572    1.2773    3.5418 N   0  0  0  0  0  0  0  0  0  0  0  0
    0.3670    0.8938    2.7475 C   0  0  0  0  0  0  0  0  0  0  0  0
    0.6909    1.7440    1.6924 N   0  0  0  0  0  0  0  0  0  0  0  0
    3.4415   -4.2081   -1.2635 H   0  0  0  0  0  0  0  0  0  0  0  0
    2.2519   -2.9117   -0.9700 H   0  0  0  0  0  0  0  0  0  0  0  0
    2.8074   -3.9458    0.3775 H   0  0  0  0  0  0  0  0  0  0  0  0
    5.6926   -3.2014   -1.6099 H   0  0  0  0  0  0  0  0  0  0  0  0
    5.8346    0.0052    1.0817 H   0  0  0  0  0  0  0  0  0  0  0  0
    0.6390   -4.2416    3.6962 H   0  0  0  0  0  0  0  0  0  0  0  0
    1.0487   -3.0596    2.4837 H   0  0  0  0  0  0  0  0  0  0  0  0
    2.9458   -4.6835    2.8589 H   0  0  0  0  0  0  0  0  0  0  0  0
    3.4710   -3.0691    3.2662 H   0  0  0  0  0  0  0  0  0  0  0  0
    3.2477   -3.5557    6.8012 H   0  0  0  0  0  0  0  0  0  0  0  0
    3.6505   -2.3879    5.5556 H   0  0  0  0  0  0  0  0  0  0  0  0
    1.4264   -1.8030    6.4968 H   0  0  0  0  0  0  0  0  0  0  0  0
    0.8464   -3.4383    6.2369 H   0  0  0  0  0  0  0  0  0  0  0  0
   -1.8433    0.8837    5.1783 H   0  0  0  0  0  0  0  0  0  0  0  0
    1.4276    1.4796    1.0558 H   0  0  0  0  0  0  0  0  0  0  0  0
   -1.1460    2.1503    3.3430 H   0  0  0  0  0  0  0  0  0  0  0  0
    0.2277    2.6401    1.5083 H   0  0  0  0  0  0  0  0  0  0  0  0
  1  2  1  0
  1 22  1  0
  1 23  1  0
  1 24  1  0
  2  6  1  0
  2  3  1  0
  3  4  2  0
  3 25  1  0
  4  5  1  0
  5  6  2  0
  5 26  1  0
  6  7  1  0
  7  8  3  0
  8  9  1  0
  9 20  2  0
  9 10  1  0
 10 11  1  0
 10 17  2  0
 11 16  1  0
 11 12  1  0
 12 13  1  0
 12 27  1  0
 12 28  1  0
 13 14  1  0
 13 29  1  0
 13 30  1  0
 14 15  1  0
 15 16  1  0
 15 31  1  0
 15 32  1  0
 16 33  1  0
 16 34  1  0
 17 18  1  0
 18 19  2  0
 18 35  1  0
 19 20  1  0
 19 37  1  0
 20 21  1  0
 21 36  1  0
 21 38  1  0
M  CHG  1  19   1
M  END
>  <i_m_ct_stereo_status>  (160) 
1

>  <s_m_source_file>  (160) 
/var/tmp/pbs.5076255.sched01/tmppnbbzaq8/41bb87crku.sdf

>  <i_m_source_file_index>  (160) 
23

>  <i_lp_mmshare_version>  (160) 
48012

>  <i_f3d_flags>  (160) 
0

>  <s_epik_input>  (160) 
W0NIM11uMVtjSF1uW2NIXWMxQyNDYzJjKFtuSF1bY0hdbmNcMj1OL1tIXSlOM1tDSDJdW0NIMl1PW0NIMl1bQ0gyXTM=

>  <s_epik_cmdline>  (160) 
J2VwaWtfcHl0aG9uJywgJy1waHQnLCAnMi4wJywgJy1waCcsICc3LjAnLCAnLXRuJywgJzgnLCAnLW1hJywgJzIwMCcsICctaW1hZScsICc8aW5maWxlLm1hZT4nLCAnLW9tYWUnLCAnPG91dGZpbGUubWFlPic=

>  <r_epik_Ionization_Penalty>  (160) 
5.77549

>  <r_epik_Ionization_Penalty_Charging>  (160) 
5.77529

>  <r_epik_Ionization_Penalty_Neutral>  (160) 
0.000202424

>  <r_epik_State_Penalty>  (160) 
0.0715734

>  <r_epik_Charging_Adjusted_Penalty>  (160) 
5.84686

>  <i_epik_Tot_Q>  (160) 
1

>  <i_epik_Tot_abs_Q>  (160) 
1

>  <s_lp_Force_Field>  (160) 
OPLS3e

>  <r_lp_Energy>  (160) 
32.2677

>  <b_lp_Chiralities_Consistent>  (160) 
1

>  <s_lp_Variant>  (160) 
48:0-1

>  <s_i_glide_gridfile>  (160) 
pfpi4k_grid

>  <i_i_glide_lignum>  (160) 
23

>  <i_i_glide_rotatable_bonds>  (160) 
3

>  <r_i_docking_score>  (160) 
-3.18293

>  <r_i_glide_ligand_efficiency>  (160) 
-0.151568

>  <r_i_glide_ligand_efficiency_sa>  (160) 
-0.418165

>  <r_i_glide_ligand_efficiency_ln>  (160) 
-0.786974

>  <r_i_glide_gscore>  (160) 
-3.18293

>  <r_i_glide_lipo>  (160) 
-0.215518

>  <r_i_glide_hbond>  (160) 
-0.266147

>  <r_i_glide_metal>  (160) 
-0

>  <r_i_glide_rewards>  (160) 
-1.46657

>  <r_i_glide_evdw>  (160) 
-17.9878

>  <r_i_glide_ecoul>  (160) 
-5.68274

>  <r_i_glide_erotb>  (160) 
0.668532

>  <r_i_glide_esite>  (160) 
-0.151431

>  <r_i_glide_emodel>  (160) 
-28.3844

>  <r_i_glide_energy>  (160) 
-23.6705

>  <r_i_glide_einternal>  (160) 
3.22259

>  <r_i_glide_intrahb_reward>  (160) 
-0

>  <i_i_glide_confnum>  (160) 
2

>  <i_i_glide_posenum>  (160) 
39

>  <r_i_glide_eff_state_penalty>  (160) 
0

>  <ligand_id>  (160) 
48

>  <original_smiles>  (160) 
Cn1cncc1C#Cc1c(N2CCOCC2)[nH]cnc1=N

>  <smiles>  (160) 
[H]c1nc([H])n(C([H])([H])[H])c1C#Cc1c(N2C([H])([H])C([H])([H])OC([H])([H])C2([H])[H])nc([H])[n+]([H])c1N([H])[H]

$$$$
48:0:2
     RDKit          3D

 38 40  0  0  1  0  0  0  0  0999 V2000
    3.0427   -3.2680   -0.8524 C   0  0  0  0  0  0  0  0  0  0  0  0
    4.1515   -2.4065   -0.4859 N   0  0  0  0  0  0  0  0  0  0  0  0
    5.3740   -2.3820   -1.0384 C   0  0  0  0  0  0  0  0  0  0  0  0
    6.2062   -1.4858   -0.5138 N   0  0  0  0  0  0  0  0  0  0  0  0
    5.4572   -0.8669    0.4907 C   0  0  0  0  0  0  0  0  0  0  0  0
    4.1978   -1.4257    0.4935 C   0  0  0  0  0  0  0  0  0  0  0  0
    3.1173   -1.0538    1.3233 C   0  0  0  0  0  0  0  0  0  0  0  0
    2.1726   -0.7450    2.0380 C   0  0  0  0  0  0  0  0  0  0  0  0
    1.0793   -0.3481    2.9292 C   0  0  0  0  0  0  0  0  0  0  0  0
    0.6238   -1.1532    4.0106 C   0  0  0  0  0  0  0  0  0  0  0  0
    1.1409   -2.4246    4.3395 N   0  0  0  0  0  0  0  0  0  0  0  0
    2.5709   -2.6972    4.3909 C   0  0  0  0  0  0  0  0  0  0  0  0
    2.9521   -3.2937    5.7525 C   0  0  0  0  0  0  0  0  0  0  0  0
    2.1506   -4.4439    6.0046 O   0  0  0  0  0  0  0  0  0  0  0  0
    0.7643   -4.1238    6.0910 C   0  0  0  0  0  0  0  0  0  0  0  0
    0.2766   -3.5260    4.7577 C   0  0  0  0  0  0  0  0  0  0  0  0
   -0.3924   -0.7273    4.7954 N   0  0  0  0  0  0  0  0  0  0  0  0
   -0.9677    0.4527    4.5713 C   0  0  0  0  0  0  0  0  0  0  0  0
   -0.6053    1.2444    3.5623 N   0  0  0  0  0  0  0  0  0  0  0  0
    0.3982    0.8737    2.7378 C   0  0  0  0  0  0  0  0  0  0  0  0
    0.7045    1.7479    1.6972 N   0  0  0  0  0  0  0  0  0  0  0  0
    3.3630   -3.9734   -1.6238 H   0  0  0  0  0  0  0  0  0  0  0  0
    2.2220   -2.6595   -1.2414 H   0  0  0  0  0  0  0  0  0  0  0  0
    2.7071   -3.8228    0.0259 H   0  0  0  0  0  0  0  0  0  0  0  0
    5.6594   -3.0399   -1.8523 H   0  0  0  0  0  0  0  0  0  0  0  0
    5.8766   -0.0814    1.1063 H   0  0  0  0  0  0  0  0  0  0  0  0
    2.8180   -3.3898    3.5839 H   0  0  0  0  0  0  0  0  0  0  0  0
    3.1533   -1.7897    4.2510 H   0  0  0  0  0  0  0  0  0  0  0  0
    4.0058   -3.5730    5.7465 H   0  0  0  0  0  0  0  0  0  0  0  0
    2.8218   -2.5547    6.5464 H   0  0  0  0  0  0  0  0  0  0  0  0
    0.2091   -5.0338    6.3243 H   0  0  0  0  0  0  0  0  0  0  0  0
    0.5936   -3.4223    6.9085 H   0  0  0  0  0  0  0  0  0  0  0  0
   -0.7661   -3.2210    4.8500 H   0  0  0  0  0  0  0  0  0  0  0  0
    0.3179   -4.2904    3.9823 H   0  0  0  0  0  0  0  0  0  0  0  0
   -1.7685    0.8083    5.2047 H   0  0  0  0  0  0  0  0  0  0  0  0
    1.4203    1.4991    1.0369 H   0  0  0  0  0  0  0  0  0  0  0  0
   -1.0940    2.1275    3.3979 H   0  0  0  0  0  0  0  0  0  0  0  0
    0.2373    2.6452    1.5408 H   0  0  0  0  0  0  0  0  0  0  0  0
  1  2  1  0
  1 22  1  0
  1 23  1  0
  1 24  1  0
  2  6  1  0
  2  3  1  0
  3  4  2  0
  3 25  1  0
  4  5  1  0
  5  6  2  0
  5 26  1  0
  6  7  1  0
  7  8  3  0
  8  9  1  0
  9 20  2  0
  9 10  1  0
 10 11  1  0
 10 17  2  0
 11 16  1  0
 11 12  1  0
 12 13  1  0
 12 27  1  0
 12 28  1  0
 13 14  1  0
 13 29  1  0
 13 30  1  0
 14 15  1  0
 15 16  1  0
 15 31  1  0
 15 32  1  0
 16 33  1  0
 16 34  1  0
 17 18  1  0
 18 19  2  0
 18 35  1  0
 19 20  1  0
 19 37  1  0
 20 21  1  0
 21 36  1  0
 21 38  1  0
M  CHG  1  19   1
M  END
>  <i_m_ct_stereo_status>  (161) 
1

>  <s_m_source_file>  (161) 
/var/tmp/pbs.5076255.sched01/tmppnbbzaq8/41bb87crku.sdf

>  <i_m_source_file_index>  (161) 
23

>  <i_lp_mmshare_version>  (161) 
48012

>  <i_f3d_flags>  (161) 
0

>  <s_epik_input>  (161) 
W0NIM11uMVtjSF1uW2NIXWMxQyNDYzJjKFtuSF1bY0hdbmNcMj1OL1tIXSlOM1tDSDJdW0NIMl1PW0NIMl1bQ0gyXTM=

>  <s_epik_cmdline>  (161) 
J2VwaWtfcHl0aG9uJywgJy1waHQnLCAnMi4wJywgJy1waCcsICc3LjAnLCAnLXRuJywgJzgnLCAnLW1hJywgJzIwMCcsICctaW1hZScsICc8aW5maWxlLm1hZT4nLCAnLW9tYWUnLCAnPG91dGZpbGUubWFlPic=

>  <r_epik_Ionization_Penalty>  (161) 
5.77549

>  <r_epik_Ionization_Penalty_Charging>  (161) 
5.77529

>  <r_epik_Ionization_Penalty_Neutral>  (161) 
0.000202424

>  <r_epik_State_Penalty>  (161) 
0.0715734

>  <r_epik_Charging_Adjusted_Penalty>  (161) 
5.84686

>  <i_epik_Tot_Q>  (161) 
1

>  <i_epik_Tot_abs_Q>  (161) 
1

>  <s_lp_Force_Field>  (161) 
OPLS3e

>  <r_lp_Energy>  (161) 
32.2677

>  <b_lp_Chiralities_Consistent>  (161) 
1

>  <s_lp_Variant>  (161) 
48:0-1

>  <s_i_glide_gridfile>  (161) 
pfpi4k_grid

>  <i_i_glide_lignum>  (161) 
23

>  <i_i_glide_rotatable_bonds>  (161) 
3

>  <r_i_docking_score>  (161) 
-3.08869

>  <r_i_glide_ligand_efficiency>  (161) 
-0.14708

>  <r_i_glide_ligand_efficiency_sa>  (161) 
-0.405784

>  <r_i_glide_ligand_efficiency_ln>  (161) 
-0.763672

>  <r_i_glide_gscore>  (161) 
-3.08869

>  <r_i_glide_lipo>  (161) 
-0.173192

>  <r_i_glide_hbond>  (161) 
-0.285416

>  <r_i_glide_metal>  (161) 
-0

>  <r_i_glide_rewards>  (161) 
-1.46983

>  <r_i_glide_evdw>  (161) 
-17.9844

>  <r_i_glide_ecoul>  (161) 
-5.11548

>  <r_i_glide_erotb>  (161) 
0.668532

>  <r_i_glide_esite>  (161) 
-0.162242

>  <r_i_glide_emodel>  (161) 
-28.0453

>  <r_i_glide_energy>  (161) 
-23.0998

>  <r_i_glide_einternal>  (161) 
2.88808

>  <r_i_glide_intrahb_reward>  (161) 
-0

>  <i_i_glide_confnum>  (161) 
6

>  <i_i_glide_posenum>  (161) 
6

>  <r_i_glide_eff_state_penalty>  (161) 
0

>  <ligand_id>  (161) 
48

>  <original_smiles>  (161) 
Cn1cncc1C#Cc1c(N2CCOCC2)[nH]cnc1=N

>  <smiles>  (161) 
[H]c1nc([H])n(C([H])([H])[H])c1C#Cc1c(N2C([H])([H])C([H])([H])OC([H])([H])C2([H])[H])nc([H])[n+]([H])c1N([H])[H]

$$$$
48:1:0
     RDKit          3D

 39 41  0  0  1  0  0  0  0  0999 V2000
    5.0932   -2.5787    2.4088 C   0  0  0  0  0  0  0  0  0  0  0  0
    4.3035   -2.9258    1.2228 N   0  0  0  0  0  0  0  0  0  0  0  0
    4.7634   -3.7356    0.2569 C   0  0  0  0  0  0  0  0  0  0  0  0
    3.7933   -3.8433   -0.6678 N   0  0  0  0  0  0  0  0  0  0  0  0
    2.7041   -3.0924   -0.3077 C   0  0  0  0  0  0  0  0  0  0  0  0
    3.0438   -2.5065    0.8823 C   0  0  0  0  0  0  0  0  0  0  0  0
    2.2199   -1.5957    1.6668 C   0  0  0  0  0  0  0  0  0  0  0  0
    1.5356   -0.8927    2.3926 C   0  0  0  0  0  0  0  0  0  0  0  0
    0.6910   -0.1121    3.2929 C   0  0  0  0  0  0  0  0  0  0  0  0
    0.2704   -0.5699    4.5743 C   0  0  0  0  0  0  0  0  0  0  0  0
    0.5395   -1.8515    5.1086 N   0  0  0  0  0  0  0  0  0  0  0  0
    1.0153   -2.0331    6.4772 C   0  0  0  0  0  0  0  0  0  0  0  0
    2.3255   -2.8493    6.4508 C   0  0  0  0  0  0  0  0  0  0  0  0
    2.1237   -4.0702    5.7353 O   0  0  0  0  0  0  0  0  0  0  0  0
    1.7406   -3.8507    4.3804 C   0  0  0  0  0  0  0  0  0  0  0  0
    0.4099   -3.0781    4.3356 C   0  0  0  0  0  0  0  0  0  0  0  0
   -0.4828    0.2191    5.3672 N   0  0  0  0  0  0  0  0  0  0  0  0
   -0.8445    1.4379    4.9559 C   0  0  0  0  0  0  0  0  0  0  0  0
   -0.5044    1.9223    3.7620 N   0  0  0  0  0  0  0  0  0  0  0  0
    0.2545    1.1797    2.9218 C   0  0  0  0  0  0  0  0  0  0  0  0
    0.5637    1.7433    1.6883 N   0  0  0  0  0  0  0  0  0  0  0  0
    6.1049   -2.9875    2.3333 H   0  0  0  0  0  0  0  0  0  0  0  0
    4.6075   -2.9882    3.2936 H   0  0  0  0  0  0  0  0  0  0  0  0
    5.1281   -1.4918    2.4932 H   0  0  0  0  0  0  0  0  0  0  0  0
    5.7273   -4.2149    0.2184 H   0  0  0  0  0  0  0  0  0  0  0  0
    1.8065   -3.0264   -0.9175 H   0  0  0  0  0  0  0  0  0  0  0  0
    1.1773   -1.0824    6.9879 H   0  0  0  0  0  0  0  0  0  0  0  0
    0.2655   -2.5832    7.0506 H   0  0  0  0  0  0  0  0  0  0  0  0
    3.1312   -2.2721    5.9900 H   0  0  0  0  0  0  0  0  0  0  0  0
    2.6517   -3.0969    7.4608 H   0  0  0  0  0  0  0  0  0  0  0  0
    2.5272   -3.2887    3.8831 H   0  0  0  0  0  0  0  0  0  0  0  0
    1.6480   -4.7967    3.8477 H   0  0  0  0  0  0  0  0  0  0  0  0
   -0.3868   -3.6893    4.7641 H   0  0  0  0  0  0  0  0  0  0  0  0
    0.1129   -2.8680    3.3120 H   0  0  0  0  0  0  0  0  0  0  0  0
   -1.4476    2.0740    5.5922 H   0  0  0  0  0  0  0  0  0  0  0  0
    1.0959    1.2212    1.0121 H   0  0  0  0  0  0  0  0  0  0  0  0
   -0.8096    2.8510    3.4692 H   0  0  0  0  0  0  0  0  0  0  0  0
    0.2702    2.6899    1.4185 H   0  0  0  0  0  0  0  0  0  0  0  0
    3.8524   -4.4065   -1.5138 H   0  0  0  0  0  0  0  0  0  0  0  0
  1  2  1  0
  1 22  1  0
  1 23  1  0
  1 24  1  0
  2  6  1  0
  2  3  1  0
  3  4  2  0
  3 25  1  0
  4  5  1  0
  4 39  1  0
  5  6  2  0
  5 26  1  0
  6  7  1  0
  7  8  3  0
  8  9  1  0
  9 20  2  0
  9 10  1  0
 10 11  1  0
 10 17  2  0
 11 16  1  0
 11 12  1  0
 12 13  1  0
 12 27  1  0
 12 28  1  0
 13 14  1  0
 13 29  1  0
 13 30  1  0
 14 15  1  0
 15 16  1  0
 15 31  1  0
 15 32  1  0
 16 33  1  0
 16 34  1  0
 17 18  1  0
 18 19  2  0
 18 35  1  0
 19 20  1  0
 19 37  1  0
 20 21  1  0
 21 36  1  0
 21 38  1  0
M  CHG  2   4   1  19   1
M  END
>  <i_m_ct_stereo_status>  (162) 
1

>  <s_m_source_file>  (162) 
/var/tmp/pbs.5076255.sched01/tmppnbbzaq8/41bb87crku.sdf

>  <i_m_source_file_index>  (162) 
24

>  <i_lp_mmshare_version>  (162) 
48012

>  <i_f3d_flags>  (162) 
0

>  <s_epik_input>  (162) 
W0NIM11uMVtjSF1uW2NIXWMxQyNDYzJjKFtuSF1bY0hdbmNcMj1OL1tIXSlOM1tDSDJdW0NIMl1PW0NIMl1bQ0gyXTM=

>  <s_epik_cmdline>  (162) 
J2VwaWtfcHl0aG9uJywgJy1waHQnLCAnMi4wJywgJy1waCcsICc3LjAnLCAnLXRuJywgJzgnLCAnLW1hJywgJzIwMCcsICctaW1hZScsICc8aW5maWxlLm1hZT4nLCAnLW9tYWUnLCAnPG91dGZpbGUubWFlPic=

>  <r_epik_Ionization_Penalty>  (162) 
7.0236

>  <r_epik_Ionization_Penalty_Charging>  (162) 
5.80289

>  <r_epik_Ionization_Penalty_Neutral>  (162) 
1.22071

>  <r_epik_State_Penalty>  (162) 
1.28771

>  <r_epik_Charging_Adjusted_Penalty>  (162) 
7.09059

>  <i_epik_Tot_Q>  (162) 
2

>  <i_epik_Tot_abs_Q>  (162) 
2

>  <s_lp_Force_Field>  (162) 
OPLS3e

>  <r_lp_Energy>  (162) 
40.3036

>  <b_lp_Chiralities_Consistent>  (162) 
1

>  <s_lp_Variant>  (162) 
48:0-2

>  <s_i_glide_gridfile>  (162) 
pfpi4k_grid

>  <i_i_glide_lignum>  (162) 
24

>  <i_i_glide_rotatable_bonds>  (162) 
3

>  <r_i_docking_score>  (162) 
-3.29307

>  <r_i_glide_ligand_efficiency>  (162) 
-0.156813

>  <r_i_glide_ligand_efficiency_sa>  (162) 
-0.432635

>  <r_i_glide_ligand_efficiency_ln>  (162) 
-0.814206

>  <r_i_glide_gscore>  (162) 
-3.29307

>  <r_i_glide_lipo>  (162) 
-0.0989451

>  <r_i_glide_hbond>  (162) 
-0.2

>  <r_i_glide_metal>  (162) 
-0

>  <r_i_glide_rewards>  (162) 
-1.51835

>  <r_i_glide_evdw>  (162) 
-13.9486

>  <r_i_glide_ecoul>  (162) 
-8.71891

>  <r_i_glide_erotb>  (162) 
0.66444

>  <r_i_glide_esite>  (162) 
-0.134957

>  <r_i_glide_emodel>  (162) 
-27.7745

>  <r_i_glide_energy>  (162) 
-22.6675

>  <r_i_glide_einternal>  (162) 
2.908

>  <r_i_glide_intrahb_reward>  (162) 
-0

>  <i_i_glide_confnum>  (162) 
4

>  <i_i_glide_posenum>  (162) 
23

>  <r_i_glide_eff_state_penalty>  (162) 
0

>  <ligand_id>  (162) 
48

>  <original_smiles>  (162) 
Cn1cncc1C#Cc1c(N2CCOCC2)[nH]cnc1=N

>  <smiles>  (162) 
[H]c1nc(N2C([H])([H])C([H])([H])OC([H])([H])C2([H])[H])c(C#Cc2c([H])[n+]([H])c([H])n2C([H])([H])[H])c(N([H])[H])[n+]1[H]

$$$$
48:1:1
     RDKit          3D

 39 41  0  0  1  0  0  0  0  0999 V2000
    5.0931   -2.5675    2.4053 C   0  0  0  0  0  0  0  0  0  0  0  0
    4.3074   -2.9190    1.2211 N   0  0  0  0  0  0  0  0  0  0  0  0
    4.7690   -3.7169    0.2461 C   0  0  0  0  0  0  0  0  0  0  0  0
    3.7939   -3.8282   -0.6711 N   0  0  0  0  0  0  0  0  0  0  0  0
    2.7007   -3.0938   -0.2980 C   0  0  0  0  0  0  0  0  0  0  0  0
    3.0335   -2.5269    0.8993 C   0  0  0  0  0  0  0  0  0  0  0  0
    2.1794   -1.6584    1.6948 C   0  0  0  0  0  0  0  0  0  0  0  0
    1.4841   -0.9462    2.4047 C   0  0  0  0  0  0  0  0  0  0  0  0
    0.6812   -0.1133    3.3026 C   0  0  0  0  0  0  0  0  0  0  0  0
    0.2087   -0.5536    4.5673 C   0  0  0  0  0  0  0  0  0  0  0  0
    0.4619   -1.8358    5.1049 N   0  0  0  0  0  0  0  0  0  0  0  0
   -0.5840   -2.5972    5.7807 C   0  0  0  0  0  0  0  0  0  0  0  0
   -0.1048   -3.0298    7.1764 C   0  0  0  0  0  0  0  0  0  0  0  0
    1.1425   -3.7129    7.0692 O   0  0  0  0  0  0  0  0  0  0  0  0
    2.1688   -2.8877    6.5220 C   0  0  0  0  0  0  0  0  0  0  0  0
    1.7810   -2.4578    5.1006 C   0  0  0  0  0  0  0  0  0  0  0  0
   -0.5796    0.2393    5.3240 N   0  0  0  0  0  0  0  0  0  0  0  0
   -0.9119    1.4587    4.8982 C   0  0  0  0  0  0  0  0  0  0  0  0
   -0.5195    1.9359    3.7172 N   0  0  0  0  0  0  0  0  0  0  0  0
    0.2673    1.1858    2.9109 C   0  0  0  0  0  0  0  0  0  0  0  0
    0.6047    1.7424    1.6818 N   0  0  0  0  0  0  0  0  0  0  0  0
    6.1084   -2.9656    2.3309 H   0  0  0  0  0  0  0  0  0  0  0  0
    4.5981   -2.9726    3.2882 H   0  0  0  0  0  0  0  0  0  0  0  0
    5.1313   -1.4815    2.4890 H   0  0  0  0  0  0  0  0  0  0  0  0
    5.7320   -4.1928    0.1937 H   0  0  0  0  0  0  0  0  0  0  0  0
    1.8043   -3.0356   -0.9009 H   0  0  0  0  0  0  0  0  0  0  0  0
   -1.5249   -2.0492    5.8444 H   0  0  0  0  0  0  0  0  0  0  0  0
   -0.7745   -3.4802    5.1771 H   0  0  0  0  0  0  0  0  0  0  0  0
   -0.0017   -2.1632    7.8322 H   0  0  0  0  0  0  0  0  0  0  0  0
   -0.8346   -3.7003    7.6326 H   0  0  0  0  0  0  0  0  0  0  0  0
    2.3318   -2.0139    7.1561 H   0  0  0  0  0  0  0  0  0  0  0  0
    3.1058   -3.4446    6.4969 H   0  0  0  0  0  0  0  0  0  0  0  0
    1.7446   -3.3264    4.4429 H   0  0  0  0  0  0  0  0  0  0  0  0
    2.5422   -1.7794    4.7206 H   0  0  0  0  0  0  0  0  0  0  0  0
   -1.5271    2.1079    5.5115 H   0  0  0  0  0  0  0  0  0  0  0  0
    1.1486    1.2162    1.0148 H   0  0  0  0  0  0  0  0  0  0  0  0
   -0.8155    2.8644    3.4058 H   0  0  0  0  0  0  0  0  0  0  0  0
    0.3079    2.6797    1.3976 H   0  0  0  0  0  0  0  0  0  0  0  0
    3.8425   -4.3871   -1.5186 H   0  0  0  0  0  0  0  0  0  0  0  0
  1  2  1  0
  1 22  1  0
  1 23  1  0
  1 24  1  0
  2  6  1  0
  2  3  1  0
  3  4  2  0
  3 25  1  0
  4  5  1  0
  4 39  1  0
  5  6  2  0
  5 26  1  0
  6  7  1  0
  7  8  3  0
  8  9  1  0
  9 20  2  0
  9 10  1  0
 10 11  1  0
 10 17  2  0
 11 16  1  0
 11 12  1  0
 12 13  1  0
 12 27  1  0
 12 28  1  0
 13 14  1  0
 13 29  1  0
 13 30  1  0
 14 15  1  0
 15 16  1  0
 15 31  1  0
 15 32  1  0
 16 33  1  0
 16 34  1  0
 17 18  1  0
 18 19  2  0
 18 35  1  0
 19 20  1  0
 19 37  1  0
 20 21  1  0
 21 36  1  0
 21 38  1  0
M  CHG  2   4   1  19   1
M  END
>  <i_m_ct_stereo_status>  (163) 
1

>  <s_m_source_file>  (163) 
/var/tmp/pbs.5076255.sched01/tmppnbbzaq8/41bb87crku.sdf

>  <i_m_source_file_index>  (163) 
24

>  <i_lp_mmshare_version>  (163) 
48012

>  <i_f3d_flags>  (163) 
0

>  <s_epik_input>  (163) 
W0NIM11uMVtjSF1uW2NIXWMxQyNDYzJjKFtuSF1bY0hdbmNcMj1OL1tIXSlOM1tDSDJdW0NIMl1PW0NIMl1bQ0gyXTM=

>  <s_epik_cmdline>  (163) 
J2VwaWtfcHl0aG9uJywgJy1waHQnLCAnMi4wJywgJy1waCcsICc3LjAnLCAnLXRuJywgJzgnLCAnLW1hJywgJzIwMCcsICctaW1hZScsICc8aW5maWxlLm1hZT4nLCAnLW9tYWUnLCAnPG91dGZpbGUubWFlPic=

>  <r_epik_Ionization_Penalty>  (163) 
7.0236

>  <r_epik_Ionization_Penalty_Charging>  (163) 
5.80289

>  <r_epik_Ionization_Penalty_Neutral>  (163) 
1.22071

>  <r_epik_State_Penalty>  (163) 
1.28771

>  <r_epik_Charging_Adjusted_Penalty>  (163) 
7.09059

>  <i_epik_Tot_Q>  (163) 
2

>  <i_epik_Tot_abs_Q>  (163) 
2

>  <s_lp_Force_Field>  (163) 
OPLS3e

>  <r_lp_Energy>  (163) 
40.3036

>  <b_lp_Chiralities_Consistent>  (163) 
1

>  <s_lp_Variant>  (163) 
48:0-2

>  <s_i_glide_gridfile>  (163) 
pfpi4k_grid

>  <i_i_glide_lignum>  (163) 
24

>  <i_i_glide_rotatable_bonds>  (163) 
3

>  <r_i_docking_score>  (163) 
-2.96477

>  <r_i_glide_ligand_efficiency>  (163) 
-0.14118

>  <r_i_glide_ligand_efficiency_sa>  (163) 
-0.389504

>  <r_i_glide_ligand_efficiency_ln>  (163) 
-0.733034

>  <r_i_glide_gscore>  (163) 
-2.96477

>  <r_i_glide_lipo>  (163) 
-0.060486

>  <r_i_glide_hbond>  (163) 
-0.2

>  <r_i_glide_metal>  (163) 
-0

>  <r_i_glide_rewards>  (163) 
-1.51841

>  <r_i_glide_evdw>  (163) 
-14.3711

>  <r_i_glide_ecoul>  (163) 
-6.63689

>  <r_i_glide_erotb>  (163) 
0.66444

>  <r_i_glide_esite>  (163) 
-0.136234

>  <r_i_glide_emodel>  (163) 
-25.8194

>  <r_i_glide_energy>  (163) 
-21.008

>  <r_i_glide_einternal>  (163) 
2.6121

>  <r_i_glide_intrahb_reward>  (163) 
-0

>  <i_i_glide_confnum>  (163) 
4

>  <i_i_glide_posenum>  (163) 
2

>  <r_i_glide_eff_state_penalty>  (163) 
0

>  <ligand_id>  (163) 
48

>  <original_smiles>  (163) 
Cn1cncc1C#Cc1c(N2CCOCC2)[nH]cnc1=N

>  <smiles>  (163) 
[H]c1nc(N2C([H])([H])C([H])([H])OC([H])([H])C2([H])[H])c(C#Cc2c([H])[n+]([H])c([H])n2C([H])([H])[H])c(N([H])[H])[n+]1[H]

$$$$
48:1:2
     RDKit          3D

 39 41  0  0  1  0  0  0  0  0999 V2000
    2.4749   -3.3321   -1.5156 C   0  0  0  0  0  0  0  0  0  0  0  0
    3.6965   -3.4053   -0.7228 N   0  0  0  0  0  0  0  0  0  0  0  0
    4.8274   -3.9727   -1.1619 C   0  0  0  0  0  0  0  0  0  0  0  0
    5.7331   -3.8605   -0.1803 N   0  0  0  0  0  0  0  0  0  0  0  0
    5.1935   -3.2239    0.9111 C   0  0  0  0  0  0  0  0  0  0  0  0
    3.9042   -2.9366    0.5444 C   0  0  0  0  0  0  0  0  0  0  0  0
    2.9118   -2.2366    1.3400 C   0  0  0  0  0  0  0  0  0  0  0  0
    2.0727   -1.6513    2.0058 C   0  0  0  0  0  0  0  0  0  0  0  0
    1.1225   -0.9434    2.8595 C   0  0  0  0  0  0  0  0  0  0  0  0
    0.6151   -1.4832    4.0690 C   0  0  0  0  0  0  0  0  0  0  0  0
    0.9405   -2.7604    4.5764 N   0  0  0  0  0  0  0  0  0  0  0  0
   -0.0578   -3.5920    5.2378 C   0  0  0  0  0  0  0  0  0  0  0  0
    0.4435   -4.0340    6.6247 C   0  0  0  0  0  0  0  0  0  0  0  0
    1.7215   -4.6537    6.5004 O   0  0  0  0  0  0  0  0  0  0  0  0
    2.7019   -3.7664    5.9720 C   0  0  0  0  0  0  0  0  0  0  0  0
    2.2887   -3.3217    4.5644 C   0  0  0  0  0  0  0  0  0  0  0  0
   -0.2607   -0.7695    4.8113 N   0  0  0  0  0  0  0  0  0  0  0  0
   -0.6568    0.4396    4.4203 C   0  0  0  0  0  0  0  0  0  0  0  0
   -0.2423    0.9918    3.2804 N   0  0  0  0  0  0  0  0  0  0  0  0
    0.6401    0.3362    2.4985 C   0  0  0  0  0  0  0  0  0  0  0  0
    1.0482    0.9863    1.3372 N   0  0  0  0  0  0  0  0  0  0  0  0
    2.5925   -3.8559   -2.4660 H   0  0  0  0  0  0  0  0  0  0  0  0
    2.2555   -2.2824   -1.7130 H   0  0  0  0  0  0  0  0  0  0  0  0
    1.6625   -3.7760   -0.9388 H   0  0  0  0  0  0  0  0  0  0  0  0
    4.9699   -4.4383   -2.1204 H   0  0  0  0  0  0  0  0  0  0  0  0
    5.7512   -3.0296    1.8246 H   0  0  0  0  0  0  0  0  0  0  0  0
   -1.0135   -3.0800    5.3324 H   0  0  0  0  0  0  0  0  0  0  0  0
   -0.2166   -4.4722    4.6164 H   0  0  0  0  0  0  0  0  0  0  0  0
    0.5051   -3.1794    7.3021 H   0  0  0  0  0  0  0  0  0  0  0  0
   -0.2513   -4.7483    7.0678 H   0  0  0  0  0  0  0  0  0  0  0  0
    2.8240   -2.8971    6.6196 H   0  0  0  0  0  0  0  0  0  0  0  0
    3.6661   -4.2676    5.9213 H   0  0  0  0  0  0  0  0  0  0  0  0
    2.2944   -4.1704    3.8769 H   0  0  0  0  0  0  0  0  0  0  0  0
    3.0218   -2.5939    4.2243 H   0  0  0  0  0  0  0  0  0  0  0  0
   -1.3381    1.0155    5.0270 H   0  0  0  0  0  0  0  0  0  0  0  0
    1.5365    0.4511    0.6250 H   0  0  0  0  0  0  0  0  0  0  0  0
   -0.5919    1.9084    2.9949 H   0  0  0  0  0  0  0  0  0  0  0  0
    0.6013    1.8473    1.0423 H   0  0  0  0  0  0  0  0  0  0  0  0
    6.6817   -4.2154   -0.2357 H   0  0  0  0  0  0  0  0  0  0  0  0
  1  2  1  0
  1 22  1  0
  1 23  1  0
  1 24  1  0
  2  6  1  0
  2  3  1  0
  3  4  2  0
  3 25  1  0
  4  5  1  0
  4 39  1  0
  5  6  2  0
  5 26  1  0
  6  7  1  0
  7  8  3  0
  8  9  1  0
  9 20  2  0
  9 10  1  0
 10 11  1  0
 10 17  2  0
 11 16  1  0
 11 12  1  0
 12 13  1  0
 12 27  1  0
 12 28  1  0
 13 14  1  0
 13 29  1  0
 13 30  1  0
 14 15  1  0
 15 16  1  0
 15 31  1  0
 15 32  1  0
 16 33  1  0
 16 34  1  0
 17 18  1  0
 18 19  2  0
 18 35  1  0
 19 20  1  0
 19 37  1  0
 20 21  1  0
 21 36  1  0
 21 38  1  0
M  CHG  2   4   1  19   1
M  END
>  <i_m_ct_stereo_status>  (164) 
1

>  <s_m_source_file>  (164) 
/var/tmp/pbs.5076255.sched01/tmppnbbzaq8/41bb87crku.sdf

>  <i_m_source_file_index>  (164) 
24

>  <i_lp_mmshare_version>  (164) 
48012

>  <i_f3d_flags>  (164) 
0

>  <s_epik_input>  (164) 
W0NIM11uMVtjSF1uW2NIXWMxQyNDYzJjKFtuSF1bY0hdbmNcMj1OL1tIXSlOM1tDSDJdW0NIMl1PW0NIMl1bQ0gyXTM=

>  <s_epik_cmdline>  (164) 
J2VwaWtfcHl0aG9uJywgJy1waHQnLCAnMi4wJywgJy1waCcsICc3LjAnLCAnLXRuJywgJzgnLCAnLW1hJywgJzIwMCcsICctaW1hZScsICc8aW5maWxlLm1hZT4nLCAnLW9tYWUnLCAnPG91dGZpbGUubWFlPic=

>  <r_epik_Ionization_Penalty>  (164) 
7.0236

>  <r_epik_Ionization_Penalty_Charging>  (164) 
5.80289

>  <r_epik_Ionization_Penalty_Neutral>  (164) 
1.22071

>  <r_epik_State_Penalty>  (164) 
1.28771

>  <r_epik_Charging_Adjusted_Penalty>  (164) 
7.09059

>  <i_epik_Tot_Q>  (164) 
2

>  <i_epik_Tot_abs_Q>  (164) 
2

>  <s_lp_Force_Field>  (164) 
OPLS3e

>  <r_lp_Energy>  (164) 
40.3036

>  <b_lp_Chiralities_Consistent>  (164) 
1

>  <s_lp_Variant>  (164) 
48:0-2

>  <s_i_glide_gridfile>  (164) 
pfpi4k_grid

>  <i_i_glide_lignum>  (164) 
24

>  <i_i_glide_rotatable_bonds>  (164) 
3

>  <r_i_docking_score>  (164) 
-2.9467

>  <r_i_glide_ligand_efficiency>  (164) 
-0.140319

>  <r_i_glide_ligand_efficiency_sa>  (164) 
-0.38713

>  <r_i_glide_ligand_efficiency_ln>  (164) 
-0.728565

>  <r_i_glide_gscore>  (164) 
-2.9467

>  <r_i_glide_lipo>  (164) 
-0.158811

>  <r_i_glide_hbond>  (164) 
-0.0782154

>  <r_i_glide_metal>  (164) 
-0

>  <r_i_glide_rewards>  (164) 
-1.54344

>  <r_i_glide_evdw>  (164) 
-15.5263

>  <r_i_glide_ecoul>  (164) 
-6.08281

>  <r_i_glide_erotb>  (164) 
0.66444

>  <r_i_glide_esite>  (164) 
-0.141939

>  <r_i_glide_emodel>  (164) 
-26.1875

>  <r_i_glide_energy>  (164) 
-21.6091

>  <r_i_glide_einternal>  (164) 
2.80819

>  <r_i_glide_intrahb_reward>  (164) 
-0

>  <i_i_glide_confnum>  (164) 
5

>  <i_i_glide_posenum>  (164) 
5

>  <r_i_glide_eff_state_penalty>  (164) 
0

>  <ligand_id>  (164) 
48

>  <original_smiles>  (164) 
Cn1cncc1C#Cc1c(N2CCOCC2)[nH]cnc1=N

>  <smiles>  (164) 
[H]c1nc(N2C([H])([H])C([H])([H])OC([H])([H])C2([H])[H])c(C#Cc2c([H])[n+]([H])c([H])n2C([H])([H])[H])c(N([H])[H])[n+]1[H]

$$$$
49:0:0
     RDKit          3D

 65 70  0  0  1  0  0  0  0  0999 V2000
    2.2363   -3.5069   -1.1608 C   0  0  0  0  0  0  0  0  0  0  0  0
    2.9697   -3.9077   -0.1109 C   0  0  0  0  0  0  0  0  0  0  0  0
    2.6618   -5.0801    0.7137 C   0  0  0  0  0  0  0  0  0  0  0  0
    1.7006   -5.8161    0.5090 O   0  0  0  0  0  0  0  0  0  0  0  0
    3.7004   -5.2131    1.8738 C   0  0  2  0  0  0  0  0  0  0  0  0
    3.9132   -3.6574    2.0061 C   0  0  0  0  0  0  0  0  0  0  0  0
    4.0896   -3.1702    0.5595 C   0  0  1  0  0  0  0  0  0  0  0  0
    5.4530   -3.6112   -0.0124 C   0  0  0  0  0  0  0  0  0  0  0  0
    6.0986   -4.7320    0.8266 C   0  0  0  0  0  0  0  0  0  0  0  0
    5.0942   -5.8009    1.3774 C   0  0  2  0  0  0  0  0  0  0  0  0
    4.9295   -6.6954    0.2964 O   0  0  0  0  0  0  0  0  0  0  0  0
    5.6815   -6.6427    2.5546 C   0  0  1  0  0  0  0  0  0  0  0  0
    7.0691   -6.4385    2.7716 O   0  0  0  0  0  0  0  0  0  0  0  0
    4.8262   -6.2223    3.7729 C   0  0  2  0  0  0  0  0  0  0  0  0
    5.4029   -5.0236    4.2542 O   0  0  0  0  0  0  0  0  0  0  0  0
    4.9196   -7.1302    4.8273 O   0  0  0  0  0  0  0  0  0  0  0  0
    4.3328   -8.4057    4.7255 C   0  0  0  0  0  0  0  0  0  0  0  0
    2.8309   -8.2663    4.4850 C   0  0  2  0  0  0  0  0  0  0  0  0
    2.0948   -9.6284    4.5354 C   0  0  1  0  0  0  0  0  0  0  0  0
    2.4209  -10.3046    5.7347 O   0  0  0  0  0  0  0  0  0  0  0  0
    0.5811   -9.4007    4.5569 C   0  0  0  0  0  0  0  0  0  0  0  0
    0.1241   -8.5961    3.3332 C   0  0  1  0  0  0  0  0  0  0  0  0
   -1.4075   -8.4318    3.3207 C   0  0  0  0  0  0  0  0  0  0  0  0
    0.9304   -7.2595    3.1731 C   0  0  1  0  0  0  0  0  0  0  0  0
    0.3972   -6.1838    4.1437 C   0  0  0  0  0  0  0  0  0  0  0  0
    1.1209   -4.8499    3.9891 C   0  0  0  0  0  0  0  0  0  0  0  0
    2.6082   -5.0126    4.2876 C   0  0  1  0  0  0  0  0  0  0  0  0
    2.7194   -5.3422    5.6628 O   0  0  0  0  0  0  0  0  0  0  0  0
    3.3338   -5.9813    3.2636 C   0  0  1  0  0  0  0  0  0  0  0  0
    2.5226   -7.4183    3.2004 C   0  0  1  0  0  0  0  0  0  0  0  0
    2.9092   -8.3129    1.9688 C   0  0  0  0  0  0  0  0  0  0  0  0
    2.4424   -2.5855   -1.6776 H   0  0  0  0  0  0  0  0  0  0  0  0
    1.4055   -4.0916   -1.5182 H   0  0  0  0  0  0  0  0  0  0  0  0
    3.0289   -3.1504    2.3996 H   0  0  0  0  0  0  0  0  0  0  0  0
    4.7497   -3.3392    2.6245 H   0  0  0  0  0  0  0  0  0  0  0  0
    3.9434   -2.0949    0.4675 H   0  0  0  0  0  0  0  0  0  0  0  0
    5.3430   -3.9327   -1.0466 H   0  0  0  0  0  0  0  0  0  0  0  0
    6.1345   -2.7586   -0.0305 H   0  0  0  0  0  0  0  0  0  0  0  0
    6.8970   -5.2072    0.2574 H   0  0  0  0  0  0  0  0  0  0  0  0
    6.6042   -4.2426    1.6639 H   0  0  0  0  0  0  0  0  0  0  0  0
    4.5963   -6.2121   -0.4472 H   0  0  0  0  0  0  0  0  0  0  0  0
    5.5592   -7.7051    2.3656 H   0  0  0  0  0  0  0  0  0  0  0  0
    7.5296   -6.9075    2.0928 H   0  0  0  0  0  0  0  0  0  0  0  0
    6.3206   -5.2094    4.3817 H   0  0  0  0  0  0  0  0  0  0  0  0
    4.8359   -9.0481    4.0077 H   0  0  0  0  0  0  0  0  0  0  0  0
    4.5044   -8.8678    5.6961 H   0  0  0  0  0  0  0  0  0  0  0  0
    2.4505   -7.7515    5.3574 H   0  0  0  0  0  0  0  0  0  0  0  0
    2.3632  -10.2731    3.6974 H   0  0  0  0  0  0  0  0  0  0  0  0
    1.8799  -11.0822    5.8394 H   0  0  0  0  0  0  0  0  0  0  0  0
    0.0576  -10.3607    4.5841 H   0  0  0  0  0  0  0  0  0  0  0  0
    0.3030   -8.8755    5.4739 H   0  0  0  0  0  0  0  0  0  0  0  0
    0.3126   -9.2213    2.4630 H   0  0  0  0  0  0  0  0  0  0  0  0
   -1.7796   -7.9589    4.2317 H   0  0  0  0  0  0  0  0  0  0  0  0
   -1.8845   -9.4115    3.2596 H   0  0  0  0  0  0  0  0  0  0  0  0
   -1.7408   -7.8510    2.4598 H   0  0  0  0  0  0  0  0  0  0  0  0
    0.6297   -6.9206    2.1918 H   0  0  0  0  0  0  0  0  0  0  0  0
   -0.6547   -5.9982    3.9522 H   0  0  0  0  0  0  0  0  0  0  0  0
    0.4516   -6.5315    5.1758 H   0  0  0  0  0  0  0  0  0  0  0  0
    0.9782   -4.4556    2.9822 H   0  0  0  0  0  0  0  0  0  0  0  0
    0.6867   -4.1177    4.6713 H   0  0  0  0  0  0  0  0  0  0  0  0
    3.0591   -4.0247    4.2887 H   0  0  0  0  0  0  0  0  0  0  0  0
    2.4665   -6.2465    5.7748 H   0  0  0  0  0  0  0  0  0  0  0  0
    2.8818   -7.8065    1.0176 H   0  0  0  0  0  0  0  0  0  0  0  0
    2.2497   -9.1584    1.8125 H   0  0  0  0  0  0  0  0  0  0  0  0
    3.8795   -8.7880    2.0482 H   0  0  0  0  0  0  0  0  0  0  0  0
  1  2  2  0
  1 32  1  0
  1 33  1  0
  2  7  1  0
  2  3  1  0
  3  4  2  0
  5  3  1  6
  5 10  1  0
 29  5  1  6
  5  6  1  0
  6  7  1  0
  6 34  1  0
  6 35  1  0
  7  8  1  0
  7 36  1  1
  8  9  1  0
  8 37  1  0
  8 38  1  0
  9 10  1  0
  9 39  1  0
  9 40  1  0
 10 11  1  6
 10 12  1  0
 11 41  1  0
 12 13  1  0
 12 14  1  0
 12 42  1  6
 13 43  1  0
 14 29  1  0
 14 15  1  1
 14 16  1  0
 15 44  1  0
 16 17  1  0
 17 18  1  0
 17 45  1  0
 17 46  1  0
 18 30  1  0
 18 19  1  0
 18 47  1  1
 19 20  1  0
 19 21  1  0
 19 48  1  6
 20 49  1  0
 21 22  1  0
 21 50  1  0
 21 51  1  0
 22 23  1  0
 22 24  1  0
 22 52  1  6
 23 53  1  0
 23 54  1  0
 23 55  1  0
 24 30  1  0
 24 25  1  0
 24 56  1  6
 25 26  1  0
 25 57  1  0
 25 58  1  0
 26 27  1  0
 26 59  1  0
 26 60  1  0
 27 28  1  0
 27 29  1  0
 27 61  1  1
 28 62  1  0
 29 30  1  0
 30 31  1  6
 31 63  1  0
 31 64  1  0
 31 65  1  0
M  END
>  <i_m_ct_stereo_status>  (165) 
1

>  <s_m_source_file>  (165) 
/var/tmp/pbs.5076255.sched01/tmppnbbzaq8/41bb87crku.sdf

>  <i_m_source_file_index>  (165) 
25

>  <i_lp_mmshare_version>  (165) 
48012

>  <i_f3d_flags>  (165) 
0

>  <s_epik_input>  (165) 
Tz1DMUMoPVtDSDJdKVtDQEBIXShbQ0gyXTIpW0NIMl1bQ0gyXVtDQEBdMyhbT0hdKVtDQEBIXShbT0hdKVtDQEBdKFtPSF0pKFtDQF00NVtDQEBdMTIzKU9bQ0gyXVtDQEhdNltDQEBdNShbQ0gzXSlbQ0BASF0oW0NASF0oW0NIM10pW0NIMl1bQ0BASF02W09IXSlbQ0gyXVtDSDJdW0NASF00W09IXQ==

>  <s_epik_cmdline>  (165) 
J2VwaWtfcHl0aG9uJywgJy1waHQnLCAnMi4wJywgJy1waCcsICc3LjAnLCAnLXRuJywgJzgnLCAnLW1hJywgJzIwMCcsICctaW1hZScsICc8aW5maWxlLm1hZT4nLCAnLW9tYWUnLCAnPG91dGZpbGUubWFlPic=

>  <r_lp_tautomer_probability>  (165) 
1

>  <r_epik_Ionization_Penalty>  (165) 
1.2092e-06

>  <r_epik_Ionization_Penalty_Charging>  (165) 
0

>  <r_epik_Ionization_Penalty_Neutral>  (165) 
1.2092e-06

>  <r_epik_State_Penalty>  (165) 
-0

>  <r_epik_Charging_Adjusted_Penalty>  (165) 
0

>  <i_epik_Tot_Q>  (165) 
0

>  <i_epik_Tot_abs_Q>  (165) 
0

>  <s_lp_Force_Field>  (165) 
OPLS3e

>  <r_lp_Energy>  (165) 
89.3341

>  <b_lp_Chiralities_Consistent>  (165) 
1

>  <s_lp_Variant>  (165) 
49:0-1

>  <s_i_glide_gridfile>  (165) 
pfpi4k_grid

>  <i_i_glide_lignum>  (165) 
25

>  <i_i_glide_rotatable_bonds>  (165) 
5

>  <r_i_docking_score>  (165) 
-3.09508

>  <r_i_glide_ligand_efficiency>  (165) 
-0.0998413

>  <r_i_glide_ligand_efficiency_sa>  (165) 
-0.313639

>  <r_i_glide_ligand_efficiency_ln>  (165) 
-0.698035

>  <r_i_glide_gscore>  (165) 
-3.09508

>  <r_i_glide_lipo>  (165) 
-0.246462

>  <r_i_glide_hbond>  (165) 
-0.148945

>  <r_i_glide_metal>  (165) 
-0

>  <r_i_glide_rewards>  (165) 
-0.446437

>  <r_i_glide_evdw>  (165) 
-27.9075

>  <r_i_glide_ecoul>  (165) 
-5.49072

>  <r_i_glide_erotb>  (165) 
0

>  <r_i_glide_esite>  (165) 
-0.0342519

>  <r_i_glide_emodel>  (165) 
-39.2587

>  <r_i_glide_energy>  (165) 
-33.3982

>  <r_i_glide_einternal>  (165) 
0.947255

>  <r_i_glide_intrahb_reward>  (165) 
-0

>  <i_i_glide_confnum>  (165) 
1

>  <i_i_glide_posenum>  (165) 
37

>  <r_i_glide_eff_state_penalty>  (165) 
0

>  <ligand_id>  (165) 
49

>  <original_smiles>  (165) 
C=C1C(=O)C23CC1CCC2(O)C(O)C1(O)OCC2C(O)CC(C)C4CCC(O)C13C42C

>  <smiles>  (165) 
[H]OC1([H])C([H])([H])C([H])(C([H])([H])[H])C2([H])C([H])([H])C([H])([H])C([H])(O[H])C34C(O[H])(OC([H])([H])C1([H])C23C([H])([H])[H])C([H])(O[H])C1(O[H])C([H])([H])C([H])([H])C2([H])C(=C([H])[H])C(=O)C14C2([H])[H]

$$$$
49:0:1
     RDKit          3D

 65 70  0  0  1  0  0  0  0  0999 V2000
    1.8089   -3.4539   -2.0879 C   0  0  0  0  0  0  0  0  0  0  0  0
    2.7178   -3.4395   -1.1126 C   0  0  0  0  0  0  0  0  0  0  0  0
    2.6827   -4.3226    0.0531 C   0  0  0  0  0  0  0  0  0  0  0  0
    1.8345   -5.1967    0.2163 O   0  0  0  0  0  0  0  0  0  0  0  0
    3.8622   -3.9947    1.0037 C   0  0  2  0  0  0  0  0  0  0  0  0
    3.8667   -2.4548    0.6362 C   0  0  0  0  0  0  0  0  0  0  0  0
    3.7877   -2.4261   -0.8907 C   0  0  1  0  0  0  0  0  0  0  0  0
    5.1105   -2.8885   -1.5346 C   0  0  0  0  0  0  0  0  0  0  0  0
    6.0032   -3.6309   -0.5241 C   0  0  0  0  0  0  0  0  0  0  0  0
    5.2379   -4.5844    0.4540 C   0  0  2  0  0  0  0  0  0  0  0  0
    5.0336   -5.7809   -0.2764 O   0  0  0  0  0  0  0  0  0  0  0  0
    6.0795   -4.9738    1.7015 C   0  0  1  0  0  0  0  0  0  0  0  0
    7.4551   -4.6504    1.6045 O   0  0  0  0  0  0  0  0  0  0  0  0
    5.3540   -4.2584    2.8736 C   0  0  2  0  0  0  0  0  0  0  0  0
    5.7967   -2.9113    2.8328 O   0  0  0  0  0  0  0  0  0  0  0  0
    5.7238   -4.7701    4.1171 O   0  0  0  0  0  0  0  0  0  0  0  0
    5.3247   -6.0678    4.4918 C   0  0  0  0  0  0  0  0  0  0  0  0
    3.7982   -6.1578    4.4839 C   0  0  2  0  0  0  0  0  0  0  0  0
    3.2771   -7.5052    5.0484 C   0  0  1  0  0  0  0  0  0  0  0  0
    3.8713   -7.7998    6.2958 O   0  0  0  0  0  0  0  0  0  0  0  0
    1.7606   -7.4335    5.2690 C   0  0  0  0  0  0  0  0  0  0  0  0
    1.0316   -7.0897    3.9625 C   0  0  1  0  0  0  0  0  0  0  0  0
   -0.4980   -7.0860    4.1658 C   0  0  0  0  0  0  0  0  0  0  0  0
    1.6105   -5.7972    3.2870 C   0  0  1  0  0  0  0  0  0  0  0  0
    1.0772   -4.5332    3.9943 C   0  0  0  0  0  0  0  0  0  0  0  0
    1.5764   -3.2445    3.3491 C   0  0  0  0  0  0  0  0  0  0  0  0
    3.0924   -3.1690    3.4104 C   0  0  1  0  0  0  0  0  0  0  0  0
    3.4411   -3.0487    4.7847 O   0  0  0  0  0  0  0  0  0  0  0  0
    3.7902   -4.3337    2.5914 C   0  0  1  0  0  0  0  0  0  0  0  0
    3.1953   -5.7920    3.0823 C   0  0  1  0  0  0  0  0  0  0  0  0
    3.5342   -6.9856    2.1158 C   0  0  0  0  0  0  0  0  0  0  0  0
    1.8093   -2.7289   -2.8815 H   0  0  0  0  0  0  0  0  0  0  0  0
    1.0322   -4.2031   -2.0708 H   0  0  0  0  0  0  0  0  0  0  0  0
    2.9761   -1.9391    1.0057 H   0  0  0  0  0  0  0  0  0  0  0  0
    4.7224   -1.8720    0.9746 H   0  0  0  0  0  0  0  0  0  0  0  0
    3.4698   -1.4498   -1.2632 H   0  0  0  0  0  0  0  0  0  0  0  0
    4.8999   -3.5195   -2.4002 H   0  0  0  0  0  0  0  0  0  0  0  0
    5.6522   -2.0236   -1.9217 H   0  0  0  0  0  0  0  0  0  0  0  0
    6.7729   -4.1717   -1.0579 H   0  0  0  0  0  0  0  0  0  0  0  0
    6.5416   -2.8701    0.0433 H   0  0  0  0  0  0  0  0  0  0  0  0
    4.5078   -5.5864   -1.0422 H   0  0  0  0  0  0  0  0  0  0  0  0
    6.0768   -6.0469    1.8525 H   0  0  0  0  0  0  0  0  0  0  0  0
    7.8694   -4.9383    2.3970 H   0  0  0  0  0  0  0  0  0  0  0  0
    5.3177   -2.4008    3.4610 H   0  0  0  0  0  0  0  0  0  0  0  0
    5.8107   -6.8488    3.9166 H   0  0  0  0  0  0  0  0  0  0  0  0
    5.6876   -6.1880    5.5105 H   0  0  0  0  0  0  0  0  0  0  0  0
    3.4622   -5.4316    5.2151 H   0  0  0  0  0  0  0  0  0  0  0  0
    3.5116   -8.3414    4.3881 H   0  0  0  0  0  0  0  0  0  0  0  0
    4.7653   -8.0646    6.1334 H   0  0  0  0  0  0  0  0  0  0  0  0
    1.3941   -8.3844    5.6624 H   0  0  0  0  0  0  0  0  0  0  0  0
    1.5383   -6.6815    6.0281 H   0  0  0  0  0  0  0  0  0  0  0  0
    1.1840   -7.9328    3.2908 H   0  0  0  0  0  0  0  0  0  0  0  0
   -0.8103   -6.3902    4.9462 H   0  0  0  0  0  0  0  0  0  0  0  0
   -0.8399   -8.0779    4.4680 H   0  0  0  0  0  0  0  0  0  0  0  0
   -1.0215   -6.8355    3.2423 H   0  0  0  0  0  0  0  0  0  0  0  0
    1.1342   -5.7985    2.3172 H   0  0  0  0  0  0  0  0  0  0  0  0
   -0.0075   -4.5107    3.9622 H   0  0  0  0  0  0  0  0  0  0  0  0
    1.3300   -4.5424    5.0541 H   0  0  0  0  0  0  0  0  0  0  0  0
    1.2619   -3.1806    2.3105 H   0  0  0  0  0  0  0  0  0  0  0  0
    1.1353   -2.3840    3.8515 H   0  0  0  0  0  0  0  0  0  0  0  0
    3.3712   -2.1931    3.0271 H   0  0  0  0  0  0  0  0  0  0  0  0
    4.3808   -3.0308    4.8809 H   0  0  0  0  0  0  0  0  0  0  0  0
    3.3007   -6.8129    1.0777 H   0  0  0  0  0  0  0  0  0  0  0  0
    2.9881   -7.8974    2.3273 H   0  0  0  0  0  0  0  0  0  0  0  0
    4.5659   -7.3171    2.1581 H   0  0  0  0  0  0  0  0  0  0  0  0
  1  2  2  0
  1 32  1  0
  1 33  1  0
  2  7  1  0
  2  3  1  0
  3  4  2  0
  5  3  1  6
  5 10  1  0
 29  5  1  6
  5  6  1  0
  6  7  1  0
  6 34  1  0
  6 35  1  0
  7  8  1  0
  7 36  1  1
  8  9  1  0
  8 37  1  0
  8 38  1  0
  9 10  1  0
  9 39  1  0
  9 40  1  0
 10 11  1  6
 10 12  1  0
 11 41  1  0
 12 13  1  0
 12 14  1  0
 12 42  1  1
 13 43  1  0
 14 29  1  0
 14 15  1  1
 14 16  1  0
 15 44  1  0
 16 17  1  0
 17 18  1  0
 17 45  1  0
 17 46  1  0
 18 30  1  0
 18 19  1  0
 18 47  1  1
 19 20  1  0
 19 21  1  0
 19 48  1  6
 20 49  1  0
 21 22  1  0
 21 50  1  0
 21 51  1  0
 22 23  1  0
 22 24  1  0
 22 52  1  6
 23 53  1  0
 23 54  1  0
 23 55  1  0
 24 30  1  0
 24 25  1  0
 24 56  1  6
 25 26  1  0
 25 57  1  0
 25 58  1  0
 26 27  1  0
 26 59  1  0
 26 60  1  0
 27 28  1  0
 27 29  1  0
 27 61  1  6
 28 62  1  0
 29 30  1  0
 30 31  1  6
 31 63  1  0
 31 64  1  0
 31 65  1  0
M  END
>  <i_m_ct_stereo_status>  (166) 
1

>  <s_m_source_file>  (166) 
/var/tmp/pbs.5076255.sched01/tmppnbbzaq8/41bb87crku.sdf

>  <i_m_source_file_index>  (166) 
25

>  <i_lp_mmshare_version>  (166) 
48012

>  <i_f3d_flags>  (166) 
0

>  <s_epik_input>  (166) 
Tz1DMUMoPVtDSDJdKVtDQEBIXShbQ0gyXTIpW0NIMl1bQ0gyXVtDQEBdMyhbT0hdKVtDQEBIXShbT0hdKVtDQEBdKFtPSF0pKFtDQF00NVtDQEBdMTIzKU9bQ0gyXVtDQEhdNltDQEBdNShbQ0gzXSlbQ0BASF0oW0NASF0oW0NIM10pW0NIMl1bQ0BASF02W09IXSlbQ0gyXVtDSDJdW0NASF00W09IXQ==

>  <s_epik_cmdline>  (166) 
J2VwaWtfcHl0aG9uJywgJy1waHQnLCAnMi4wJywgJy1waCcsICc3LjAnLCAnLXRuJywgJzgnLCAnLW1hJywgJzIwMCcsICctaW1hZScsICc8aW5maWxlLm1hZT4nLCAnLW9tYWUnLCAnPG91dGZpbGUubWFlPic=

>  <r_lp_tautomer_probability>  (166) 
1

>  <r_epik_Ionization_Penalty>  (166) 
1.2092e-06

>  <r_epik_Ionization_Penalty_Charging>  (166) 
0

>  <r_epik_Ionization_Penalty_Neutral>  (166) 
1.2092e-06

>  <r_epik_State_Penalty>  (166) 
-0

>  <r_epik_Charging_Adjusted_Penalty>  (166) 
0

>  <i_epik_Tot_Q>  (166) 
0

>  <i_epik_Tot_abs_Q>  (166) 
0

>  <s_lp_Force_Field>  (166) 
OPLS3e

>  <r_lp_Energy>  (166) 
89.3341

>  <b_lp_Chiralities_Consistent>  (166) 
1

>  <s_lp_Variant>  (166) 
49:0-1

>  <s_i_glide_gridfile>  (166) 
pfpi4k_grid

>  <i_i_glide_lignum>  (166) 
25

>  <i_i_glide_rotatable_bonds>  (166) 
5

>  <r_i_docking_score>  (166) 
-2.75258

>  <r_i_glide_ligand_efficiency>  (166) 
-0.0887927

>  <r_i_glide_ligand_efficiency_sa>  (166) 
-0.278932

>  <r_i_glide_ligand_efficiency_ln>  (166) 
-0.62079

>  <r_i_glide_gscore>  (166) 
-2.75258

>  <r_i_glide_lipo>  (166) 
-0.384532

>  <r_i_glide_hbond>  (166) 
-0.082945

>  <r_i_glide_metal>  (166) 
-0

>  <r_i_glide_rewards>  (166) 
-0.473168

>  <r_i_glide_evdw>  (166) 
-19.2684

>  <r_i_glide_ecoul>  (166) 
-5.38289

>  <r_i_glide_erotb>  (166) 
0

>  <r_i_glide_esite>  (166) 
-0.0410768

>  <r_i_glide_emodel>  (166) 
-29.6064

>  <r_i_glide_energy>  (166) 
-24.6513

>  <r_i_glide_einternal>  (166) 
1.05877

>  <r_i_glide_intrahb_reward>  (166) 
-0

>  <i_i_glide_confnum>  (166) 
2

>  <i_i_glide_posenum>  (166) 
7

>  <r_i_glide_eff_state_penalty>  (166) 
0

>  <ligand_id>  (166) 
49

>  <original_smiles>  (166) 
C=C1C(=O)C23CC1CCC2(O)C(O)C1(O)OCC2C(O)CC(C)C4CCC(O)C13C42C

>  <smiles>  (166) 
[H]OC1([H])C([H])([H])C([H])(C([H])([H])[H])C2([H])C([H])([H])C([H])([H])C([H])(O[H])C34C(O[H])(OC([H])([H])C1([H])C23C([H])([H])[H])C([H])(O[H])C1(O[H])C([H])([H])C([H])([H])C2([H])C(=C([H])[H])C(=O)C14C2([H])[H]

$$$$
49:0:2
     RDKit          3D

 65 70  0  0  1  0  0  0  0  0999 V2000
    1.6921   -3.4613   -1.9228 C   0  0  0  0  0  0  0  0  0  0  0  0
    2.6313   -3.4647   -0.9718 C   0  0  0  0  0  0  0  0  0  0  0  0
    2.6667   -4.3913    0.1482 C   0  0  0  0  0  0  0  0  0  0  0  0
    1.8600   -5.3108    0.3225 O   0  0  0  0  0  0  0  0  0  0  0  0
    3.8374   -4.0816    1.1003 C   0  0  2  0  0  0  0  0  0  0  0  0
    3.8068   -2.5276    0.7847 C   0  0  0  0  0  0  0  0  0  0  0  0
    3.6872   -2.4406   -0.7383 C   0  0  1  0  0  0  0  0  0  0  0  0
    5.0008   -2.8664   -1.4204 C   0  0  0  0  0  0  0  0  0  0  0  0
    5.9429   -3.6105   -0.4567 C   0  0  0  0  0  0  0  0  0  0  0  0
    5.2233   -4.6039    0.5167 C   0  0  2  0  0  0  0  0  0  0  0  0
    5.0451   -5.8013   -0.2107 O   0  0  0  0  0  0  0  0  0  0  0  0
    6.0925   -5.0148    1.7381 C   0  0  1  0  0  0  0  0  0  0  0  0
    7.4592   -4.6528    1.6147 O   0  0  0  0  0  0  0  0  0  0  0  0
    5.3727   -4.3441    2.9356 C   0  0  2  0  0  0  0  0  0  0  0  0
    5.7745   -2.9760    2.9040 O   0  0  0  0  0  0  0  0  0  0  0  0
    5.7774   -4.8902    4.1611 O   0  0  0  0  0  0  0  0  0  0  0  0
    5.4196   -6.2060    4.5158 C   0  0  0  0  0  0  0  0  0  0  0  0
    3.8974   -6.3201    4.5379 C   0  0  2  0  0  0  0  0  0  0  0  0
    3.4143   -7.6959    5.0722 C   0  0  1  0  0  0  0  0  0  0  0  0
    4.0487   -8.0091    6.2961 O   0  0  0  0  0  0  0  0  0  0  0  0
    1.9031   -7.6588    5.3345 C   0  0  0  0  0  0  0  0  0  0  0  0
    1.1392   -7.2929    4.0539 C   0  0  1  0  0  0  0  0  0  0  0  0
   -0.3855   -7.3293    4.2922 C   0  0  0  0  0  0  0  0  0  0  0  0
    1.6767   -5.9734    3.3941 C   0  0  1  0  0  0  0  0  0  0  0  0
    1.1222   -4.7423    4.1369 C   0  0  0  0  0  0  0  0  0  0  0  0
    1.5863   -3.4295    3.5170 C   0  0  0  0  0  0  0  0  0  0  0  0
    3.1045   -3.3285    3.5482 C   0  0  1  0  0  0  0  0  0  0  0  0
    3.4803   -3.2299    4.9155 O   0  0  0  0  0  0  0  0  0  0  0  0
    3.8054   -4.4577    2.6851 C   0  0  1  0  0  0  0  0  0  0  0  0
    3.2561   -5.9331    3.1612 C   0  0  1  0  0  0  0  0  0  0  0  0
    3.5975   -7.0886    2.1535 C   0  0  0  0  0  0  0  0  0  0  0  0
    1.6516   -2.6980   -2.6932 H   0  0  0  0  0  0  0  0  0  0  0  0
    0.9344   -4.2121   -1.9212 H   0  0  0  0  0  0  0  0  0  0  0  0
    2.9160   -2.0444    1.1887 H   0  0  0  0  0  0  0  0  0  0  0  0
    4.6545   -1.9192    1.1209 H   0  0  0  0  0  0  0  0  0  0  0  0
    3.3433   -1.4595   -1.0727 H   0  0  0  0  0  0  0  0  0  0  0  0
    4.7796   -3.4800   -2.2972 H   0  0  0  0  0  0  0  0  0  0  0  0
    5.5149   -1.9824   -1.7952 H   0  0  0  0  0  0  0  0  0  0  0  0
    6.7095   -4.1172   -1.0297 H   0  0  0  0  0  0  0  0  0  0  0  0
    6.4735   -2.8563    0.1272 H   0  0  0  0  0  0  0  0  0  0  0  0
    5.7963   -5.9322   -0.7676 H   0  0  0  0  0  0  0  0  0  0  0  0
    6.1231   -6.0938    1.8673 H   0  0  0  0  0  0  0  0  0  0  0  0
    7.8930   -4.9323    2.4062 H   0  0  0  0  0  0  0  0  0  0  0  0
    5.3149   -2.5105    3.5740 H   0  0  0  0  0  0  0  0  0  0  0  0
    5.9108   -6.9543    3.9059 H   0  0  0  0  0  0  0  0  0  0  0  0
    5.8070   -6.3352    5.5243 H   0  0  0  0  0  0  0  0  0  0  0  0
    3.5592   -5.6202    5.2969 H   0  0  0  0  0  0  0  0  0  0  0  0
    3.6486   -8.5109    4.3817 H   0  0  0  0  0  0  0  0  0  0  0  0
    4.9356   -8.2740    6.1024 H   0  0  0  0  0  0  0  0  0  0  0  0
    1.5660   -8.6287    5.7096 H   0  0  0  0  0  0  0  0  0  0  0  0
    1.6855   -6.9316    6.1187 H   0  0  0  0  0  0  0  0  0  0  0  0
    1.2896   -8.1154    3.3591 H   0  0  0  0  0  0  0  0  0  0  0  0
   -0.6929   -6.6637    5.0994 H   0  0  0  0  0  0  0  0  0  0  0  0
   -0.7040   -8.3353    4.5734 H   0  0  0  0  0  0  0  0  0  0  0  0
   -0.9365   -7.0604    3.3906 H   0  0  0  0  0  0  0  0  0  0  0  0
    1.1748   -5.9636    2.4357 H   0  0  0  0  0  0  0  0  0  0  0  0
    0.0346   -4.7390    4.1054 H   0  0  0  0  0  0  0  0  0  0  0  0
    1.3909   -4.7668    5.1930 H   0  0  0  0  0  0  0  0  0  0  0  0
    1.2266   -3.3504    2.4898 H   0  0  0  0  0  0  0  0  0  0  0  0
    1.1406   -2.5895    4.0550 H   0  0  0  0  0  0  0  0  0  0  0  0
    3.3510   -2.3313    3.1933 H   0  0  0  0  0  0  0  0  0  0  0  0
    4.4194   -3.2012    5.0052 H   0  0  0  0  0  0  0  0  0  0  0  0
    3.3493   -6.8977    1.1207 H   0  0  0  0  0  0  0  0  0  0  0  0
    3.0713   -8.0173    2.3480 H   0  0  0  0  0  0  0  0  0  0  0  0
    4.6355   -7.4021    2.1667 H   0  0  0  0  0  0  0  0  0  0  0  0
  1  2  2  0
  1 32  1  0
  1 33  1  0
  2  7  1  0
  2  3  1  0
  3  4  2  0
  5  3  1  6
  5 10  1  0
 29  5  1  6
  5  6  1  0
  6  7  1  0
  6 34  1  0
  6 35  1  0
  7  8  1  0
  7 36  1  1
  8  9  1  0
  8 37  1  0
  8 38  1  0
  9 10  1  0
  9 39  1  0
  9 40  1  0
 10 11  1  6
 10 12  1  0
 11 41  1  0
 12 13  1  0
 12 14  1  0
 12 42  1  1
 13 43  1  0
 14 29  1  0
 14 15  1  1
 14 16  1  0
 15 44  1  0
 16 17  1  0
 17 18  1  0
 17 45  1  0
 17 46  1  0
 18 30  1  0
 18 19  1  0
 18 47  1  1
 19 20  1  0
 19 21  1  0
 19 48  1  6
 20 49  1  0
 21 22  1  0
 21 50  1  0
 21 51  1  0
 22 23  1  0
 22 24  1  0
 22 52  1  6
 23 53  1  0
 23 54  1  0
 23 55  1  0
 24 30  1  0
 24 25  1  0
 24 56  1  6
 25 26  1  0
 25 57  1  0
 25 58  1  0
 26 27  1  0
 26 59  1  0
 26 60  1  0
 27 28  1  0
 27 29  1  0
 27 61  1  6
 28 62  1  0
 29 30  1  0
 30 31  1  6
 31 63  1  0
 31 64  1  0
 31 65  1  0
M  END
>  <i_m_ct_stereo_status>  (167) 
1

>  <s_m_source_file>  (167) 
/var/tmp/pbs.5076255.sched01/tmppnbbzaq8/41bb87crku.sdf

>  <i_m_source_file_index>  (167) 
25

>  <i_lp_mmshare_version>  (167) 
48012

>  <i_f3d_flags>  (167) 
0

>  <s_epik_input>  (167) 
Tz1DMUMoPVtDSDJdKVtDQEBIXShbQ0gyXTIpW0NIMl1bQ0gyXVtDQEBdMyhbT0hdKVtDQEBIXShbT0hdKVtDQEBdKFtPSF0pKFtDQF00NVtDQEBdMTIzKU9bQ0gyXVtDQEhdNltDQEBdNShbQ0gzXSlbQ0BASF0oW0NASF0oW0NIM10pW0NIMl1bQ0BASF02W09IXSlbQ0gyXVtDSDJdW0NASF00W09IXQ==

>  <s_epik_cmdline>  (167) 
J2VwaWtfcHl0aG9uJywgJy1waHQnLCAnMi4wJywgJy1waCcsICc3LjAnLCAnLXRuJywgJzgnLCAnLW1hJywgJzIwMCcsICctaW1hZScsICc8aW5maWxlLm1hZT4nLCAnLW9tYWUnLCAnPG91dGZpbGUubWFlPic=

>  <r_lp_tautomer_probability>  (167) 
1

>  <r_epik_Ionization_Penalty>  (167) 
1.2092e-06

>  <r_epik_Ionization_Penalty_Charging>  (167) 
0

>  <r_epik_Ionization_Penalty_Neutral>  (167) 
1.2092e-06

>  <r_epik_State_Penalty>  (167) 
-0

>  <r_epik_Charging_Adjusted_Penalty>  (167) 
0

>  <i_epik_Tot_Q>  (167) 
0

>  <i_epik_Tot_abs_Q>  (167) 
0

>  <s_lp_Force_Field>  (167) 
OPLS3e

>  <r_lp_Energy>  (167) 
89.3341

>  <b_lp_Chiralities_Consistent>  (167) 
1

>  <s_lp_Variant>  (167) 
49:0-1

>  <s_i_glide_gridfile>  (167) 
pfpi4k_grid

>  <i_i_glide_lignum>  (167) 
25

>  <i_i_glide_rotatable_bonds>  (167) 
5

>  <r_i_docking_score>  (167) 
-2.22666

>  <r_i_glide_ligand_efficiency>  (167) 
-0.0718277

>  <r_i_glide_ligand_efficiency_sa>  (167) 
-0.225638

>  <r_i_glide_ligand_efficiency_ln>  (167) 
-0.50218

>  <r_i_glide_gscore>  (167) 
-2.22666

>  <r_i_glide_lipo>  (167) 
-0.247866

>  <r_i_glide_hbond>  (167) 
-0.0844946

>  <r_i_glide_metal>  (167) 
-0

>  <r_i_glide_rewards>  (167) 
-0.469283

>  <r_i_glide_evdw>  (167) 
-20.0688

>  <r_i_glide_ecoul>  (167) 
-2.54313

>  <r_i_glide_erotb>  (167) 
0

>  <r_i_glide_esite>  (167) 
-0.0401067

>  <r_i_glide_emodel>  (167) 
-26.2185

>  <r_i_glide_energy>  (167) 
-22.6119

>  <r_i_glide_einternal>  (167) 
1.19957

>  <r_i_glide_intrahb_reward>  (167) 
-0

>  <i_i_glide_confnum>  (167) 
1

>  <i_i_glide_posenum>  (167) 
9

>  <r_i_glide_eff_state_penalty>  (167) 
0

>  <ligand_id>  (167) 
49

>  <original_smiles>  (167) 
C=C1C(=O)C23CC1CCC2(O)C(O)C1(O)OCC2C(O)CC(C)C4CCC(O)C13C42C

>  <smiles>  (167) 
[H]OC1([H])C([H])([H])C([H])(C([H])([H])[H])C2([H])C([H])([H])C([H])([H])C([H])(O[H])C34C(O[H])(OC([H])([H])C1([H])C23C([H])([H])[H])C([H])(O[H])C1(O[H])C([H])([H])C([H])([H])C2([H])C(=C([H])[H])C(=O)C14C2([H])[H]

$$$$
50:0:0
     RDKit          3D

 33 36  0  0  1  0  0  0  0  0999 V2000
   -4.8598   -7.3238   -5.5428 C   0  0  0  0  0  0  0  0  0  0  0  0
   -5.4883   -6.1820   -5.1191 C   0  0  0  0  0  0  0  0  0  0  0  0
   -7.1516   -6.1444   -5.6229 S   0  0  0  0  0  0  0  0  0  0  0  0
   -6.9875   -7.6753   -6.4559 C   0  0  0  0  0  0  0  0  0  0  0  0
   -8.1645   -8.2830   -7.1786 C   0  0  2  0  0  0  0  0  0  0  0  0
   -7.9387   -9.7039   -7.7020 C   0  0  0  0  0  0  0  0  0  0  0  0
   -7.7067  -10.0527   -8.9909 C   0  0  0  0  0  0  0  0  0  0  0  0
   -7.6107  -11.4936   -9.4642 C   0  0  0  0  0  0  0  0  0  0  0  0
   -8.1689  -12.5148   -8.4697 C   0  0  0  0  0  0  0  0  0  0  0  0
   -7.7377  -12.1766   -7.0432 C   0  0  0  0  0  0  0  0  0  0  0  0
   -8.2265  -10.7788   -6.6459 C   0  0  0  0  0  0  0  0  0  0  0  0
   -7.5659   -9.2065  -10.0696 O   0  0  0  0  0  0  0  0  0  0  0  0
   -7.1646   -7.8500   -9.8934 C   0  0  0  0  0  0  0  0  0  0  0  0
   -8.3136   -7.1082   -9.3692 C   0  0  0  0  0  0  0  0  0  0  0  0
   -9.0634   -6.2051   -9.9787 N   0  0  0  0  0  0  0  0  0  0  0  0
  -10.0040   -5.8934   -9.0189 N   0  0  0  0  0  0  0  0  0  0  0  0
   -9.8051   -6.5755   -7.9280 N   0  0  0  0  0  0  0  0  0  0  0  0
   -8.7349   -7.3738   -8.1552 N   0  0  0  0  0  0  0  0  0  0  0  0
   -5.7142   -8.1684   -6.3087 C   0  0  0  0  0  0  0  0  0  0  0  0
   -3.8266   -7.5771   -5.3552 H   0  0  0  0  0  0  0  0  0  0  0  0
   -5.0909   -5.3641   -4.5440 H   0  0  0  0  0  0  0  0  0  0  0  0
   -8.9566   -8.4583   -6.4822 H   0  0  0  0  0  0  0  0  0  0  0  0
   -8.1435  -11.5689  -10.4111 H   0  0  0  0  0  0  0  0  0  0  0  0
   -6.5581  -11.7105   -9.6583 H   0  0  0  0  0  0  0  0  0  0  0  0
   -9.2567  -12.5332   -8.5343 H   0  0  0  0  0  0  0  0  0  0  0  0
   -7.8249  -13.5111   -8.7423 H   0  0  0  0  0  0  0  0  0  0  0  0
   -8.1169  -12.9243   -6.3476 H   0  0  0  0  0  0  0  0  0  0  0  0
   -6.6509  -12.1984   -6.9702 H   0  0  0  0  0  0  0  0  0  0  0  0
   -7.7912  -10.4939   -5.6877 H   0  0  0  0  0  0  0  0  0  0  0  0
   -9.3079  -10.8120   -6.4922 H   0  0  0  0  0  0  0  0  0  0  0  0
   -6.2979   -7.7441   -9.2409 H   0  0  0  0  0  0  0  0  0  0  0  0
   -6.9197   -7.4167  -10.8591 H   0  0  0  0  0  0  0  0  0  0  0  0
   -5.3723   -9.1064   -6.7208 H   0  0  0  0  0  0  0  0  0  0  0  0
  1 19  1  0
  1  2  2  0
  1 20  1  0
  2  3  1  0
  2 21  1  0
  3  4  1  0
  4  5  1  0
  4 19  2  0
  5 18  1  0
  5  6  1  0
  5 22  1  1
  6 11  1  0
  6  7  2  0
  7  8  1  0
  7 12  1  0
  8  9  1  0
  8 23  1  0
  8 24  1  0
  9 10  1  0
  9 25  1  0
  9 26  1  0
 10 11  1  0
 10 27  1  0
 10 28  1  0
 11 29  1  0
 11 30  1  0
 12 13  1  0
 13 14  1  0
 13 31  1  0
 13 32  1  0
 14 18  1  0
 14 15  2  0
 15 16  1  0
 16 17  2  0
 17 18  1  0
 19 33  1  0
M  END
>  <i_m_ct_stereo_status>  (168) 
1

>  <s_m_source_file>  (168) 
/var/tmp/pbs.5076255.sched01/tmppnbbzaq8/41bb87crku.sdf

>  <i_m_source_file_index>  (168) 
26

>  <i_lp_mmshare_version>  (168) 
48012

>  <i_f3d_flags>  (168) 
0

>  <s_epik_input>  (168) 
W2NIXTFbY0hdW2NIXXNjMVtDQEhdMm4obm5uMyljM1tDSDJdT0MoPUMyNClbQ0gyXVtDSDJdW0NIMl1bQ0gyXTQ=

>  <s_epik_cmdline>  (168) 
J2VwaWtfcHl0aG9uJywgJy1waHQnLCAnMi4wJywgJy1waCcsICc3LjAnLCAnLXRuJywgJzgnLCAnLW1hJywgJzIwMCcsICctaW1hZScsICc8aW5maWxlLm1hZT4nLCAnLW9tYWUnLCAnPG91dGZpbGUubWFlPic=

>  <r_lp_tautomer_probability>  (168) 
1

>  <r_epik_Ionization_Penalty>  (168) 
5.81136e-08

>  <r_epik_Ionization_Penalty_Charging>  (168) 
0

>  <r_epik_Ionization_Penalty_Neutral>  (168) 
5.81136e-08

>  <r_epik_State_Penalty>  (168) 
-0

>  <r_epik_Charging_Adjusted_Penalty>  (168) 
0

>  <i_epik_Tot_Q>  (168) 
0

>  <i_epik_Tot_abs_Q>  (168) 
0

>  <s_lp_Force_Field>  (168) 
OPLS3e

>  <r_lp_Energy>  (168) 
15.1648

>  <b_lp_Chiralities_Consistent>  (168) 
1

>  <s_lp_Variant>  (168) 
50:0-1

>  <s_i_glide_gridfile>  (168) 
pfpi4k_grid

>  <i_i_glide_lignum>  (168) 
26

>  <i_i_glide_rotatable_bonds>  (168) 
1

>  <r_i_docking_score>  (168) 
-4.77336

>  <r_i_glide_ligand_efficiency>  (168) 
-0.251229

>  <r_i_glide_ligand_efficiency_sa>  (168) 
-0.670381

>  <r_i_glide_ligand_efficiency_ln>  (168) 
-1.21015

>  <r_i_glide_gscore>  (168) 
-4.77336

>  <r_i_glide_lipo>  (168) 
-1.9723

>  <r_i_glide_hbond>  (168) 
0

>  <r_i_glide_metal>  (168) 
-0

>  <r_i_glide_rewards>  (168) 
-1.89947

>  <r_i_glide_evdw>  (168) 
-20.5616

>  <r_i_glide_ecoul>  (168) 
-0.610841

>  <r_i_glide_erotb>  (168) 
0.238563

>  <r_i_glide_esite>  (168) 
-0.0204511

>  <r_i_glide_emodel>  (168) 
-26.861

>  <r_i_glide_energy>  (168) 
-21.1724

>  <r_i_glide_einternal>  (168) 
0.144611

>  <r_i_glide_intrahb_reward>  (168) 
-0

>  <i_i_glide_confnum>  (168) 
1

>  <i_i_glide_posenum>  (168) 
3

>  <r_i_glide_eff_state_penalty>  (168) 
0

>  <ligand_id>  (168) 
50

>  <original_smiles>  (168) 
c1csc(C2C3=C(CCCC3)OCc3nnnn32)c1

>  <smiles>  (168) 
[H]c1sc(C2([H])C3=C(OC([H])([H])c4nnnn42)C([H])([H])C([H])([H])C([H])([H])C3([H])[H])c([H])c1[H]

$$$$
50:0:1
     RDKit          3D

 33 36  0  0  1  0  0  0  0  0999 V2000
   -7.8548   -6.9963  -11.1337 C   0  0  0  0  0  0  0  0  0  0  0  0
   -8.2783   -5.7575  -10.7691 C   0  0  0  0  0  0  0  0  0  0  0  0
   -8.6025   -5.6911   -9.0655 S   0  0  0  0  0  0  0  0  0  0  0  0
   -8.1387   -7.3677   -8.8594 C   0  0  0  0  0  0  0  0  0  0  0  0
   -8.2204   -8.0310   -7.5191 C   0  0  2  0  0  0  0  0  0  0  0  0
   -7.1721   -7.5127   -6.5265 C   0  0  0  0  0  0  0  0  0  0  0  0
   -6.0105   -8.1407   -6.1621 C   0  0  0  0  0  0  0  0  0  0  0  0
   -5.1223   -7.6379   -5.0463 C   0  0  0  0  0  0  0  0  0  0  0  0
   -5.7943   -6.6023   -4.1595 C   0  0  0  0  0  0  0  0  0  0  0  0
   -6.5536   -5.5648   -4.9654 C   0  0  0  0  0  0  0  0  0  0  0  0
   -7.6453   -6.2629   -5.7673 C   0  0  0  0  0  0  0  0  0  0  0  0
   -5.4539   -9.3045   -6.6517 O   0  0  0  0  0  0  0  0  0  0  0  0
   -5.8467   -9.8204   -7.9088 C   0  0  0  0  0  0  0  0  0  0  0  0
   -7.2315  -10.3194   -7.7868 C   0  0  0  0  0  0  0  0  0  0  0  0
   -7.6488  -11.5729   -7.8556 N   0  0  0  0  0  0  0  0  0  0  0  0
   -9.0180  -11.4504   -7.7145 N   0  0  0  0  0  0  0  0  0  0  0  0
   -9.3713  -10.2080   -7.5743 N   0  0  0  0  0  0  0  0  0  0  0  0
   -8.2323   -9.4790   -7.6038 N   0  0  0  0  0  0  0  0  0  0  0  0
   -7.7925   -7.9207  -10.0624 C   0  0  0  0  0  0  0  0  0  0  0  0
   -7.5862   -7.2851  -12.1335 H   0  0  0  0  0  0  0  0  0  0  0  0
   -8.4019   -4.8959  -11.4070 H   0  0  0  0  0  0  0  0  0  0  0  0
   -9.1937   -7.7683   -7.1217 H   0  0  0  0  0  0  0  0  0  0  0  0
   -4.8096   -8.4787   -4.4257 H   0  0  0  0  0  0  0  0  0  0  0  0
   -4.2196   -7.2176   -5.4879 H   0  0  0  0  0  0  0  0  0  0  0  0
   -6.4450   -7.0513   -3.4179 H   0  0  0  0  0  0  0  0  0  0  0  0
   -5.0105   -6.1113   -3.6145 H   0  0  0  0  0  0  0  0  0  0  0  0
   -6.9911   -4.8152   -4.3028 H   0  0  0  0  0  0  0  0  0  0  0  0
   -5.8841   -5.0395   -5.6440 H   0  0  0  0  0  0  0  0  0  0  0  0
   -8.1122   -5.5420   -6.4282 H   0  0  0  0  0  0  0  0  0  0  0  0
   -8.4144   -6.5639   -5.0628 H   0  0  0  0  0  0  0  0  0  0  0  0
   -5.7670   -9.0670   -8.6928 H   0  0  0  0  0  0  0  0  0  0  0  0
   -5.1943  -10.6510   -8.1729 H   0  0  0  0  0  0  0  0  0  0  0  0
   -7.4872   -8.9427  -10.2364 H   0  0  0  0  0  0  0  0  0  0  0  0
  1 19  1  0
  1  2  2  0
  1 20  1  0
  2  3  1  0
  2 21  1  0
  3  4  1  0
  4  5  1  0
  4 19  2  0
  5 18  1  0
  5  6  1  0
  5 22  1  1
  6 11  1  0
  6  7  2  0
  7  8  1  0
  7 12  1  0
  8  9  1  0
  8 23  1  0
  8 24  1  0
  9 10  1  0
  9 25  1  0
  9 26  1  0
 10 11  1  0
 10 27  1  0
 10 28  1  0
 11 29  1  0
 11 30  1  0
 12 13  1  0
 13 14  1  0
 13 31  1  0
 13 32  1  0
 14 18  1  0
 14 15  2  0
 15 16  1  0
 16 17  2  0
 17 18  1  0
 19 33  1  0
M  END
>  <i_m_ct_stereo_status>  (169) 
1

>  <s_m_source_file>  (169) 
/var/tmp/pbs.5076255.sched01/tmppnbbzaq8/41bb87crku.sdf

>  <i_m_source_file_index>  (169) 
26

>  <i_lp_mmshare_version>  (169) 
48012

>  <i_f3d_flags>  (169) 
0

>  <s_epik_input>  (169) 
W2NIXTFbY0hdW2NIXXNjMVtDQEhdMm4obm5uMyljM1tDSDJdT0MoPUMyNClbQ0gyXVtDSDJdW0NIMl1bQ0gyXTQ=

>  <s_epik_cmdline>  (169) 
J2VwaWtfcHl0aG9uJywgJy1waHQnLCAnMi4wJywgJy1waCcsICc3LjAnLCAnLXRuJywgJzgnLCAnLW1hJywgJzIwMCcsICctaW1hZScsICc8aW5maWxlLm1hZT4nLCAnLW9tYWUnLCAnPG91dGZpbGUubWFlPic=

>  <r_lp_tautomer_probability>  (169) 
1

>  <r_epik_Ionization_Penalty>  (169) 
5.81136e-08

>  <r_epik_Ionization_Penalty_Charging>  (169) 
0

>  <r_epik_Ionization_Penalty_Neutral>  (169) 
5.81136e-08

>  <r_epik_State_Penalty>  (169) 
-0

>  <r_epik_Charging_Adjusted_Penalty>  (169) 
0

>  <i_epik_Tot_Q>  (169) 
0

>  <i_epik_Tot_abs_Q>  (169) 
0

>  <s_lp_Force_Field>  (169) 
OPLS3e

>  <r_lp_Energy>  (169) 
15.1648

>  <b_lp_Chiralities_Consistent>  (169) 
1

>  <s_lp_Variant>  (169) 
50:0-1

>  <s_i_glide_gridfile>  (169) 
pfpi4k_grid

>  <i_i_glide_lignum>  (169) 
26

>  <i_i_glide_rotatable_bonds>  (169) 
1

>  <r_i_docking_score>  (169) 
-4.55741

>  <r_i_glide_ligand_efficiency>  (169) 
-0.239864

>  <r_i_glide_ligand_efficiency_sa>  (169) 
-0.640053

>  <r_i_glide_ligand_efficiency_ln>  (169) 
-1.1554

>  <r_i_glide_gscore>  (169) 
-4.55741

>  <r_i_glide_lipo>  (169) 
-2.6996

>  <r_i_glide_hbond>  (169) 
0

>  <r_i_glide_metal>  (169) 
-0

>  <r_i_glide_rewards>  (169) 
-0.976669

>  <r_i_glide_evdw>  (169) 
-23.5808

>  <r_i_glide_ecoul>  (169) 
0.395561

>  <r_i_glide_erotb>  (169) 
0.238563

>  <r_i_glide_esite>  (169) 
0

>  <r_i_glide_emodel>  (169) 
-28.5137

>  <r_i_glide_energy>  (169) 
-23.1852

>  <r_i_glide_einternal>  (169) 
0.984874

>  <r_i_glide_intrahb_reward>  (169) 
-0

>  <i_i_glide_confnum>  (169) 
4

>  <i_i_glide_posenum>  (169) 
18

>  <r_i_glide_eff_state_penalty>  (169) 
0

>  <ligand_id>  (169) 
50

>  <original_smiles>  (169) 
c1csc(C2C3=C(CCCC3)OCc3nnnn32)c1

>  <smiles>  (169) 
[H]c1sc(C2([H])C3=C(OC([H])([H])c4nnnn42)C([H])([H])C([H])([H])C([H])([H])C3([H])[H])c([H])c1[H]

$$$$
50:0:2
     RDKit          3D

 33 36  0  0  1  0  0  0  0  0999 V2000
    3.0625    0.1771    2.6677 C   0  0  0  0  0  0  0  0  0  0  0  0
    2.0090    0.2479    1.7999 C   0  0  0  0  0  0  0  0  0  0  0  0
    0.8533    1.4379    2.2994 S   0  0  0  0  0  0  0  0  0  0  0  0
    1.7519    1.7821    3.7664 C   0  0  0  0  0  0  0  0  0  0  0  0
    1.2810    2.8047    4.7830 C   0  0  2  0  0  0  0  0  0  0  0  0
    0.8588    2.2041    6.1393 C   0  0  0  0  0  0  0  0  0  0  0  0
   -0.4138    1.9797    6.5836 C   0  0  0  0  0  0  0  0  0  0  0  0
   -0.7381    1.5190    7.9991 C   0  0  0  0  0  0  0  0  0  0  0  0
    0.4206    1.6416    8.9898 C   0  0  0  0  0  0  0  0  0  0  0  0
    1.7275    1.1966    8.3431 C   0  0  0  0  0  0  0  0  0  0  0  0
    2.0378    2.0510    7.1075 C   0  0  0  0  0  0  0  0  0  0  0  0
   -1.6156    2.1339    5.9124 O   0  0  0  0  0  0  0  0  0  0  0  0
   -1.6581    2.2135    4.4965 C   0  0  0  0  0  0  0  0  0  0  0  0
   -1.0274    3.4903    4.0845 C   0  0  0  0  0  0  0  0  0  0  0  0
   -1.6185    4.5391    3.5408 N   0  0  0  0  0  0  0  0  0  0  0  0
   -0.5697    5.4144    3.3339 N   0  0  0  0  0  0  0  0  0  0  0  0
    0.5525    4.9272    3.7774 N   0  0  0  0  0  0  0  0  0  0  0  0
    0.2724    3.6947    4.2549 N   0  0  0  0  0  0  0  0  0  0  0  0
    2.9168    1.0541    3.7839 C   0  0  0  0  0  0  0  0  0  0  0  0
    3.9249   -0.4584    2.5324 H   0  0  0  0  0  0  0  0  0  0  0  0
    1.8434   -0.3020    0.8830 H   0  0  0  0  0  0  0  0  0  0  0  0
    2.1375    3.4486    4.9958 H   0  0  0  0  0  0  0  0  0  0  0  0
   -1.5896    2.0942    8.3658 H   0  0  0  0  0  0  0  0  0  0  0  0
   -1.0472    0.4773    7.9380 H   0  0  0  0  0  0  0  0  0  0  0  0
    0.5089    2.6730    9.3273 H   0  0  0  0  0  0  0  0  0  0  0  0
    0.2125    1.0440    9.8764 H   0  0  0  0  0  0  0  0  0  0  0  0
    2.5436    1.2626    9.0610 H   0  0  0  0  0  0  0  0  0  0  0  0
    1.6578    0.1504    8.0460 H   0  0  0  0  0  0  0  0  0  0  0  0
    2.8878    1.6150    6.5916 H   0  0  0  0  0  0  0  0  0  0  0  0
    2.3445    3.0488    7.4269 H   0  0  0  0  0  0  0  0  0  0  0  0
   -1.1801    1.3462    4.0471 H   0  0  0  0  0  0  0  0  0  0  0  0
   -2.6935    2.2135    4.1543 H   0  0  0  0  0  0  0  0  0  0  0  0
    3.6803    1.1193    4.5440 H   0  0  0  0  0  0  0  0  0  0  0  0
  1 19  1  0
  1  2  2  0
  1 20  1  0
  2  3  1  0
  2 21  1  0
  3  4  1  0
  4  5  1  0
  4 19  2  0
  5 18  1  0
  5  6  1  0
  5 22  1  1
  6 11  1  0
  6  7  2  0
  7  8  1  0
  7 12  1  0
  8  9  1  0
  8 23  1  0
  8 24  1  0
  9 10  1  0
  9 25  1  0
  9 26  1  0
 10 11  1  0
 10 27  1  0
 10 28  1  0
 11 29  1  0
 11 30  1  0
 12 13  1  0
 13 14  1  0
 13 31  1  0
 13 32  1  0
 14 18  1  0
 14 15  2  0
 15 16  1  0
 16 17  2  0
 17 18  1  0
 19 33  1  0
M  END
>  <i_m_ct_stereo_status>  (170) 
1

>  <s_m_source_file>  (170) 
/var/tmp/pbs.5076255.sched01/tmppnbbzaq8/41bb87crku.sdf

>  <i_m_source_file_index>  (170) 
26

>  <i_lp_mmshare_version>  (170) 
48012

>  <i_f3d_flags>  (170) 
0

>  <s_epik_input>  (170) 
W2NIXTFbY0hdW2NIXXNjMVtDQEhdMm4obm5uMyljM1tDSDJdT0MoPUMyNClbQ0gyXVtDSDJdW0NIMl1bQ0gyXTQ=

>  <s_epik_cmdline>  (170) 
J2VwaWtfcHl0aG9uJywgJy1waHQnLCAnMi4wJywgJy1waCcsICc3LjAnLCAnLXRuJywgJzgnLCAnLW1hJywgJzIwMCcsICctaW1hZScsICc8aW5maWxlLm1hZT4nLCAnLW9tYWUnLCAnPG91dGZpbGUubWFlPic=

>  <r_lp_tautomer_probability>  (170) 
1

>  <r_epik_Ionization_Penalty>  (170) 
5.81136e-08

>  <r_epik_Ionization_Penalty_Charging>  (170) 
0

>  <r_epik_Ionization_Penalty_Neutral>  (170) 
5.81136e-08

>  <r_epik_State_Penalty>  (170) 
-0

>  <r_epik_Charging_Adjusted_Penalty>  (170) 
0

>  <i_epik_Tot_Q>  (170) 
0

>  <i_epik_Tot_abs_Q>  (170) 
0

>  <s_lp_Force_Field>  (170) 
OPLS3e

>  <r_lp_Energy>  (170) 
15.1648

>  <b_lp_Chiralities_Consistent>  (170) 
1

>  <s_lp_Variant>  (170) 
50:0-1

>  <s_i_glide_gridfile>  (170) 
pfpi4k_grid

>  <i_i_glide_lignum>  (170) 
26

>  <i_i_glide_rotatable_bonds>  (170) 
1

>  <r_i_docking_score>  (170) 
-3.08473

>  <r_i_glide_ligand_efficiency>  (170) 
-0.162354

>  <r_i_glide_ligand_efficiency_sa>  (170) 
-0.433226

>  <r_i_glide_ligand_efficiency_ln>  (170) 
-0.782045

>  <r_i_glide_gscore>  (170) 
-3.08473

>  <r_i_glide_lipo>  (170) 
-0.0249261

>  <r_i_glide_hbond>  (170) 
0

>  <r_i_glide_metal>  (170) 
-0

>  <r_i_glide_rewards>  (170) 
-1.53857

>  <r_i_glide_evdw>  (170) 
-18.1186

>  <r_i_glide_ecoul>  (170) 
-3.08769

>  <r_i_glide_erotb>  (170) 
0.238563

>  <r_i_glide_esite>  (170) 
-0.390708

>  <r_i_glide_emodel>  (170) 
-24.2114

>  <r_i_glide_energy>  (170) 
-21.2063

>  <r_i_glide_einternal>  (170) 
1.59554

>  <r_i_glide_intrahb_reward>  (170) 
-0

>  <i_i_glide_confnum>  (170) 
2

>  <i_i_glide_posenum>  (170) 
16

>  <r_i_glide_eff_state_penalty>  (170) 
0

>  <ligand_id>  (170) 
50

>  <original_smiles>  (170) 
c1csc(C2C3=C(CCCC3)OCc3nnnn32)c1

>  <smiles>  (170) 
[H]c1sc(C2([H])C3=C(OC([H])([H])c4nnnn42)C([H])([H])C([H])([H])C([H])([H])C3([H])[H])c([H])c1[H]

$$$$
51:0:0
     RDKit          3D

 61 66  0  0  1  0  0  0  0  0999 V2000
    4.2341   -1.9650    1.1766 C   0  0  0  0  0  0  0  0  0  0  0  0
    3.4186   -3.0844    1.7931 C   0  0  0  0  0  0  0  0  0  0  0  0
    2.2438   -2.9948    2.4138 C   0  0  0  0  0  0  0  0  0  0  0  0
    1.8138   -4.3335    2.9746 C   0  0  2  0  0  0  0  0  0  0  0  0
    2.1835   -4.3431    4.4609 C   0  0  0  0  0  0  0  0  0  0  0  0
    2.0189   -5.7219    5.0867 C   0  0  1  0  0  0  0  0  0  0  0  0
    0.6385   -5.9115    5.3020 O   0  0  0  0  0  0  0  0  0  0  0  0
    2.8162   -6.8349    4.3109 C   0  0  1  0  0  0  0  0  0  0  0  0
    2.7538   -8.3178    4.8445 C   0  0  2  0  0  0  0  0  0  0  0  0
    2.5766   -8.3039    6.3926 C   0  0  0  0  0  0  0  0  0  0  0  0
    4.1604   -8.9126    4.5782 C   0  0  2  0  0  0  0  0  0  0  0  0
    4.8096   -8.6045    3.1946 C   0  0  0  0  0  0  0  0  0  0  0  0
    4.2461   -7.4135    2.3461 C   0  0  1  0  0  0  0  0  0  0  0  0
    4.4245   -7.7177    0.8418 C   0  0  0  0  0  0  0  0  0  0  0  0
    2.8184   -6.8339    2.7381 C   0  0  1  0  0  0  0  0  0  0  0  0
    1.6754   -7.8126    2.2096 C   0  0  1  0  0  0  0  0  0  0  0  0
    1.9174   -9.2732    2.5919 C   0  0  0  0  0  0  0  0  0  0  0  0
    1.6941   -9.2533    4.1168 C   0  0  2  0  0  0  0  0  0  0  0  0
    0.2658   -8.6402    4.1044 C   0  0  0  0  0  0  0  0  0  0  0  0
    0.3308   -7.6625    2.9197 C   0  0  0  0  0  0  0  0  0  0  0  0
   -0.5713   -6.8926    2.5815 O   0  0  0  0  0  0  0  0  0  0  0  0
    1.7991  -10.6785    4.7277 C   0  0  1  0  0  0  0  0  0  0  0  0
    0.8587  -11.7413    4.1124 C   0  0  0  0  0  0  0  0  0  0  0  0
    3.2498  -11.2202    4.7686 C   0  0  0  0  0  0  0  0  0  0  0  0
    3.4733  -12.4288    4.8078 O   0  0  0  0  0  0  0  0  0  0  0  0
    4.2672  -10.3129    4.8520 O   0  0  0  0  0  0  0  0  0  0  0  0
    2.6518   -5.3519    2.1431 C   0  0  1  0  0  0  0  0  0  0  0  0
    1.9981   -5.4573    0.8826 O   0  0  0  0  0  0  0  0  0  0  0  0
    3.9295   -4.5007    1.8224 C   0  0  0  0  0  0  0  0  0  0  0  0
    4.4050   -2.1685    0.1191 H   0  0  0  0  0  0  0  0  0  0  0  0
    5.2021   -1.8880    1.6722 H   0  0  0  0  0  0  0  0  0  0  0  0
    3.7237   -1.0047    1.2653 H   0  0  0  0  0  0  0  0  0  0  0  0
    1.6659   -2.0930    2.5436 H   0  0  0  0  0  0  0  0  0  0  0  0
    0.7406   -4.4854    2.8608 H   0  0  0  0  0  0  0  0  0  0  0  0
    3.2225   -4.0350    4.5873 H   0  0  0  0  0  0  0  0  0  0  0  0
    1.5888   -3.6051    5.0061 H   0  0  0  0  0  0  0  0  0  0  0  0
    2.4399   -5.6473    6.0900 H   0  0  0  0  0  0  0  0  0  0  0  0
    0.5239   -6.7346    5.7508 H   0  0  0  0  0  0  0  0  0  0  0  0
    3.8191   -6.4900    4.5714 H   0  0  0  0  0  0  0  0  0  0  0  0
    2.7701   -9.2765    6.8476 H   0  0  0  0  0  0  0  0  0  0  0  0
    1.5781   -8.0000    6.7049 H   0  0  0  0  0  0  0  0  0  0  0  0
    3.2938   -7.6222    6.8577 H   0  0  0  0  0  0  0  0  0  0  0  0
    4.8245   -8.4427    5.3071 H   0  0  0  0  0  0  0  0  0  0  0  0
    5.8622   -8.3941    3.3863 H   0  0  0  0  0  0  0  0  0  0  0  0
    4.8681   -9.5093    2.5900 H   0  0  0  0  0  0  0  0  0  0  0  0
    4.9737   -6.6386    2.5621 H   0  0  0  0  0  0  0  0  0  0  0  0
    3.8308   -8.5737    0.5164 H   0  0  0  0  0  0  0  0  0  0  0  0
    5.4654   -7.9588    0.6281 H   0  0  0  0  0  0  0  0  0  0  0  0
    4.1592   -6.8792    0.1981 H   0  0  0  0  0  0  0  0  0  0  0  0
    1.5355   -7.7620    1.1304 H   0  0  0  0  0  0  0  0  0  0  0  0
    1.1707   -9.9019    2.1001 H   0  0  0  0  0  0  0  0  0  0  0  0
    2.8412   -9.7115    2.2466 H   0  0  0  0  0  0  0  0  0  0  0  0
   -0.5031   -9.3757    3.8701 H   0  0  0  0  0  0  0  0  0  0  0  0
   -0.0275   -8.1840    5.0466 H   0  0  0  0  0  0  0  0  0  0  0  0
    1.4910  -10.6184    5.7689 H   0  0  0  0  0  0  0  0  0  0  0  0
    0.8567  -12.6402    4.7343 H   0  0  0  0  0  0  0  0  0  0  0  0
    1.1705  -12.0511    3.1110 H   0  0  0  0  0  0  0  0  0  0  0  0
   -0.1763  -11.4127    4.0721 H   0  0  0  0  0  0  0  0  0  0  0  0
    2.6081   -5.8398    0.2717 H   0  0  0  0  0  0  0  0  0  0  0  0
    4.4186   -4.7561    0.8860 H   0  0  0  0  0  0  0  0  0  0  0  0
    4.6666   -4.5328    2.6249 H   0  0  0  0  0  0  0  0  0  0  0  0
  1  2  1  0
  1 30  1  0
  1 31  1  0
  1 32  1  0
  2 29  1  0
  2  3  2  0
  3  4  1  0
  3 33  1  0
  4 27  1  0
  4  5  1  0
  4 34  1  1
  5  6  1  0
  5 35  1  0
  5 36  1  0
  6  7  1  0
  6  8  1  0
  6 37  1  1
  7 38  1  0
  8 15  1  0
  8  9  1  0
  8 39  1  1
  9 18  1  0
  9 10  1  1
  9 11  1  0
 10 40  1  0
 10 41  1  0
 10 42  1  0
 11 26  1  0
 11 12  1  0
 11 43  1  1
 12 13  1  0
 12 44  1  0
 12 45  1  0
 13 14  1  0
 13 15  1  0
 13 46  1  1
 14 47  1  0
 14 48  1  0
 14 49  1  0
 15 16  1  0
 15 27  1  6
 16 20  1  0
 16 17  1  0
 16 50  1  6
 17 18  1  0
 17 51  1  0
 17 52  1  0
 18 19  1  6
 18 22  1  0
 19 20  1  0
 19 53  1  0
 19 54  1  0
 20 21  2  0
 22 23  1  0
 22 24  1  0
 22 55  1  1
 23 56  1  0
 23 57  1  0
 23 58  1  0
 24 25  2  0
 24 26  1  0
 27 28  1  6
 27 29  1  0
 28 59  1  0
 29 60  1  0
 29 61  1  0
M  END
>  <i_m_ct_stereo_status>  (171) 
1

>  <s_m_source_file>  (171) 
/var/tmp/pbs.5076255.sched01/tmppnbbzaq8/41bb87crku.sdf

>  <i_m_source_file_index>  (171) 
27

>  <i_lp_mmshare_version>  (171) 
48012

>  <i_f3d_flags>  (171) 
0

>  <s_epik_input>  (171) 
W0NIM11DKD1bQ0hdMSlbQ0gyXVtDQF0yKFtPSF0pW0NASF0xW0NIMl1bQ0BASF0oW09IXSlbQ0BIXShbQ0BAXTIzNClbQ0BAXTUoW0NIM10pW0NAQF02KFtDSDJdW0NASF00Qyg9TylbQ0gyXTYpW0NAQEhdKFtDSDNdKUMoPU8pT1tDQEhdNVtDSDJdW0NASF0zW0NIM10=

>  <s_epik_cmdline>  (171) 
J2VwaWtfcHl0aG9uJywgJy1waHQnLCAnMi4wJywgJy1waCcsICc3LjAnLCAnLXRuJywgJzgnLCAnLW1hJywgJzIwMCcsICctaW1hZScsICc8aW5maWxlLm1hZT4nLCAnLW9tYWUnLCAnPG91dGZpbGUubWFlPic=

>  <r_lp_tautomer_probability>  (171) 
1

>  <r_epik_Ionization_Penalty>  (171) 
9.63312e-07

>  <r_epik_Ionization_Penalty_Charging>  (171) 
0

>  <r_epik_Ionization_Penalty_Neutral>  (171) 
9.63312e-07

>  <r_epik_State_Penalty>  (171) 
-0

>  <r_epik_Charging_Adjusted_Penalty>  (171) 
0

>  <i_epik_Tot_Q>  (171) 
0

>  <i_epik_Tot_abs_Q>  (171) 
0

>  <s_epik_Chemistry_Notes>  (171) 
This compound has an ester and may undergo hydrolysis at high or low pH.

>  <s_lp_Force_Field>  (171) 
OPLS3e

>  <r_lp_Energy>  (171) 
72.1552

>  <b_lp_Chiralities_Consistent>  (171) 
1

>  <s_lp_Variant>  (171) 
51:0-1

>  <s_i_glide_gridfile>  (171) 
pfpi4k_grid

>  <i_i_glide_lignum>  (171) 
27

>  <i_i_glide_rotatable_bonds>  (171) 
2

>  <r_i_docking_score>  (171) 
-3.06413

>  <r_i_glide_ligand_efficiency>  (171) 
-0.10566

>  <r_i_glide_ligand_efficiency_sa>  (171) 
-0.32462

>  <r_i_glide_ligand_efficiency_ln>  (171) 
-0.701609

>  <r_i_glide_gscore>  (171) 
-3.06413

>  <r_i_glide_lipo>  (171) 
-0.116188

>  <r_i_glide_hbond>  (171) 
-0.16

>  <r_i_glide_metal>  (171) 
-0

>  <r_i_glide_rewards>  (171) 
-0.678355

>  <r_i_glide_evdw>  (171) 
-26.4892

>  <r_i_glide_ecoul>  (171) 
-4.73399

>  <r_i_glide_erotb>  (171) 
0

>  <r_i_glide_esite>  (171) 
-0.0750274

>  <r_i_glide_emodel>  (171) 
-37.8422

>  <r_i_glide_energy>  (171) 
-31.2232

>  <r_i_glide_einternal>  (171) 
0.423918

>  <r_i_glide_intrahb_reward>  (171) 
-0

>  <i_i_glide_confnum>  (171) 
2

>  <i_i_glide_posenum>  (171) 
23

>  <r_i_glide_eff_state_penalty>  (171) 
0

>  <ligand_id>  (171) 
51

>  <original_smiles>  (171) 
CC1=CC2CC(O)C3C4(C)C5CC(C)C3(C3CC4(CC3=O)C(C)C(=O)O5)C2(O)C1

>  <smiles>  (171) 
[H]OC1([H])C([H])([H])C2([H])C([H])=C(C([H])([H])[H])C([H])([H])C2(O[H])C23C4([H])C(=O)C([H])([H])C5(C4([H])[H])C([H])(C([H])([H])[H])C(=O)OC([H])(C([H])([H])C2([H])C([H])([H])[H])C5(C([H])([H])[H])C13[H]

$$$$
51:0:1
     RDKit          3D

 61 66  0  0  1  0  0  0  0  0999 V2000
    4.6541   -3.7729    8.2213 C   0  0  0  0  0  0  0  0  0  0  0  0
    4.4494   -4.1148    6.7600 C   0  0  0  0  0  0  0  0  0  0  0  0
    4.2906   -5.3211    6.2155 C   0  0  0  0  0  0  0  0  0  0  0  0
    4.2093   -5.2396    4.7058 C   0  0  2  0  0  0  0  0  0  0  0  0
    5.6036   -5.5713    4.1572 C   0  0  0  0  0  0  0  0  0  0  0  0
    5.7224   -5.2867    2.6626 C   0  0  1  0  0  0  0  0  0  0  0  0
    5.0838   -6.3459    1.9825 O   0  0  0  0  0  0  0  0  0  0  0  0
    5.3269   -3.8071    2.2985 C   0  0  1  0  0  0  0  0  0  0  0  0
    5.4082   -3.3554    0.7898 C   0  0  2  0  0  0  0  0  0  0  0  0
    6.5444   -4.1430    0.0819 C   0  0  0  0  0  0  0  0  0  0  0  0
    5.8642   -1.8755    0.8216 C   0  0  2  0  0  0  0  0  0  0  0  0
    5.1922   -0.9488    1.8798 C   0  0  0  0  0  0  0  0  0  0  0  0
    4.4450   -1.6050    3.0921 C   0  0  1  0  0  0  0  0  0  0  0  0
    3.2781   -0.6926    3.5459 C   0  0  0  0  0  0  0  0  0  0  0  0
    4.0771   -3.1498    2.9886 C   0  0  1  0  0  0  0  0  0  0  0  0
    2.8074   -3.3343    2.0450 C   0  0  1  0  0  0  0  0  0  0  0  0
    2.9467   -2.5991    0.7114 C   0  0  0  0  0  0  0  0  0  0  0  0
    4.0346   -3.4149   -0.0065 C   0  0  2  0  0  0  0  0  0  0  0  0
    3.3537   -4.8018    0.0892 C   0  0  0  0  0  0  0  0  0  0  0  0
    2.6540   -4.7322    1.4501 C   0  0  0  0  0  0  0  0  0  0  0  0
    2.0358   -5.6615    1.9642 O   0  0  0  0  0  0  0  0  0  0  0  0
    4.2709   -2.9062   -1.4544 C   0  0  1  0  0  0  0  0  0  0  0  0
    3.0248   -2.8582   -2.3802 C   0  0  0  0  0  0  0  0  0  0  0  0
    4.9937   -1.5411   -1.4881 C   0  0  0  0  0  0  0  0  0  0  0  0
    4.8792   -0.7999   -2.4604 O   0  0  0  0  0  0  0  0  0  0  0  0
    5.8399   -1.2348   -0.4592 O   0  0  0  0  0  0  0  0  0  0  0  0
    3.8233   -3.7502    4.4566 C   0  0  1  0  0  0  0  0  0  0  0  0
    2.4324   -3.6792    4.7329 O   0  0  0  0  0  0  0  0  0  0  0  0
    4.4693   -3.0482    5.6970 C   0  0  0  0  0  0  0  0  0  0  0  0
    3.8651   -3.1006    8.5609 H   0  0  0  0  0  0  0  0  0  0  0  0
    5.6127   -3.2717    8.3581 H   0  0  0  0  0  0  0  0  0  0  0  0
    4.6406   -4.6673    8.8452 H   0  0  0  0  0  0  0  0  0  0  0  0
    4.2572   -6.2576    6.7500 H   0  0  0  0  0  0  0  0  0  0  0  0
    3.4609   -5.9317    4.3197 H   0  0  0  0  0  0  0  0  0  0  0  0
    6.3552   -4.9743    4.6758 H   0  0  0  0  0  0  0  0  0  0  0  0
    5.8652   -6.6111    4.3696 H   0  0  0  0  0  0  0  0  0  0  0  0
    6.7774   -5.4161    2.4206 H   0  0  0  0  0  0  0  0  0  0  0  0
    4.1633   -6.3435    2.2074 H   0  0  0  0  0  0  0  0  0  0  0  0
    6.1739   -3.3102    2.7740 H   0  0  0  0  0  0  0  0  0  0  0  0
    6.8115   -3.7193   -0.8896 H   0  0  0  0  0  0  0  0  0  0  0  0
    6.2826   -5.1885   -0.0865 H   0  0  0  0  0  0  0  0  0  0  0  0
    7.4642   -4.1200    0.6692 H   0  0  0  0  0  0  0  0  0  0  0  0
    6.9203   -1.8956    1.1006 H   0  0  0  0  0  0  0  0  0  0  0  0
    5.9848   -0.3231    2.2909 H   0  0  0  0  0  0  0  0  0  0  0  0
    4.5537   -0.2135    1.3916 H   0  0  0  0  0  0  0  0  0  0  0  0
    5.1912   -1.5118    3.8730 H   0  0  0  0  0  0  0  0  0  0  0  0
    2.5019   -0.5997    2.7846 H   0  0  0  0  0  0  0  0  0  0  0  0
    3.6434    0.3155    3.7517 H   0  0  0  0  0  0  0  0  0  0  0  0
    2.7930   -1.0404    4.4578 H   0  0  0  0  0  0  0  0  0  0  0  0
    1.8774   -3.0206    2.5167 H   0  0  0  0  0  0  0  0  0  0  0  0
    2.0040   -2.6630    0.1643 H   0  0  0  0  0  0  0  0  0  0  0  0
    3.0951   -1.5321    0.7656 H   0  0  0  0  0  0  0  0  0  0  0  0
    2.5738   -4.9383   -0.6592 H   0  0  0  0  0  0  0  0  0  0  0  0
    4.0368   -5.6426   -0.0178 H   0  0  0  0  0  0  0  0  0  0  0  0
    4.9459   -3.6074   -1.9395 H   0  0  0  0  0  0  0  0  0  0  0  0
    3.3259   -2.6776   -3.4146 H   0  0  0  0  0  0  0  0  0  0  0  0
    2.3399   -2.0509   -2.1133 H   0  0  0  0  0  0  0  0  0  0  0  0
    2.4611   -3.7886   -2.3925 H   0  0  0  0  0  0  0  0  0  0  0  0
    2.1716   -2.7755    4.6686 H   0  0  0  0  0  0  0  0  0  0  0  0
    3.9421   -2.1577    6.0329 H   0  0  0  0  0  0  0  0  0  0  0  0
    5.5193   -2.7982    5.5410 H   0  0  0  0  0  0  0  0  0  0  0  0
  1  2  1  0
  1 30  1  0
  1 31  1  0
  1 32  1  0
  2 29  1  0
  2  3  2  0
  3  4  1  0
  3 33  1  0
  4 27  1  0
  4  5  1  0
  4 34  1  6
  5  6  1  0
  5 35  1  0
  5 36  1  0
  6  7  1  0
  6  8  1  0
  6 37  1  6
  7 38  1  0
  8 15  1  0
  8  9  1  0
  8 39  1  1
  9 18  1  0
  9 10  1  6
  9 11  1  0
 10 40  1  0
 10 41  1  0
 10 42  1  0
 11 26  1  0
 11 12  1  0
 11 43  1  1
 12 13  1  0
 12 44  1  0
 12 45  1  0
 13 14  1  0
 13 15  1  0
 13 46  1  1
 14 47  1  0
 14 48  1  0
 14 49  1  0
 15 16  1  0
 15 27  1  1
 16 20  1  0
 16 17  1  0
 16 50  1  1
 17 18  1  0
 17 51  1  0
 17 52  1  0
 18 19  1  6
 18 22  1  0
 19 20  1  0
 19 53  1  0
 19 54  1  0
 20 21  2  0
 22 23  1  0
 22 24  1  0
 22 55  1  6
 23 56  1  0
 23 57  1  0
 23 58  1  0
 24 25  2  0
 24 26  1  0
 27 28  1  1
 27 29  1  0
 28 59  1  0
 29 60  1  0
 29 61  1  0
M  END
>  <i_m_ct_stereo_status>  (172) 
1

>  <s_m_source_file>  (172) 
/var/tmp/pbs.5076255.sched01/tmppnbbzaq8/41bb87crku.sdf

>  <i_m_source_file_index>  (172) 
27

>  <i_lp_mmshare_version>  (172) 
48012

>  <i_f3d_flags>  (172) 
0

>  <s_epik_input>  (172) 
W0NIM11DKD1bQ0hdMSlbQ0gyXVtDQF0yKFtPSF0pW0NASF0xW0NIMl1bQ0BASF0oW09IXSlbQ0BIXShbQ0BAXTIzNClbQ0BAXTUoW0NIM10pW0NAQF02KFtDSDJdW0NASF00Qyg9TylbQ0gyXTYpW0NAQEhdKFtDSDNdKUMoPU8pT1tDQEhdNVtDSDJdW0NASF0zW0NIM10=

>  <s_epik_cmdline>  (172) 
J2VwaWtfcHl0aG9uJywgJy1waHQnLCAnMi4wJywgJy1waCcsICc3LjAnLCAnLXRuJywgJzgnLCAnLW1hJywgJzIwMCcsICctaW1hZScsICc8aW5maWxlLm1hZT4nLCAnLW9tYWUnLCAnPG91dGZpbGUubWFlPic=

>  <r_lp_tautomer_probability>  (172) 
1

>  <r_epik_Ionization_Penalty>  (172) 
9.63312e-07

>  <r_epik_Ionization_Penalty_Charging>  (172) 
0

>  <r_epik_Ionization_Penalty_Neutral>  (172) 
9.63312e-07

>  <r_epik_State_Penalty>  (172) 
-0

>  <r_epik_Charging_Adjusted_Penalty>  (172) 
0

>  <i_epik_Tot_Q>  (172) 
0

>  <i_epik_Tot_abs_Q>  (172) 
0

>  <s_epik_Chemistry_Notes>  (172) 
This compound has an ester and may undergo hydrolysis at high or low pH.

>  <s_lp_Force_Field>  (172) 
OPLS3e

>  <r_lp_Energy>  (172) 
72.1552

>  <b_lp_Chiralities_Consistent>  (172) 
1

>  <s_lp_Variant>  (172) 
51:0-1

>  <s_i_glide_gridfile>  (172) 
pfpi4k_grid

>  <i_i_glide_lignum>  (172) 
27

>  <i_i_glide_rotatable_bonds>  (172) 
2

>  <r_i_docking_score>  (172) 
-2.87115

>  <r_i_glide_ligand_efficiency>  (172) 
-0.099005

>  <r_i_glide_ligand_efficiency_sa>  (172) 
-0.304175

>  <r_i_glide_ligand_efficiency_ln>  (172) 
-0.65742

>  <r_i_glide_gscore>  (172) 
-2.87115

>  <r_i_glide_lipo>  (172) 
-0.478799

>  <r_i_glide_hbond>  (172) 
-0.0171156

>  <r_i_glide_metal>  (172) 
-0

>  <r_i_glide_rewards>  (172) 
-0.678355

>  <r_i_glide_evdw>  (172) 
-25.6479

>  <r_i_glide_ecoul>  (172) 
-2.37857

>  <r_i_glide_erotb>  (172) 
0

>  <r_i_glide_esite>  (172) 
-0.0576935

>  <r_i_glide_emodel>  (172) 
-34.4176

>  <r_i_glide_energy>  (172) 
-28.0265

>  <r_i_glide_einternal>  (172) 
0.0035516

>  <r_i_glide_intrahb_reward>  (172) 
-0

>  <i_i_glide_confnum>  (172) 
2

>  <i_i_glide_posenum>  (172) 
33

>  <r_i_glide_eff_state_penalty>  (172) 
0

>  <ligand_id>  (172) 
51

>  <original_smiles>  (172) 
CC1=CC2CC(O)C3C4(C)C5CC(C)C3(C3CC4(CC3=O)C(C)C(=O)O5)C2(O)C1

>  <smiles>  (172) 
[H]OC1([H])C([H])([H])C2([H])C([H])=C(C([H])([H])[H])C([H])([H])C2(O[H])C23C4([H])C(=O)C([H])([H])C5(C4([H])[H])C([H])(C([H])([H])[H])C(=O)OC([H])(C([H])([H])C2([H])C([H])([H])[H])C5(C([H])([H])[H])C13[H]

$$$$
51:0:2
     RDKit          3D

 61 66  0  0  1  0  0  0  0  0999 V2000
    4.9494   -3.3610    8.0465 C   0  0  0  0  0  0  0  0  0  0  0  0
    4.6828   -3.7877    6.6172 C   0  0  0  0  0  0  0  0  0  0  0  0
    4.5449   -5.0246    6.1435 C   0  0  0  0  0  0  0  0  0  0  0  0
    4.3834   -5.0266    4.6370 C   0  0  2  0  0  0  0  0  0  0  0  0
    5.7595   -5.3350    4.0343 C   0  0  0  0  0  0  0  0  0  0  0  0
    5.7931   -5.1197    2.5234 C   0  0  1  0  0  0  0  0  0  0  0  0
    5.1635   -6.2367    1.9325 O   0  0  0  0  0  0  0  0  0  0  0  0
    5.3228   -3.6741    2.1078 C   0  0  1  0  0  0  0  0  0  0  0  0
    5.3075   -3.2949    0.5777 C   0  0  2  0  0  0  0  0  0  0  0  0
    6.4337   -4.0751   -0.1526 C   0  0  0  0  0  0  0  0  0  0  0  0
    5.7055   -1.8017    0.5074 C   0  0  2  0  0  0  0  0  0  0  0  0
    5.0511   -0.8488    1.5530 C   0  0  0  0  0  0  0  0  0  0  0  0
    4.3960   -1.4679    2.8356 C   0  0  1  0  0  0  0  0  0  0  0  0
    3.2185   -0.5794    3.3046 C   0  0  0  0  0  0  0  0  0  0  0  0
    4.0851   -3.0281    2.8290 C   0  0  1  0  0  0  0  0  0  0  0  0
    2.7757   -3.3030    1.9673 C   0  0  1  0  0  0  0  0  0  0  0  0
    2.8184   -2.6420    0.5906 C   0  0  0  0  0  0  0  0  0  0  0  0
    3.9004   -3.4489   -0.1407 C   0  0  2  0  0  0  0  0  0  0  0  0
    3.2796   -4.8535    0.0759 C   0  0  0  0  0  0  0  0  0  0  0  0
    2.6465   -4.7341    1.4633 C   0  0  0  0  0  0  0  0  0  0  0  0
    2.0924   -5.6470    2.0702 O   0  0  0  0  0  0  0  0  0  0  0  0
    4.0418   -3.0044   -1.6263 C   0  0  1  0  0  0  0  0  0  0  0  0
    2.7504   -3.0474   -2.4893 C   0  0  0  0  0  0  0  0  0  0  0  0
    4.7194   -1.6222   -1.7759 C   0  0  0  0  0  0  0  0  0  0  0  0
    4.5519   -0.9507   -2.7916 O   0  0  0  0  0  0  0  0  0  0  0  0
    5.5998   -1.2303   -0.8020 O   0  0  0  0  0  0  0  0  0  0  0  0
    3.9273   -3.5637    4.3352 C   0  0  1  0  0  0  0  0  0  0  0  0
    2.5496   -3.5330    4.6787 O   0  0  0  0  0  0  0  0  0  0  0  0
    4.6036   -2.7772    5.5039 C   0  0  0  0  0  0  0  0  0  0  0  0
    4.1540   -2.7006    8.3944 H   0  0  0  0  0  0  0  0  0  0  0  0
    5.8931   -2.8183    8.1082 H   0  0  0  0  0  0  0  0  0  0  0  0
    5.0034   -4.2201    8.7156 H   0  0  0  0  0  0  0  0  0  0  0  0
    4.5780   -5.9317    6.7270 H   0  0  0  0  0  0  0  0  0  0  0  0
    3.6495   -5.7703    4.3273 H   0  0  0  0  0  0  0  0  0  0  0  0
    6.5088   -4.6863    4.4895 H   0  0  0  0  0  0  0  0  0  0  0  0
    6.0741   -6.3523    4.2830 H   0  0  0  0  0  0  0  0  0  0  0  0
    6.8386   -5.2228    2.2317 H   0  0  0  0  0  0  0  0  0  0  0  0
    4.2613   -6.2692    2.2166 H   0  0  0  0  0  0  0  0  0  0  0  0
    6.1756   -3.1246    2.5102 H   0  0  0  0  0  0  0  0  0  0  0  0
    6.6345   -3.6922   -1.1534 H   0  0  0  0  0  0  0  0  0  0  0  0
    6.2021   -5.1354   -0.2550 H   0  0  0  0  0  0  0  0  0  0  0  0
    7.3813   -3.9914    0.3859 H   0  0  0  0  0  0  0  0  0  0  0  0
    6.7739   -1.7694    0.7332 H   0  0  0  0  0  0  0  0  0  0  0  0
    5.8396   -0.1787    1.8924 H   0  0  0  0  0  0  0  0  0  0  0  0
    4.3612   -0.1610    1.0641 H   0  0  0  0  0  0  0  0  0  0  0  0
    5.1757   -1.3090    3.5717 H   0  0  0  0  0  0  0  0  0  0  0  0
    2.4013   -0.5522    2.5819 H   0  0  0  0  0  0  0  0  0  0  0  0
    3.5525    0.4504    3.4451 H   0  0  0  0  0  0  0  0  0  0  0  0
    2.7923   -0.9066    4.2530 H   0  0  0  0  0  0  0  0  0  0  0  0
    1.8597   -2.9901    2.4676 H   0  0  0  0  0  0  0  0  0  0  0  0
    1.8529   -2.7700    0.0977 H   0  0  0  0  0  0  0  0  0  0  0  0
    2.9274   -1.5677    0.5813 H   0  0  0  0  0  0  0  0  0  0  0  0
    2.4724   -5.0533   -0.6262 H   0  0  0  0  0  0  0  0  0  0  0  0
    3.9875   -5.6747   -0.0319 H   0  0  0  0  0  0  0  0  0  0  0  0
    4.7151   -3.7079   -2.1103 H   0  0  0  0  0  0  0  0  0  0  0  0
    2.9907   -2.9170   -3.5465 H   0  0  0  0  0  0  0  0  0  0  0  0
    2.0511   -2.2535   -2.2333 H   0  0  0  0  0  0  0  0  0  0  0  0
    2.2063   -3.9825   -2.4163 H   0  0  0  0  0  0  0  0  0  0  0  0
    2.0893   -4.1168    4.0949 H   0  0  0  0  0  0  0  0  0  0  0  0
    4.0540   -1.8925    5.8180 H   0  0  0  0  0  0  0  0  0  0  0  0
    5.6321   -2.4956    5.2804 H   0  0  0  0  0  0  0  0  0  0  0  0
  1  2  1  0
  1 30  1  0
  1 31  1  0
  1 32  1  0
  2 29  1  0
  2  3  2  0
  3  4  1  0
  3 33  1  0
  4 27  1  0
  4  5  1  0
  4 34  1  1
  5  6  1  0
  5 35  1  0
  5 36  1  0
  6  7  1  0
  6  8  1  0
  6 37  1  6
  7 38  1  0
  8 15  1  0
  8  9  1  0
  8 39  1  1
  9 18  1  0
  9 10  1  6
  9 11  1  0
 10 40  1  0
 10 41  1  0
 10 42  1  0
 11 26  1  0
 11 12  1  0
 11 43  1  1
 12 13  1  0
 12 44  1  0
 12 45  1  0
 13 14  1  0
 13 15  1  0
 13 46  1  1
 14 47  1  0
 14 48  1  0
 14 49  1  0
 15 16  1  0
 15 27  1  1
 16 20  1  0
 16 17  1  0
 16 50  1  1
 17 18  1  0
 17 51  1  0
 17 52  1  0
 18 19  1  6
 18 22  1  0
 19 20  1  0
 19 53  1  0
 19 54  1  0
 20 21  2  0
 22 23  1  0
 22 24  1  0
 22 55  1  6
 23 56  1  0
 23 57  1  0
 23 58  1  0
 24 25  2  0
 24 26  1  0
 27 28  1  1
 27 29  1  0
 28 59  1  0
 29 60  1  0
 29 61  1  0
M  END
>  <i_m_ct_stereo_status>  (173) 
1

>  <s_m_source_file>  (173) 
/var/tmp/pbs.5076255.sched01/tmppnbbzaq8/41bb87crku.sdf

>  <i_m_source_file_index>  (173) 
27

>  <i_lp_mmshare_version>  (173) 
48012

>  <i_f3d_flags>  (173) 
0

>  <s_epik_input>  (173) 
W0NIM11DKD1bQ0hdMSlbQ0gyXVtDQF0yKFtPSF0pW0NASF0xW0NIMl1bQ0BASF0oW09IXSlbQ0BIXShbQ0BAXTIzNClbQ0BAXTUoW0NIM10pW0NAQF02KFtDSDJdW0NASF00Qyg9TylbQ0gyXTYpW0NAQEhdKFtDSDNdKUMoPU8pT1tDQEhdNVtDSDJdW0NASF0zW0NIM10=

>  <s_epik_cmdline>  (173) 
J2VwaWtfcHl0aG9uJywgJy1waHQnLCAnMi4wJywgJy1waCcsICc3LjAnLCAnLXRuJywgJzgnLCAnLW1hJywgJzIwMCcsICctaW1hZScsICc8aW5maWxlLm1hZT4nLCAnLW9tYWUnLCAnPG91dGZpbGUubWFlPic=

>  <r_lp_tautomer_probability>  (173) 
1

>  <r_epik_Ionization_Penalty>  (173) 
9.63312e-07

>  <r_epik_Ionization_Penalty_Charging>  (173) 
0

>  <r_epik_Ionization_Penalty_Neutral>  (173) 
9.63312e-07

>  <r_epik_State_Penalty>  (173) 
-0

>  <r_epik_Charging_Adjusted_Penalty>  (173) 
0

>  <i_epik_Tot_Q>  (173) 
0

>  <i_epik_Tot_abs_Q>  (173) 
0

>  <s_epik_Chemistry_Notes>  (173) 
This compound has an ester and may undergo hydrolysis at high or low pH.

>  <s_lp_Force_Field>  (173) 
OPLS3e

>  <r_lp_Energy>  (173) 
72.1552

>  <b_lp_Chiralities_Consistent>  (173) 
1

>  <s_lp_Variant>  (173) 
51:0-1

>  <s_i_glide_gridfile>  (173) 
pfpi4k_grid

>  <i_i_glide_lignum>  (173) 
27

>  <i_i_glide_rotatable_bonds>  (173) 
2

>  <r_i_docking_score>  (173) 
-2.86911

>  <r_i_glide_ligand_efficiency>  (173) 
-0.0989347

>  <r_i_glide_ligand_efficiency_sa>  (173) 
-0.303959

>  <r_i_glide_ligand_efficiency_ln>  (173) 
-0.656953

>  <r_i_glide_gscore>  (173) 
-2.86911

>  <r_i_glide_lipo>  (173) 
-0.44365

>  <r_i_glide_hbond>  (173) 
-0.00612726

>  <r_i_glide_metal>  (173) 
-0

>  <r_i_glide_rewards>  (173) 
-0.678355

>  <r_i_glide_evdw>  (173) 
-26.0722

>  <r_i_glide_ecoul>  (173) 
-2.5547

>  <r_i_glide_erotb>  (173) 
0

>  <r_i_glide_esite>  (173) 
-0.0541609

>  <r_i_glide_emodel>  (173) 
-35.0034

>  <r_i_glide_energy>  (173) 
-28.6269

>  <r_i_glide_einternal>  (173) 
0.0040061

>  <r_i_glide_intrahb_reward>  (173) 
-0

>  <i_i_glide_confnum>  (173) 
2

>  <i_i_glide_posenum>  (173) 
29

>  <r_i_glide_eff_state_penalty>  (173) 
0

>  <ligand_id>  (173) 
51

>  <original_smiles>  (173) 
CC1=CC2CC(O)C3C4(C)C5CC(C)C3(C3CC4(CC3=O)C(C)C(=O)O5)C2(O)C1

>  <smiles>  (173) 
[H]OC1([H])C([H])([H])C2([H])C([H])=C(C([H])([H])[H])C([H])([H])C2(O[H])C23C4([H])C(=O)C([H])([H])C5(C4([H])[H])C([H])(C([H])([H])[H])C(=O)OC([H])(C([H])([H])C2([H])C([H])([H])[H])C5(C([H])([H])[H])C13[H]

$$$$
52:0:0
     RDKit          3D

 47 52  0  0  1  0  0  0  0  0999 V2000
    5.0537   -5.7802    5.8868 C   0  0  0  0  0  0  0  0  0  0  0  0
    4.8644   -5.5176    4.5860 C   0  0  0  0  0  0  0  0  0  0  0  0
    4.8004   -4.1438    3.9384 C   0  0  0  0  0  0  0  0  0  0  0  0
    4.6635   -4.5521    2.4558 C   0  0  2  0  0  0  0  0  0  0  0  0
    3.6996   -5.7531    2.5706 C   0  0  0  0  0  0  0  0  0  0  0  0
    4.6149   -6.5392    3.4893 C   0  0  1  0  0  0  0  0  0  0  0  0
    5.8493   -6.6694    2.5762 C   0  0  0  0  0  0  0  0  0  0  0  0
    5.9811   -5.2361    2.0208 C   0  0  1  0  0  0  0  0  0  0  0  0
    6.0352   -5.0231    0.6081 O   0  0  0  0  0  0  0  0  0  0  0  0
    5.7152   -3.6383    0.5242 C   0  0  1  0  0  0  0  0  0  0  0  0
    5.6030   -2.8968   -0.8371 C   0  0  1  0  0  0  0  0  0  0  0  0
    5.6702   -3.6577   -2.1602 C   0  0  0  0  0  0  0  0  0  0  0  0
    4.9301   -2.7465   -3.1534 C   0  0  0  0  0  0  0  0  0  0  0  0
    4.3227   -1.5805   -2.3460 C   0  0  1  0  0  0  0  0  0  0  0  0
    3.0209   -1.0574   -2.9647 C   0  0  0  0  0  0  0  0  0  0  0  0
    4.2668   -2.1302   -0.9129 C   0  0  1  0  0  0  0  0  0  0  0  0
    3.1497   -3.1381   -0.6984 C   0  0  0  0  0  0  0  0  0  0  0  0
    3.2233   -3.8307    0.4412 C   0  0  0  0  0  0  0  0  0  0  0  0
    4.4082   -3.5032    1.3467 C   0  0  1  0  0  0  0  0  0  0  0  0
    4.2899   -1.9803    1.6551 C   0  0  0  0  0  0  0  0  0  0  0  0
    4.2292   -1.1642    0.3060 C   0  0  0  0  0  0  0  0  0  0  0  0
    5.0604   -6.8005    6.2430 H   0  0  0  0  0  0  0  0  0  0  0  0
    5.2043   -4.9828    6.5973 H   0  0  0  0  0  0  0  0  0  0  0  0
    3.9172   -3.6129    4.2911 H   0  0  0  0  0  0  0  0  0  0  0  0
    5.6807   -3.5416    4.1601 H   0  0  0  0  0  0  0  0  0  0  0  0
    2.7467   -5.4880    3.0356 H   0  0  0  0  0  0  0  0  0  0  0  0
    3.5073   -6.2796    1.6323 H   0  0  0  0  0  0  0  0  0  0  0  0
    4.2078   -7.4830    3.8510 H   0  0  0  0  0  0  0  0  0  0  0  0
    6.7348   -6.9831    3.1302 H   0  0  0  0  0  0  0  0  0  0  0  0
    5.6727   -7.3845    1.7727 H   0  0  0  0  0  0  0  0  0  0  0  0
    6.8401   -4.7472    2.4882 H   0  0  0  0  0  0  0  0  0  0  0  0
    6.5092   -3.1092    1.0629 H   0  0  0  0  0  0  0  0  0  0  0  0
    6.4147   -2.1622   -0.8642 H   0  0  0  0  0  0  0  0  0  0  0  0
    6.7011   -3.8371   -2.4695 H   0  0  0  0  0  0  0  0  0  0  0  0
    5.1586   -4.6203   -2.0898 H   0  0  0  0  0  0  0  0  0  0  0  0
    5.6024   -2.3410   -3.8931 H   0  0  0  0  0  0  0  0  0  0  0  0
    4.1735   -3.3200   -3.6930 H   0  0  0  0  0  0  0  0  0  0  0  0
    5.0401   -0.7568   -2.3441 H   0  0  0  0  0  0  0  0  0  0  0  0
    2.2788   -1.8468   -3.0984 H   0  0  0  0  0  0  0  0  0  0  0  0
    3.2053   -0.6204   -3.9472 H   0  0  0  0  0  0  0  0  0  0  0  0
    2.5813   -0.2884   -2.3324 H   0  0  0  0  0  0  0  0  0  0  0  0
    2.3553   -3.2523   -1.4172 H   0  0  0  0  0  0  0  0  0  0  0  0
    2.4676   -4.5477    0.7221 H   0  0  0  0  0  0  0  0  0  0  0  0
    3.3835   -1.7994    2.2320 H   0  0  0  0  0  0  0  0  0  0  0  0
    5.1241   -1.6414    2.2684 H   0  0  0  0  0  0  0  0  0  0  0  0
    5.0526   -0.4498    0.2541 H   0  0  0  0  0  0  0  0  0  0  0  0
    3.3117   -0.5791    0.2689 H   0  0  0  0  0  0  0  0  0  0  0  0
  1  2  2  0
  1 22  1  0
  1 23  1  0
  2  6  1  0
  2  3  1  0
  4  3  1  1
  3 24  1  0
  3 25  1  0
  4  8  1  0
  4 19  1  0
  4  5  1  0
  5  6  1  0
  5 26  1  0
  5 27  1  0
  6  7  1  0
  6 28  1  1
  7  8  1  0
  7 29  1  0
  7 30  1  0
  8  9  1  0
  8 31  1  1
  9 10  1  0
 10 19  1  0
 10 11  1  0
 10 32  1  1
 11 16  1  0
 11 12  1  0
 11 33  1  6
 12 13  1  0
 12 34  1  0
 12 35  1  0
 13 14  1  0
 13 36  1  0
 13 37  1  0
 14 15  1  0
 14 16  1  0
 14 38  1  1
 15 39  1  0
 15 40  1  0
 15 41  1  0
 16 21  1  1
 16 17  1  0
 17 18  2  0
 17 42  1  0
 18 19  1  0
 18 43  1  0
 19 20  1  1
 20 21  1  0
 20 44  1  0
 20 45  1  0
 21 46  1  0
 21 47  1  0
M  END
>  <i_m_ct_stereo_status>  (174) 
1

>  <s_m_source_file>  (174) 
/var/tmp/pbs.5076255.sched01/tmppnbbzaq8/41bb87crku.sdf

>  <i_m_source_file_index>  (174) 
28

>  <i_lp_mmshare_version>  (174) 
48012

>  <i_f3d_flags>  (174) 
0

>  <s_epik_input>  (174) 
W0NIMl09QyhbQ0gyXTEpW0NAQEhdKFtDSDJdMilbQ0gyXVtDQEhdM09bQ0BIXShbQ0BdNDVbQ0BAXTEyMylbQ0BASF02W0NAQF0oW0NIXT1bQ0hdNCkoW0NIMl1bQ0gyXTUpW0NASF0oW0NIM10pW0NIMl1bQ0gyXTY=

>  <s_epik_cmdline>  (174) 
J2VwaWtfcHl0aG9uJywgJy1waHQnLCAnMi4wJywgJy1waCcsICc3LjAnLCAnLXRuJywgJzgnLCAnLW1hJywgJzIwMCcsICctaW1hZScsICc8aW5maWxlLm1hZT4nLCAnLW9tYWUnLCAnPG91dGZpbGUubWFlPic=

>  <r_lp_tautomer_probability>  (174) 
1

>  <r_epik_Ionization_Penalty>  (174) 
4.77363e-11

>  <r_epik_Ionization_Penalty_Charging>  (174) 
0

>  <r_epik_Ionization_Penalty_Neutral>  (174) 
4.77363e-11

>  <r_epik_State_Penalty>  (174) 
-0

>  <r_epik_Charging_Adjusted_Penalty>  (174) 
0

>  <i_epik_Tot_Q>  (174) 
0

>  <i_epik_Tot_abs_Q>  (174) 
0

>  <s_lp_Force_Field>  (174) 
OPLS3e

>  <r_lp_Energy>  (174) 
82.1857

>  <b_lp_Chiralities_Consistent>  (174) 
1

>  <s_lp_Variant>  (174) 
52:0-1

>  <s_i_glide_gridfile>  (174) 
pfpi4k_grid

>  <i_i_glide_lignum>  (174) 
28

>  <i_i_glide_rotatable_bonds>  (174) 
0

>  <r_i_docking_score>  (174) 
-2.88957

>  <r_i_glide_ligand_efficiency>  (174) 
-0.137598

>  <r_i_glide_ligand_efficiency_sa>  (174) 
-0.379624

>  <r_i_glide_ligand_efficiency_ln>  (174) 
-0.71444

>  <r_i_glide_gscore>  (174) 
-2.88957

>  <r_i_glide_lipo>  (174) 
-0.443982

>  <r_i_glide_hbond>  (174) 
0

>  <r_i_glide_metal>  (174) 
-0

>  <r_i_glide_rewards>  (174) 
-1.4835

>  <r_i_glide_evdw>  (174) 
-19.557

>  <r_i_glide_ecoul>  (174) 
0.105105

>  <r_i_glide_erotb>  (174) 
0

>  <r_i_glide_esite>  (174) 
0

>  <r_i_glide_emodel>  (174) 
-22.9912

>  <r_i_glide_energy>  (174) 
-19.4519

>  <r_i_glide_einternal>  (174) 
0

>  <r_i_glide_intrahb_reward>  (174) 
-0

>  <i_i_glide_confnum>  (174) 
2

>  <i_i_glide_posenum>  (174) 
7

>  <r_i_glide_eff_state_penalty>  (174) 
0

>  <ligand_id>  (174) 
52

>  <original_smiles>  (174) 
C=C1CC23CC1CC2OC1C2CCC(C)C24C=CC13CC4

>  <smiles>  (174) 
[H]C([H])=C1C([H])([H])C23C([H])([H])C1([H])C([H])([H])C2([H])OC1([H])C2([H])C([H])([H])C([H])([H])C([H])(C([H])([H])[H])C24C([H])=C([H])C13C([H])([H])C4([H])[H]

$$$$
52:0:1
     RDKit          3D

 47 52  0  0  1  0  0  0  0  0999 V2000
   -3.5660    3.3323    2.4758 C   0  0  0  0  0  0  0  0  0  0  0  0
   -2.5022    2.8601    3.1428 C   0  0  0  0  0  0  0  0  0  0  0  0
   -1.3647    2.0264    2.5680 C   0  0  0  0  0  0  0  0  0  0  0  0
   -0.4690    1.8729    3.8109 C   0  0  2  0  0  0  0  0  0  0  0  0
   -1.5325    1.6382    4.9016 C   0  0  0  0  0  0  0  0  0  0  0  0
   -2.2507    2.9528    4.6412 C   0  0  1  0  0  0  0  0  0  0  0  0
   -1.1002    3.9344    4.9287 C   0  0  0  0  0  0  0  0  0  0  0  0
    0.0712    3.2739    4.1777 C   0  0  1  0  0  0  0  0  0  0  0  0
    1.2887    3.0037    4.8771 O   0  0  0  0  0  0  0  0  0  0  0  0
    1.9025    2.0495    4.0169 C   0  0  1  0  0  0  0  0  0  0  0  0
    3.2698    1.3952    4.3586 C   0  0  1  0  0  0  0  0  0  0  0  0
    3.9712    1.6337    5.6982 C   0  0  0  0  0  0  0  0  0  0  0  0
    4.9179    0.4158    5.8383 C   0  0  0  0  0  0  0  0  0  0  0  0
    4.5719   -0.5652    4.6868 C   0  0  1  0  0  0  0  0  0  0  0  0
    4.7573   -2.0505    5.0511 C   0  0  0  0  0  0  0  0  0  0  0  0
    3.1616   -0.1365    4.2355 C   0  0  1  0  0  0  0  0  0  0  0  0
    2.0526   -0.5919    5.1700 C   0  0  0  0  0  0  0  0  0  0  0  0
    0.8603   -0.0269    4.9489 C   0  0  0  0  0  0  0  0  0  0  0  0
    0.7986    0.9799    3.8004 C   0  0  1  0  0  0  0  0  0  0  0  0
    1.2497    0.1934    2.5335 C   0  0  0  0  0  0  0  0  0  0  0  0
    2.6693   -0.4499    2.7877 C   0  0  0  0  0  0  0  0  0  0  0  0
   -4.3618    3.8663    2.9581 H   0  0  0  0  0  0  0  0  0  0  0  0
   -3.6659    3.1570    1.4145 H   0  0  0  0  0  0  0  0  0  0  0  0
   -1.7447    1.0617    2.2285 H   0  0  0  0  0  0  0  0  0  0  0  0
   -0.8603    2.5121    1.7346 H   0  0  0  0  0  0  0  0  0  0  0  0
   -2.1519    0.7628    4.6990 H   0  0  0  0  0  0  0  0  0  0  0  0
   -1.1376    1.5751    5.9179 H   0  0  0  0  0  0  0  0  0  0  0  0
   -3.1495    3.1076    5.2335 H   0  0  0  0  0  0  0  0  0  0  0  0
   -1.3156    4.9334    4.5541 H   0  0  0  0  0  0  0  0  0  0  0  0
   -0.8914    4.0002    5.9978 H   0  0  0  0  0  0  0  0  0  0  0  0
    0.2900    3.8504    3.2743 H   0  0  0  0  0  0  0  0  0  0  0  0
    2.0704    2.5610    3.0638 H   0  0  0  0  0  0  0  0  0  0  0  0
    3.9767    1.7332    3.5995 H   0  0  0  0  0  0  0  0  0  0  0  0
    4.5163    2.5787    5.7062 H   0  0  0  0  0  0  0  0  0  0  0  0
    3.2517    1.6513    6.5181 H   0  0  0  0  0  0  0  0  0  0  0  0
    5.9675    0.7108    5.7818 H   0  0  0  0  0  0  0  0  0  0  0  0
    4.7680   -0.0509    6.8144 H   0  0  0  0  0  0  0  0  0  0  0  0
    5.2523   -0.3484    3.8604 H   0  0  0  0  0  0  0  0  0  0  0  0
    4.1817   -2.3424    5.9305 H   0  0  0  0  0  0  0  0  0  0  0  0
    5.8030   -2.2675    5.2722 H   0  0  0  0  0  0  0  0  0  0  0  0
    4.4561   -2.6955    4.2237 H   0  0  0  0  0  0  0  0  0  0  0  0
    2.2265   -1.3334    5.9321 H   0  0  0  0  0  0  0  0  0  0  0  0
   -0.0133   -0.2955    5.5185 H   0  0  0  0  0  0  0  0  0  0  0  0
    0.5241   -0.5891    2.3149 H   0  0  0  0  0  0  0  0  0  0  0  0
    1.2753    0.8391    1.6555 H   0  0  0  0  0  0  0  0  0  0  0  0
    3.3839   -0.0848    2.0506 H   0  0  0  0  0  0  0  0  0  0  0  0
    2.6117   -1.5289    2.6468 H   0  0  0  0  0  0  0  0  0  0  0  0
  1  2  2  0
  1 22  1  0
  1 23  1  0
  2  6  1  0
  2  3  1  0
  4  3  1  6
  3 24  1  0
  3 25  1  0
  4  8  1  0
  4 19  1  0
  4  5  1  0
  5  6  1  0
  5 26  1  0
  5 27  1  0
  6  7  1  0
  6 28  1  1
  7  8  1  0
  7 29  1  0
  7 30  1  0
  8  9  1  0
  8 31  1  6
  9 10  1  0
 10 19  1  0
 10 11  1  0
 10 32  1  6
 11 16  1  0
 11 12  1  0
 11 33  1  6
 12 13  1  0
 12 34  1  0
 12 35  1  0
 13 14  1  0
 13 36  1  0
 13 37  1  0
 14 15  1  0
 14 16  1  0
 14 38  1  6
 15 39  1  0
 15 40  1  0
 15 41  1  0
 16 21  1  6
 16 17  1  0
 17 18  2  0
 17 42  1  0
 18 19  1  0
 18 43  1  0
 19 20  1  6
 20 21  1  0
 20 44  1  0
 20 45  1  0
 21 46  1  0
 21 47  1  0
M  END
>  <i_m_ct_stereo_status>  (175) 
1

>  <s_m_source_file>  (175) 
/var/tmp/pbs.5076255.sched01/tmppnbbzaq8/41bb87crku.sdf

>  <i_m_source_file_index>  (175) 
28

>  <i_lp_mmshare_version>  (175) 
48012

>  <i_f3d_flags>  (175) 
0

>  <s_epik_input>  (175) 
W0NIMl09QyhbQ0gyXTEpW0NAQEhdKFtDSDJdMilbQ0gyXVtDQEhdM09bQ0BIXShbQ0BdNDVbQ0BAXTEyMylbQ0BASF02W0NAQF0oW0NIXT1bQ0hdNCkoW0NIMl1bQ0gyXTUpW0NASF0oW0NIM10pW0NIMl1bQ0gyXTY=

>  <s_epik_cmdline>  (175) 
J2VwaWtfcHl0aG9uJywgJy1waHQnLCAnMi4wJywgJy1waCcsICc3LjAnLCAnLXRuJywgJzgnLCAnLW1hJywgJzIwMCcsICctaW1hZScsICc8aW5maWxlLm1hZT4nLCAnLW9tYWUnLCAnPG91dGZpbGUubWFlPic=

>  <r_lp_tautomer_probability>  (175) 
1

>  <r_epik_Ionization_Penalty>  (175) 
4.77363e-11

>  <r_epik_Ionization_Penalty_Charging>  (175) 
0

>  <r_epik_Ionization_Penalty_Neutral>  (175) 
4.77363e-11

>  <r_epik_State_Penalty>  (175) 
-0

>  <r_epik_Charging_Adjusted_Penalty>  (175) 
0

>  <i_epik_Tot_Q>  (175) 
0

>  <i_epik_Tot_abs_Q>  (175) 
0

>  <s_lp_Force_Field>  (175) 
OPLS3e

>  <r_lp_Energy>  (175) 
82.1857

>  <b_lp_Chiralities_Consistent>  (175) 
1

>  <s_lp_Variant>  (175) 
52:0-1

>  <s_i_glide_gridfile>  (175) 
pfpi4k_grid

>  <i_i_glide_lignum>  (175) 
28

>  <i_i_glide_rotatable_bonds>  (175) 
0

>  <r_i_docking_score>  (175) 
-2.63002

>  <r_i_glide_ligand_efficiency>  (175) 
-0.125239

>  <r_i_glide_ligand_efficiency_sa>  (175) 
-0.345525

>  <r_i_glide_ligand_efficiency_ln>  (175) 
-0.650266

>  <r_i_glide_gscore>  (175) 
-2.63002

>  <r_i_glide_lipo>  (175) 
-0.15172

>  <r_i_glide_hbond>  (175) 
0

>  <r_i_glide_metal>  (175) 
-0

>  <r_i_glide_rewards>  (175) 
-1.4835

>  <r_i_glide_evdw>  (175) 
-19.8375

>  <r_i_glide_ecoul>  (175) 
-0.0194883

>  <r_i_glide_erotb>  (175) 
0

>  <r_i_glide_esite>  (175) 
0

>  <r_i_glide_emodel>  (175) 
-23.0886

>  <r_i_glide_energy>  (175) 
-19.857

>  <r_i_glide_einternal>  (175) 
0

>  <r_i_glide_intrahb_reward>  (175) 
-0

>  <i_i_glide_confnum>  (175) 
1

>  <i_i_glide_posenum>  (175) 
5

>  <r_i_glide_eff_state_penalty>  (175) 
0

>  <ligand_id>  (175) 
52

>  <original_smiles>  (175) 
C=C1CC23CC1CC2OC1C2CCC(C)C24C=CC13CC4

>  <smiles>  (175) 
[H]C([H])=C1C([H])([H])C23C([H])([H])C1([H])C([H])([H])C2([H])OC1([H])C2([H])C([H])([H])C([H])([H])C([H])(C([H])([H])[H])C24C([H])=C([H])C13C([H])([H])C4([H])[H]

$$$$
52:0:2
     RDKit          3D

 47 52  0  0  1  0  0  0  0  0999 V2000
   -3.2114    3.1970    2.6853 C   0  0  0  0  0  0  0  0  0  0  0  0
   -2.1664    2.5515    3.2238 C   0  0  0  0  0  0  0  0  0  0  0  0
   -1.1022    1.7493    2.4822 C   0  0  0  0  0  0  0  0  0  0  0  0
   -0.1883    1.3589    3.6596 C   0  0  2  0  0  0  0  0  0  0  0  0
   -1.2399    1.0297    4.7412 C   0  0  0  0  0  0  0  0  0  0  0  0
   -1.8654    2.4125    4.7076 C   0  0  1  0  0  0  0  0  0  0  0  0
   -0.6456    3.2675    5.0927 C   0  0  0  0  0  0  0  0  0  0  0  0
    0.4591    2.6518    4.2112 C   0  0  1  0  0  0  0  0  0  0  0  0
    1.6737    2.2032    4.8197 O   0  0  0  0  0  0  0  0  0  0  0  0
    2.1951    1.3493    3.8074 C   0  0  1  0  0  0  0  0  0  0  0  0
    3.5224    0.5618    3.9971 C   0  0  1  0  0  0  0  0  0  0  0  0
    4.2693    0.5506    5.3348 C   0  0  0  0  0  0  0  0  0  0  0  0
    5.1274   -0.7353    5.2634 C   0  0  0  0  0  0  0  0  0  0  0  0
    4.6886   -1.5086    3.9897 C   0  0  1  0  0  0  0  0  0  0  0  0
    4.7761   -3.0401    4.1221 C   0  0  0  0  0  0  0  0  0  0  0  0
    3.3040   -0.9244    3.6554 C   0  0  1  0  0  0  0  0  0  0  0  0
    2.1852   -1.4419    4.5484 C   0  0  0  0  0  0  0  0  0  0  0  0
    1.0322   -0.7725    4.4552 C   0  0  0  0  0  0  0  0  0  0  0  0
    1.0142    0.3995    3.4746 C   0  0  1  0  0  0  0  0  0  0  0  0
    1.3829   -0.2127    2.0905 C   0  0  0  0  0  0  0  0  0  0  0  0
    2.7560   -0.9818    2.1953 C   0  0  0  0  0  0  0  0  0  0  0  0
   -3.9327    3.7129    3.2918 H   0  0  0  0  0  0  0  0  0  0  0  0
   -3.3791    3.2038    1.6240 H   0  0  0  0  0  0  0  0  0  0  0  0
   -1.5539    0.8767    2.0124 H   0  0  0  0  0  0  0  0  0  0  0  0
   -0.5909    2.3270    1.7126 H   0  0  0  0  0  0  0  0  0  0  0  0
   -1.9265    0.2363    4.4349 H   0  0  0  0  0  0  0  0  0  0  0  0
   -0.8257    0.7871    5.7221 H   0  0  0  0  0  0  0  0  0  0  0  0
   -2.7347    2.5482    5.3488 H   0  0  0  0  0  0  0  0  0  0  0  0
   -0.8078    4.3236    4.8771 H   0  0  0  0  0  0  0  0  0  0  0  0
   -0.4085    3.1604    6.1520 H   0  0  0  0  0  0  0  0  0  0  0  0
    0.6912    3.3441    3.3953 H   0  0  0  0  0  0  0  0  0  0  0  0
    2.3765    1.9880    2.9367 H   0  0  0  0  0  0  0  0  0  0  0  0
    4.2308    0.9586    3.2655 H   0  0  0  0  0  0  0  0  0  0  0  0
    4.8803    1.4449    5.4653 H   0  0  0  0  0  0  0  0  0  0  0  0
    3.5704    0.4939    6.1701 H   0  0  0  0  0  0  0  0  0  0  0  0
    6.1925   -0.4999    5.2193 H   0  0  0  0  0  0  0  0  0  0  0  0
    4.9693   -1.3326    6.1634 H   0  0  0  0  0  0  0  0  0  0  0  0
    5.3650   -1.2152    3.1834 H   0  0  0  0  0  0  0  0  0  0  0  0
    4.2012   -3.4222    4.9662 H   0  0  0  0  0  0  0  0  0  0  0  0
    5.8098   -3.3548    4.2732 H   0  0  0  0  0  0  0  0  0  0  0  0
    4.4125   -3.5306    3.2183 H   0  0  0  0  0  0  0  0  0  0  0  0
    2.3210   -2.3027    5.1820 H   0  0  0  0  0  0  0  0  0  0  0  0
    0.1555   -1.0736    5.0069 H   0  0  0  0  0  0  0  0  0  0  0  0
    0.6069   -0.9093    1.7790 H   0  0  0  0  0  0  0  0  0  0  0  0
    1.4288    0.5550    1.3174 H   0  0  0  0  0  0  0  0  0  0  0  0
    3.4761   -0.5594    1.4932 H   0  0  0  0  0  0  0  0  0  0  0  0
    2.6147   -2.0198    1.8967 H   0  0  0  0  0  0  0  0  0  0  0  0
  1  2  2  0
  1 22  1  0
  1 23  1  0
  2  6  1  0
  2  3  1  0
  4  3  1  6
  3 24  1  0
  3 25  1  0
  4  8  1  0
  4 19  1  0
  4  5  1  0
  5  6  1  0
  5 26  1  0
  5 27  1  0
  6  7  1  0
  6 28  1  1
  7  8  1  0
  7 29  1  0
  7 30  1  0
  8  9  1  0
  8 31  1  6
  9 10  1  0
 10 19  1  0
 10 11  1  0
 10 32  1  6
 11 16  1  0
 11 12  1  0
 11 33  1  6
 12 13  1  0
 12 34  1  0
 12 35  1  0
 13 14  1  0
 13 36  1  0
 13 37  1  0
 14 15  1  0
 14 16  1  0
 14 38  1  6
 15 39  1  0
 15 40  1  0
 15 41  1  0
 16 21  1  6
 16 17  1  0
 17 18  2  0
 17 42  1  0
 18 19  1  0
 18 43  1  0
 19 20  1  6
 20 21  1  0
 20 44  1  0
 20 45  1  0
 21 46  1  0
 21 47  1  0
M  END
>  <i_m_ct_stereo_status>  (176) 
1

>  <s_m_source_file>  (176) 
/var/tmp/pbs.5076255.sched01/tmppnbbzaq8/41bb87crku.sdf

>  <i_m_source_file_index>  (176) 
28

>  <i_lp_mmshare_version>  (176) 
48012

>  <i_f3d_flags>  (176) 
0

>  <s_epik_input>  (176) 
W0NIMl09QyhbQ0gyXTEpW0NAQEhdKFtDSDJdMilbQ0gyXVtDQEhdM09bQ0BIXShbQ0BdNDVbQ0BAXTEyMylbQ0BASF02W0NAQF0oW0NIXT1bQ0hdNCkoW0NIMl1bQ0gyXTUpW0NASF0oW0NIM10pW0NIMl1bQ0gyXTY=

>  <s_epik_cmdline>  (176) 
J2VwaWtfcHl0aG9uJywgJy1waHQnLCAnMi4wJywgJy1waCcsICc3LjAnLCAnLXRuJywgJzgnLCAnLW1hJywgJzIwMCcsICctaW1hZScsICc8aW5maWxlLm1hZT4nLCAnLW9tYWUnLCAnPG91dGZpbGUubWFlPic=

>  <r_lp_tautomer_probability>  (176) 
1

>  <r_epik_Ionization_Penalty>  (176) 
4.77363e-11

>  <r_epik_Ionization_Penalty_Charging>  (176) 
0

>  <r_epik_Ionization_Penalty_Neutral>  (176) 
4.77363e-11

>  <r_epik_State_Penalty>  (176) 
-0

>  <r_epik_Charging_Adjusted_Penalty>  (176) 
0

>  <i_epik_Tot_Q>  (176) 
0

>  <i_epik_Tot_abs_Q>  (176) 
0

>  <s_lp_Force_Field>  (176) 
OPLS3e

>  <r_lp_Energy>  (176) 
82.1857

>  <b_lp_Chiralities_Consistent>  (176) 
1

>  <s_lp_Variant>  (176) 
52:0-1

>  <s_i_glide_gridfile>  (176) 
pfpi4k_grid

>  <i_i_glide_lignum>  (176) 
28

>  <i_i_glide_rotatable_bonds>  (176) 
0

>  <r_i_docking_score>  (176) 
-2.58328

>  <r_i_glide_ligand_efficiency>  (176) 
-0.123014

>  <r_i_glide_ligand_efficiency_sa>  (176) 
-0.339385

>  <r_i_glide_ligand_efficiency_ln>  (176) 
-0.638712

>  <r_i_glide_gscore>  (176) 
-2.58328

>  <r_i_glide_lipo>  (176) 
-0.115756

>  <r_i_glide_hbond>  (176) 
0

>  <r_i_glide_metal>  (176) 
-0

>  <r_i_glide_rewards>  (176) 
-1.4835

>  <r_i_glide_evdw>  (176) 
-20.1211

>  <r_i_glide_ecoul>  (176) 
0.146864

>  <r_i_glide_erotb>  (176) 
0

>  <r_i_glide_esite>  (176) 
0

>  <r_i_glide_emodel>  (176) 
-23.1402

>  <r_i_glide_energy>  (176) 
-19.9743

>  <r_i_glide_einternal>  (176) 
0

>  <r_i_glide_intrahb_reward>  (176) 
-0

>  <i_i_glide_confnum>  (176) 
2

>  <i_i_glide_posenum>  (176) 
4

>  <r_i_glide_eff_state_penalty>  (176) 
0

>  <ligand_id>  (176) 
52

>  <original_smiles>  (176) 
C=C1CC23CC1CC2OC1C2CCC(C)C24C=CC13CC4

>  <smiles>  (176) 
[H]C([H])=C1C([H])([H])C23C([H])([H])C1([H])C([H])([H])C2([H])OC1([H])C2([H])C([H])([H])C([H])([H])C([H])(C([H])([H])[H])C24C([H])=C([H])C13C([H])([H])C4([H])[H]

$$$$
53:0:0
     RDKit          3D

 69 75  0  0  1  0  0  0  0  0999 V2000
    3.1509   -2.4121   -2.3673 C   0  0  0  0  0  0  0  0  0  0  0  0
    3.9688   -3.1823   -1.5010 O   0  0  0  0  0  0  0  0  0  0  0  0
    3.2407   -3.8363   -0.4972 C   0  0  2  0  0  0  0  0  0  0  0  0
    2.6712   -2.9127    0.3891 O   0  0  0  0  0  0  0  0  0  0  0  0
    3.5910   -2.5535    1.4021 C   0  0  2  0  0  0  0  0  0  0  0  0
    4.6412   -1.6544    0.9731 O   0  0  0  0  0  0  0  0  0  0  0  0
    5.5783   -2.6362    1.0832 C   0  0  0  0  0  0  0  0  0  0  0  0
    6.7911   -2.5851    0.8973 O   0  0  0  0  0  0  0  0  0  0  0  0
    4.5660   -3.7246    1.4995 C   0  0  1  0  0  0  0  0  0  0  0  0
    4.8572   -4.2126    2.9275 C   0  0  0  0  0  0  0  0  0  0  0  0
    5.3798   -3.5029    3.7776 O   0  0  0  0  0  0  0  0  0  0  0  0
    4.4164   -5.5681    3.2960 C   0  0  0  0  0  0  0  0  0  0  0  0
    5.0638   -6.6288    2.8302 C   0  0  0  0  0  0  0  0  0  0  0  0
    6.5632   -6.7589    2.5013 C   0  0  0  0  0  0  0  0  0  0  0  0
    3.8637   -7.0573    1.9360 C   0  0  1  0  0  0  0  0  0  0  0  0
    3.4935   -8.6057    1.7348 C   0  0  2  0  0  0  0  0  0  0  0  0
    1.9646   -8.8700    1.7550 C   0  0  0  0  0  0  0  0  0  0  0  0
    4.1744   -9.7099    2.6212 C   0  0  2  0  0  0  0  0  0  0  0  0
    4.0739   -9.2745    3.9811 O   0  0  0  0  0  0  0  0  0  0  0  0
    3.6200  -10.1465    5.0331 C   0  0  0  0  0  0  0  0  0  0  0  0
    3.4601   -9.1535    6.1999 C   0  0  0  0  0  0  0  0  0  0  0  0
    2.2281  -10.7388    4.7018 C   0  0  0  0  0  0  0  0  0  0  0  0
    4.6776  -11.2467    5.3924 C   0  0  1  0  0  0  0  0  0  0  0  0
    4.3596  -12.0413    6.6813 C   0  0  0  0  0  0  0  0  0  0  0  0
    4.9591  -12.2443    4.2743 C   0  0  2  0  0  0  0  0  0  0  0  0
    6.2672  -12.8121    4.3293 O   0  0  0  0  0  0  0  0  0  0  0  0
    5.9191  -12.0629    3.1463 C   0  0  2  0  0  0  0  0  0  0  0  0
    6.3266  -10.7412    3.1022 O   0  0  0  0  0  0  0  0  0  0  0  0
    5.6697   -9.9462    2.1890 C   0  0  1  0  0  0  0  0  0  0  0  0
    5.8531  -10.4348    0.8776 O   0  0  0  0  0  0  0  0  0  0  0  0
    3.0746   -6.2142    2.9731 C   0  0  2  0  0  0  0  0  0  0  0  0
    2.1939   -5.6280    1.8605 C   0  0  0  0  0  0  0  0  0  0  0  0
    3.3416   -5.9605    0.9017 C   0  0  1  0  0  0  0  0  0  0  0  0
    4.1689   -4.7395    0.3811 C   0  0  1  0  0  0  0  0  0  0  0  0
    5.3611   -5.2392   -0.4718 C   0  0  0  0  0  0  0  0  0  0  0  0
    3.7699   -1.9482   -3.1352 H   0  0  0  0  0  0  0  0  0  0  0  0
    2.6439   -1.6019   -1.8353 H   0  0  0  0  0  0  0  0  0  0  0  0
    2.3971   -3.0204   -2.8538 H   0  0  0  0  0  0  0  0  0  0  0  0
    2.4440   -4.4143   -0.9797 H   0  0  0  0  0  0  0  0  0  0  0  0
    3.1771   -2.2316    2.3602 H   0  0  0  0  0  0  0  0  0  0  0  0
    6.7637   -7.1724    1.5193 H   0  0  0  0  0  0  0  0  0  0  0  0
    6.9340   -7.4619    3.2312 H   0  0  0  0  0  0  0  0  0  0  0  0
    7.1352   -5.8334    2.6363 H   0  0  0  0  0  0  0  0  0  0  0  0
    3.7555   -8.8657    0.7142 H   0  0  0  0  0  0  0  0  0  0  0  0
    1.5109   -8.5935    2.7114 H   0  0  0  0  0  0  0  0  0  0  0  0
    1.7317   -9.9217    1.6061 H   0  0  0  0  0  0  0  0  0  0  0  0
    1.4397   -8.3311    0.9633 H   0  0  0  0  0  0  0  0  0  0  0  0
    3.6503  -10.6473    2.4934 H   0  0  0  0  0  0  0  0  0  0  0  0
    2.9918   -9.6144    7.0740 H   0  0  0  0  0  0  0  0  0  0  0  0
    2.8268   -8.3141    5.9008 H   0  0  0  0  0  0  0  0  0  0  0  0
    4.4243   -8.7394    6.5048 H   0  0  0  0  0  0  0  0  0  0  0  0
    1.8296  -11.2957    5.5472 H   0  0  0  0  0  0  0  0  0  0  0  0
    2.2416  -11.4216    3.8599 H   0  0  0  0  0  0  0  0  0  0  0  0
    1.5164   -9.9413    4.4843 H   0  0  0  0  0  0  0  0  0  0  0  0
    5.6156  -10.7261    5.5994 H   0  0  0  0  0  0  0  0  0  0  0  0
    3.4593  -12.6262    6.5662 H   0  0  0  0  0  0  0  0  0  0  0  0
    4.2406  -11.4122    7.5678 H   0  0  0  0  0  0  0  0  0  0  0  0
    5.1492  -12.7648    6.9053 H   0  0  0  0  0  0  0  0  0  0  0  0
    4.1487  -12.9511    4.0687 H   0  0  0  0  0  0  0  0  0  0  0  0
    5.8708  -12.6627    2.2107 H   0  0  0  0  0  0  0  0  0  0  0  0
    6.2787   -9.0517    2.2805 H   0  0  0  0  0  0  0  0  0  0  0  0
    5.1296  -11.0791    0.6427 H   0  0  0  0  0  0  0  0  0  0  0  0
    2.5252   -6.7964    3.7115 H   0  0  0  0  0  0  0  0  0  0  0  0
    1.3079   -6.2447    1.6844 H   0  0  0  0  0  0  0  0  0  0  0  0
    1.8897   -4.5853    1.9815 H   0  0  0  0  0  0  0  0  0  0  0  0
    2.9375   -6.4863    0.0640 H   0  0  0  0  0  0  0  0  0  0  0  0
    6.0529   -5.8433    0.0870 H   0  0  0  0  0  0  0  0  0  0  0  0
    5.9385   -4.4322   -0.9181 H   0  0  0  0  0  0  0  0  0  0  0  0
    5.0071   -5.8589   -1.2965 H   0  0  0  0  0  0  0  0  0  0  0  0
  1  2  1  0
  1 36  1  0
  1 37  1  0
  1 38  1  0
  2  3  1  0
  3 34  1  0
  3  4  1  0
  3 39  1  6
  4  5  1  0
  5  9  1  0
  5  6  1  0
  5 40  1  1
  6  7  1  0
  7  8  2  0
  9  7  1  6
  9 34  1  0
  9 10  1  0
 10 11  2  0
 10 12  1  0
 12 31  1  0
 12 13  2  0
 13 14  1  0
 15 13  1  1
 14 41  1  0
 14 42  1  0
 14 43  1  0
 15 33  1  0
 15 16  1  0
 15 31  1  0
 16 17  1  0
 16 18  1  0
 16 44  1  6
 17 45  1  0
 17 46  1  0
 17 47  1  0
 18 29  1  0
 18 19  1  0
 18 48  1  1
 19 20  1  0
 20 21  1  0
 20 22  1  0
 20 23  1  0
 21 49  1  0
 21 50  1  0
 21 51  1  0
 22 52  1  0
 22 53  1  0
 22 54  1  0
 23 24  1  0
 23 25  1  0
 23 55  1  1
 24 56  1  0
 24 57  1  0
 24 58  1  0
 25 27  1  0
 25 26  1  0
 25 59  1  6
 26 27  1  0
 27 28  1  0
 27 60  1  6
 28 29  1  0
 29 30  1  0
 29 61  1  6
 30 62  1  0
 31 32  1  0
 31 63  1  1
 32 33  1  0
 32 64  1  0
 32 65  1  0
 33 34  1  0
 33 66  1  6
 34 35  1  6
 35 67  1  0
 35 68  1  0
 35 69  1  0
M  END
>  <i_m_ct_stereo_status>  (177) 
1

>  <s_m_source_file>  (177) 
/var/tmp/pbs.5076255.sched01/tmppnbbzaq8/41bb87crku.sdf

>  <i_m_source_file_index>  (177) 
29

>  <i_lp_mmshare_version>  (177) 
48012

>  <i_f3d_flags>  (177) 
0

>  <s_epik_input>  (177) 
Tz1DMU9bQ0BIXShbQ0BAXTEyMylPW0NAQEhdKE9bQ0gzXSlbQ0BdMyhbQ0gzXSlbQ0BIXTRbQ0BAXTUoW0NASF0oW0NIMl00KUMoQzI9Tyk9QzVbQ0gzXSlbQ0BIXShbQ0gzXSlbQ0BIXShPQyhbQ0gzXSkoW0NIM10pW0NASF02W0NIM10pW0NASF0oW09IXSlPW0NAQEhdKE83KVtDQEhdNjc=

>  <s_epik_cmdline>  (177) 
J2VwaWtfcHl0aG9uJywgJy1waHQnLCAnMi4wJywgJy1waCcsICc3LjAnLCAnLXRuJywgJzgnLCAnLW1hJywgJzIwMCcsICctaW1hZScsICc8aW5maWxlLm1hZT4nLCAnLW9tYWUnLCAnPG91dGZpbGUubWFlPic=

>  <r_lp_tautomer_probability>  (177) 
1

>  <r_epik_Ionization_Penalty>  (177) 
1.23477e-06

>  <r_epik_Ionization_Penalty_Charging>  (177) 
0

>  <r_epik_Ionization_Penalty_Neutral>  (177) 
1.23477e-06

>  <r_epik_State_Penalty>  (177) 
-0

>  <r_epik_Charging_Adjusted_Penalty>  (177) 
0

>  <i_epik_Tot_Q>  (177) 
0

>  <i_epik_Tot_abs_Q>  (177) 
0

>  <s_epik_Chemistry_Notes>  (177) 
This compound has an ester and may undergo hydrolysis at high or low pH. This compound contains an acetal/aminal-like group ( X-CH(R)-Y where X, Y are N, S, or O) that may be acid/base labile, releasing an aldehyde.

>  <s_lp_Force_Field>  (177) 
OPLS3e

>  <r_lp_Energy>  (177) 
86.8663

>  <b_lp_Chiralities_Consistent>  (177) 
1

>  <s_lp_Variant>  (177) 
53:0-1

>  <s_i_glide_gridfile>  (177) 
pfpi4k_grid

>  <i_i_glide_lignum>  (177) 
29

>  <i_i_glide_rotatable_bonds>  (177) 
4

>  <r_i_docking_score>  (177) 
-2.81871

>  <r_i_glide_ligand_efficiency>  (177) 
-0.0805347

>  <r_i_glide_ligand_efficiency_sa>  (177) 
-0.263434

>  <r_i_glide_ligand_efficiency_ln>  (177) 
-0.61877

>  <r_i_glide_gscore>  (177) 
-2.81871

>  <r_i_glide_lipo>  (177) 
-0.128485

>  <r_i_glide_hbond>  (177) 
0

>  <r_i_glide_metal>  (177) 
-0

>  <r_i_glide_rewards>  (177) 
-0.177346

>  <r_i_glide_evdw>  (177) 
-20.626

>  <r_i_glide_ecoul>  (177) 
-10.336

>  <r_i_glide_erotb>  (177) 
0.169148

>  <r_i_glide_esite>  (177) 
-0.100339

>  <r_i_glide_emodel>  (177) 
-32.7816

>  <r_i_glide_energy>  (177) 
-30.9619

>  <r_i_glide_einternal>  (177) 
5.77271

>  <r_i_glide_intrahb_reward>  (177) 
-0

>  <i_i_glide_confnum>  (177) 
2

>  <i_i_glide_posenum>  (177) 
37

>  <r_i_glide_eff_state_penalty>  (177) 
0

>  <ligand_id>  (177) 
53

>  <original_smiles>  (177) 
COC1OC2OC(=O)C23C(=O)C2=C(C)C4(C(C)C5OC(C)(C)C(C)C6OC6OC5O)C2CC4C13C

>  <smiles>  (177) 
[H]OC1([H])OC2([H])OC2([H])C([H])(C([H])([H])[H])C(C([H])([H])[H])(C([H])([H])[H])OC1([H])C([H])(C([H])([H])[H])C12C(C([H])([H])[H])=C3C(=O)C45C(=O)OC4([H])OC([H])(OC([H])([H])[H])C5(C([H])([H])[H])C1([H])C([H])([H])C32[H]

$$$$
53:0:1
     RDKit          3D

 69 75  0  0  1  0  0  0  0  0999 V2000
    2.8304   -3.0548   -3.8032 C   0  0  0  0  0  0  0  0  0  0  0  0
    3.8034   -3.4569   -2.8610 O   0  0  0  0  0  0  0  0  0  0  0  0
    3.3365   -3.3462   -1.5511 C   0  0  2  0  0  0  0  0  0  0  0  0
    3.1178   -2.0032   -1.2348 O   0  0  0  0  0  0  0  0  0  0  0  0
    4.3134   -1.3870   -0.7672 C   0  0  2  0  0  0  0  0  0  0  0  0
    5.2709   -1.0916   -1.7961 O   0  0  0  0  0  0  0  0  0  0  0  0
    6.1022   -2.0744   -1.3443 C   0  0  0  0  0  0  0  0  0  0  0  0
    7.2412   -2.3709   -1.7115 O   0  0  0  0  0  0  0  0  0  0  0  0
    5.1745   -2.5461   -0.2377 C   0  0  1  0  0  0  0  0  0  0  0  0
    5.8448   -2.3120    1.1044 C   0  0  0  0  0  0  0  0  0  0  0  0
    6.6012   -1.3618    1.3161 O   0  0  0  0  0  0  0  0  0  0  0  0
    5.4000   -3.1732    2.1862 C   0  0  0  0  0  0  0  0  0  0  0  0
    5.7593   -4.4547    2.3065 C   0  0  0  0  0  0  0  0  0  0  0  0
    7.0388   -5.2058    1.9613 C   0  0  0  0  0  0  0  0  0  0  0  0
    4.2871   -4.9175    2.0901 C   0  0  1  0  0  0  0  0  0  0  0  0
    3.8043   -6.1938    2.8653 C   0  0  2  0  0  0  0  0  0  0  0  0
    4.0774   -7.4864    2.0604 C   0  0  0  0  0  0  0  0  0  0  0  0
    2.3441   -6.2359    3.4461 C   0  0  2  0  0  0  0  0  0  0  0  0
    1.4146   -6.4361    2.3743 O   0  0  0  0  0  0  0  0  0  0  0  0
    0.4305   -7.5016    2.4027 C   0  0  0  0  0  0  0  0  0  0  0  0
   -0.0978   -7.4316    0.9609 C   0  0  0  0  0  0  0  0  0  0  0  0
    1.0223   -8.9015    2.6566 C   0  0  0  0  0  0  0  0  0  0  0  0
   -0.7304   -7.2119    3.3995 C   0  0  1  0  0  0  0  0  0  0  0  0
   -1.9804   -8.0975    3.2460 C   0  0  0  0  0  0  0  0  0  0  0  0
   -0.3265   -7.1246    4.8647 C   0  0  2  0  0  0  0  0  0  0  0  0
   -1.1408   -6.2275    5.6189 O   0  0  0  0  0  0  0  0  0  0  0  0
    0.2639   -5.9445    5.5621 C   0  0  2  0  0  0  0  0  0  0  0  0
    0.6376   -4.9641    4.6348 O   0  0  0  0  0  0  0  0  0  0  0  0
    1.9608   -4.9406    4.2621 C   0  0  1  0  0  0  0  0  0  0  0  0
    2.7957   -4.7727    5.4178 O   0  0  0  0  0  0  0  0  0  0  0  0
    3.9789   -3.5068    2.5765 C   0  0  2  0  0  0  0  0  0  0  0  0
    2.8690   -3.3847    1.5143 C   0  0  0  0  0  0  0  0  0  0  0  0
    3.6194   -4.4337    0.7170 C   0  0  1  0  0  0  0  0  0  0  0  0
    4.3901   -3.8569   -0.5143 C   0  0  1  0  0  0  0  0  0  0  0  0
    5.2384   -4.9736   -1.1261 C   0  0  0  0  0  0  0  0  0  0  0  0
    3.2433   -3.2013   -4.7949 H   0  0  0  0  0  0  0  0  0  0  0  0
    2.5750   -1.9958   -3.7030 H   0  0  0  0  0  0  0  0  0  0  0  0
    1.9173   -3.6374   -3.7185 H   0  0  0  0  0  0  0  0  0  0  0  0
    2.3906   -3.8899   -1.4613 H   0  0  0  0  0  0  0  0  0  0  0  0
    4.1895   -0.5528   -0.0739 H   0  0  0  0  0  0  0  0  0  0  0  0
    6.8962   -6.0688    1.3057 H   0  0  0  0  0  0  0  0  0  0  0  0
    7.4930   -5.5568    2.8864 H   0  0  0  0  0  0  0  0  0  0  0  0
    7.7397   -4.5071    1.5164 H   0  0  0  0  0  0  0  0  0  0  0  0
    4.4475   -6.2826    3.7365 H   0  0  0  0  0  0  0  0  0  0  0  0
    3.5196   -7.5051    1.1270 H   0  0  0  0  0  0  0  0  0  0  0  0
    3.7841   -8.3701    2.6208 H   0  0  0  0  0  0  0  0  0  0  0  0
    5.1320   -7.6266    1.8183 H   0  0  0  0  0  0  0  0  0  0  0  0
    2.2965   -7.1059    4.1143 H   0  0  0  0  0  0  0  0  0  0  0  0
   -0.8419   -8.2078    0.8037 H   0  0  0  0  0  0  0  0  0  0  0  0
    0.7274   -7.5722    0.2660 H   0  0  0  0  0  0  0  0  0  0  0  0
   -0.5649   -6.4794    0.7167 H   0  0  0  0  0  0  0  0  0  0  0  0
    0.2548   -9.6690    2.5628 H   0  0  0  0  0  0  0  0  0  0  0  0
    1.4329   -9.0030    3.6587 H   0  0  0  0  0  0  0  0  0  0  0  0
    1.7893   -9.1359    1.9264 H   0  0  0  0  0  0  0  0  0  0  0  0
   -1.1013   -6.2496    3.1193 H   0  0  0  0  0  0  0  0  0  0  0  0
   -1.7858   -9.1289    3.5177 H   0  0  0  0  0  0  0  0  0  0  0  0
   -2.4200   -8.0756    2.2458 H   0  0  0  0  0  0  0  0  0  0  0  0
   -2.7524   -7.7134    3.9046 H   0  0  0  0  0  0  0  0  0  0  0  0
   -0.1281   -8.0793    5.3449 H   0  0  0  0  0  0  0  0  0  0  0  0
    0.7768   -5.9949    6.5076 H   0  0  0  0  0  0  0  0  0  0  0  0
    1.9187   -4.0172    3.6814 H   0  0  0  0  0  0  0  0  0  0  0  0
    2.9167   -5.5928    5.8895 H   0  0  0  0  0  0  0  0  0  0  0  0
    3.7091   -3.3235    3.6093 H   0  0  0  0  0  0  0  0  0  0  0  0
    1.9153   -3.8301    1.8033 H   0  0  0  0  0  0  0  0  0  0  0  0
    2.7310   -2.3723    1.0793 H   0  0  0  0  0  0  0  0  0  0  0  0
    2.9616   -5.2233    0.3861 H   0  0  0  0  0  0  0  0  0  0  0  0
    6.0155   -5.3124   -0.4520 H   0  0  0  0  0  0  0  0  0  0  0  0
    5.7134   -4.6468   -2.0517 H   0  0  0  0  0  0  0  0  0  0  0  0
    4.6230   -5.8339   -1.3592 H   0  0  0  0  0  0  0  0  0  0  0  0
  1  2  1  0
  1 36  1  0
  1 37  1  0
  1 38  1  0
  2  3  1  0
  3 34  1  0
  3  4  1  0
  3 39  1  6
  4  5  1  0
  5  9  1  0
  5  6  1  0
  5 40  1  1
  6  7  1  0
  7  8  2  0
  9  7  1  6
  9 34  1  0
  9 10  1  0
 10 11  2  0
 10 12  1  0
 12 31  1  0
 12 13  2  0
 13 14  1  0
 15 13  1  6
 14 41  1  0
 14 42  1  0
 14 43  1  0
 15 33  1  0
 15 16  1  0
 15 31  1  0
 16 17  1  0
 16 18  1  0
 16 44  1  1
 17 45  1  0
 17 46  1  0
 17 47  1  0
 18 29  1  0
 18 19  1  0
 18 48  1  1
 19 20  1  0
 20 21  1  0
 20 22  1  0
 20 23  1  0
 21 49  1  0
 21 50  1  0
 21 51  1  0
 22 52  1  0
 22 53  1  0
 22 54  1  0
 23 24  1  0
 23 25  1  0
 23 55  1  6
 24 56  1  0
 24 57  1  0
 24 58  1  0
 25 27  1  0
 25 26  1  0
 25 59  1  1
 26 27  1  0
 27 28  1  0
 27 60  1  1
 28 29  1  0
 29 30  1  0
 29 61  1  6
 30 62  1  0
 31 32  1  0
 31 63  1  1
 32 33  1  0
 32 64  1  0
 32 65  1  0
 33 34  1  0
 33 66  1  6
 34 35  1  6
 35 67  1  0
 35 68  1  0
 35 69  1  0
M  END
>  <i_m_ct_stereo_status>  (178) 
1

>  <s_m_source_file>  (178) 
/var/tmp/pbs.5076255.sched01/tmppnbbzaq8/41bb87crku.sdf

>  <i_m_source_file_index>  (178) 
29

>  <i_lp_mmshare_version>  (178) 
48012

>  <i_f3d_flags>  (178) 
0

>  <s_epik_input>  (178) 
Tz1DMU9bQ0BIXShbQ0BAXTEyMylPW0NAQEhdKE9bQ0gzXSlbQ0BdMyhbQ0gzXSlbQ0BIXTRbQ0BAXTUoW0NASF0oW0NIMl00KUMoQzI9Tyk9QzVbQ0gzXSlbQ0BIXShbQ0gzXSlbQ0BIXShPQyhbQ0gzXSkoW0NIM10pW0NASF02W0NIM10pW0NASF0oW09IXSlPW0NAQEhdKE83KVtDQEhdNjc=

>  <s_epik_cmdline>  (178) 
J2VwaWtfcHl0aG9uJywgJy1waHQnLCAnMi4wJywgJy1waCcsICc3LjAnLCAnLXRuJywgJzgnLCAnLW1hJywgJzIwMCcsICctaW1hZScsICc8aW5maWxlLm1hZT4nLCAnLW9tYWUnLCAnPG91dGZpbGUubWFlPic=

>  <r_lp_tautomer_probability>  (178) 
1

>  <r_epik_Ionization_Penalty>  (178) 
1.23477e-06

>  <r_epik_Ionization_Penalty_Charging>  (178) 
0

>  <r_epik_Ionization_Penalty_Neutral>  (178) 
1.23477e-06

>  <r_epik_State_Penalty>  (178) 
-0

>  <r_epik_Charging_Adjusted_Penalty>  (178) 
0

>  <i_epik_Tot_Q>  (178) 
0

>  <i_epik_Tot_abs_Q>  (178) 
0

>  <s_epik_Chemistry_Notes>  (178) 
This compound has an ester and may undergo hydrolysis at high or low pH. This compound contains an acetal/aminal-like group ( X-CH(R)-Y where X, Y are N, S, or O) that may be acid/base labile, releasing an aldehyde.

>  <s_lp_Force_Field>  (178) 
OPLS3e

>  <r_lp_Energy>  (178) 
86.8663

>  <b_lp_Chiralities_Consistent>  (178) 
1

>  <s_lp_Variant>  (178) 
53:0-1

>  <s_i_glide_gridfile>  (178) 
pfpi4k_grid

>  <i_i_glide_lignum>  (178) 
29

>  <i_i_glide_rotatable_bonds>  (178) 
4

>  <r_i_docking_score>  (178) 
-2.24471

>  <r_i_glide_ligand_efficiency>  (178) 
-0.0641346

>  <r_i_glide_ligand_efficiency_sa>  (178) 
-0.209788

>  <r_i_glide_ligand_efficiency_ln>  (178) 
-0.492764

>  <r_i_glide_gscore>  (178) 
-2.24471

>  <r_i_glide_lipo>  (178) 
-0.322145

>  <r_i_glide_hbond>  (178) 
-0.16

>  <r_i_glide_metal>  (178) 
-0

>  <r_i_glide_rewards>  (178) 
-0.300666

>  <r_i_glide_evdw>  (178) 
-25.1497

>  <r_i_glide_ecoul>  (178) 
-1.77513

>  <r_i_glide_erotb>  (178) 
0.169148

>  <r_i_glide_esite>  (178) 
-0.10729

>  <r_i_glide_emodel>  (178) 
-28.8822

>  <r_i_glide_energy>  (178) 
-26.9249

>  <r_i_glide_einternal>  (178) 
1.78882

>  <r_i_glide_intrahb_reward>  (178) 
-0

>  <i_i_glide_confnum>  (178) 
2

>  <i_i_glide_posenum>  (178) 
1

>  <r_i_glide_eff_state_penalty>  (178) 
0

>  <ligand_id>  (178) 
53

>  <original_smiles>  (178) 
COC1OC2OC(=O)C23C(=O)C2=C(C)C4(C(C)C5OC(C)(C)C(C)C6OC6OC5O)C2CC4C13C

>  <smiles>  (178) 
[H]OC1([H])OC2([H])OC2([H])C([H])(C([H])([H])[H])C(C([H])([H])[H])(C([H])([H])[H])OC1([H])C([H])(C([H])([H])[H])C12C(C([H])([H])[H])=C3C(=O)C45C(=O)OC4([H])OC([H])(OC([H])([H])[H])C5(C([H])([H])[H])C1([H])C([H])([H])C32[H]

$$$$
53:0:2
     RDKit          3D

 69 75  0  0  1  0  0  0  0  0999 V2000
    3.6159   -2.4021   -3.2293 C   0  0  0  0  0  0  0  0  0  0  0  0
    4.3276   -3.0404   -2.1827 O   0  0  0  0  0  0  0  0  0  0  0  0
    3.5018   -3.3929   -1.1043 C   0  0  2  0  0  0  0  0  0  0  0  0
    3.0236   -2.2552   -0.4635 O   0  0  0  0  0  0  0  0  0  0  0  0
    3.9269   -1.7824    0.5130 C   0  0  2  0  0  0  0  0  0  0  0  0
    5.0738   -1.0939   -0.0285 O   0  0  0  0  0  0  0  0  0  0  0  0
    5.8990   -2.1111    0.3402 C   0  0  0  0  0  0  0  0  0  0  0  0
    7.1220   -2.1979    0.2397 O   0  0  0  0  0  0  0  0  0  0  0  0
    4.7687   -2.9983    0.9005 C   0  0  1  0  0  0  0  0  0  0  0  0
    4.9342   -3.2023    2.4079 C   0  0  0  0  0  0  0  0  0  0  0  0
    5.3997   -2.3229    3.1354 O   0  0  0  0  0  0  0  0  0  0  0  0
    4.3847   -4.4134    3.0163 C   0  0  0  0  0  0  0  0  0  0  0  0
    4.9448   -5.6183    2.7963 C   0  0  0  0  0  0  0  0  0  0  0  0
    6.4119   -5.9874    2.5560 C   0  0  0  0  0  0  0  0  0  0  0  0
    3.7008   -6.0911    1.9760 C   0  0  1  0  0  0  0  0  0  0  0  0
    3.1624   -7.5974    2.0721 C   0  0  2  0  0  0  0  0  0  0  0  0
    1.6785   -7.7526    1.6695 C   0  0  0  0  0  0  0  0  0  0  0  0
    3.3600   -8.4187    3.3883 C   0  0  2  0  0  0  0  0  0  0  0  0
    2.8684   -7.6325    4.4766 O   0  0  0  0  0  0  0  0  0  0  0  0
    2.0195   -8.1872    5.4886 C   0  0  0  0  0  0  0  0  0  0  0  0
    1.6067   -6.9100    6.2432 C   0  0  0  0  0  0  0  0  0  0  0  0
    0.7623   -8.8130    4.8473 C   0  0  0  0  0  0  0  0  0  0  0  0
    2.7699   -9.1719    6.4502 C   0  0  1  0  0  0  0  0  0  0  0  0
    1.9414   -9.5695    7.6933 C   0  0  0  0  0  0  0  0  0  0  0  0
    3.2909  -10.4433    5.7900 C   0  0  2  0  0  0  0  0  0  0  0  0
    4.4432  -10.9919    6.4351 O   0  0  0  0  0  0  0  0  0  0  0  0
    4.5811  -10.6073    5.0538 C   0  0  2  0  0  0  0  0  0  0  0  0
    5.1024   -9.3305    4.8292 O   0  0  0  0  0  0  0  0  0  0  0  0
    4.8789   -8.7357    3.6076 C   0  0  1  0  0  0  0  0  0  0  0  0
    5.4305   -9.5328    2.5533 O   0  0  0  0  0  0  0  0  0  0  0  0
    2.9897   -4.9804    2.7731 C   0  0  2  0  0  0  0  0  0  0  0  0
    2.2248   -4.5539    1.5228 C   0  0  0  0  0  0  0  0  0  0  0  0
    3.3402   -5.1884    0.7011 C   0  0  1  0  0  0  0  0  0  0  0  0
    4.2983   -4.1750   -0.0047 C   0  0  1  0  0  0  0  0  0  0  0  0
    5.4356   -4.9501   -0.6789 C   0  0  0  0  0  0  0  0  0  0  0  0
    4.3035   -2.1650   -4.0389 H   0  0  0  0  0  0  0  0  0  0  0  0
    3.1576   -1.4650   -2.9020 H   0  0  0  0  0  0  0  0  0  0  0  0
    2.8350   -3.0444   -3.6205 H   0  0  0  0  0  0  0  0  0  0  0  0
    2.6608   -3.9779   -1.4935 H   0  0  0  0  0  0  0  0  0  0  0  0
    3.5112   -1.2305    1.3596 H   0  0  0  0  0  0  0  0  0  0  0  0
    6.5437   -6.6928    1.7329 H   0  0  0  0  0  0  0  0  0  0  0  0
    6.7787   -6.4978    3.4263 H   0  0  0  0  0  0  0  0  0  0  0  0
    7.0440   -5.0877    2.4071 H   0  0  0  0  0  0  0  0  0  0  0  0
    3.6903   -8.1456    1.2939 H   0  0  0  0  0  0  0  0  0  0  0  0
    1.0268   -7.1987    2.3487 H   0  0  0  0  0  0  0  0  0  0  0  0
    1.3552   -8.7943    1.7141 H   0  0  0  0  0  0  0  0  0  0  0  0
    1.4555   -7.4070    0.6586 H   0  0  0  0  0  0  0  0  0  0  0  0
    2.8194   -9.3750    3.3178 H   0  0  0  0  0  0  0  0  0  0  0  0
    0.8296   -7.1077    6.9839 H   0  0  0  0  0  0  0  0  0  0  0  0
    1.2067   -6.1702    5.5473 H   0  0  0  0  0  0  0  0  0  0  0  0
    2.4591   -6.4534    6.7511 H   0  0  0  0  0  0  0  0  0  0  0  0
    0.0460   -9.1179    5.6058 H   0  0  0  0  0  0  0  0  0  0  0  0
    0.9783   -9.6983    4.2572 H   0  0  0  0  0  0  0  0  0  0  0  0
    0.2629   -8.0892    4.2054 H   0  0  0  0  0  0  0  0  0  0  0  0
    3.6389   -8.6387    6.8383 H   0  0  0  0  0  0  0  0  0  0  0  0
    1.0444  -10.1160    7.4152 H   0  0  0  0  0  0  0  0  0  0  0  0
    1.6331   -8.7235    8.3112 H   0  0  0  0  0  0  0  0  0  0  0  0
    2.5168  -10.2374    8.3362 H   0  0  0  0  0  0  0  0  0  0  0  0
    2.5261  -11.1689    5.5061 H   0  0  0  0  0  0  0  0  0  0  0  0
    4.7871  -11.4219    4.3555 H   0  0  0  0  0  0  0  0  0  0  0  0
    5.4709   -7.8619    3.7808 H   0  0  0  0  0  0  0  0  0  0  0  0
    4.9004  -10.3093    2.3465 H   0  0  0  0  0  0  0  0  0  0  0  0
    2.3354   -5.3172    3.5763 H   0  0  0  0  0  0  0  0  0  0  0  0
    1.3070   -5.1330    1.4456 H   0  0  0  0  0  0  0  0  0  0  0  0
    2.0087   -3.4796    1.4012 H   0  0  0  0  0  0  0  0  0  0  0  0
    2.9109   -5.8283   -0.0493 H   0  0  0  0  0  0  0  0  0  0  0  0
    6.0480   -5.4936    0.0239 H   0  0  0  0  0  0  0  0  0  0  0  0
    6.1066   -4.2893   -1.2291 H   0  0  0  0  0  0  0  0  0  0  0  0
    5.0076   -5.6749   -1.3715 H   0  0  0  0  0  0  0  0  0  0  0  0
  1  2  1  0
  1 36  1  0
  1 37  1  0
  1 38  1  0
  2  3  1  0
  3 34  1  0
  3  4  1  0
  3 39  1  6
  4  5  1  0
  5  9  1  0
  5  6  1  0
  5 40  1  1
  6  7  1  0
  7  8  2  0
  9  7  1  6
  9 34  1  0
  9 10  1  0
 10 11  2  0
 10 12  1  0
 12 31  1  0
 12 13  2  0
 13 14  1  0
 15 13  1  1
 14 41  1  0
 14 42  1  0
 14 43  1  0
 15 33  1  0
 15 16  1  0
 15 31  1  0
 16 17  1  0
 16 18  1  0
 16 44  1  6
 17 45  1  0
 17 46  1  0
 17 47  1  0
 18 29  1  0
 18 19  1  0
 18 48  1  6
 19 20  1  0
 20 21  1  0
 20 22  1  0
 20 23  1  0
 21 49  1  0
 21 50  1  0
 21 51  1  0
 22 52  1  0
 22 53  1  0
 22 54  1  0
 23 24  1  0
 23 25  1  0
 23 55  1  1
 24 56  1  0
 24 57  1  0
 24 58  1  0
 25 27  1  0
 25 26  1  0
 25 59  1  6
 26 27  1  0
 27 28  1  0
 27 60  1  6
 28 29  1  0
 29 30  1  0
 29 61  1  1
 30 62  1  0
 31 32  1  0
 31 63  1  1
 32 33  1  0
 32 64  1  0
 32 65  1  0
 33 34  1  0
 33 66  1  6
 34 35  1  6
 35 67  1  0
 35 68  1  0
 35 69  1  0
M  END
>  <i_m_ct_stereo_status>  (179) 
1

>  <s_m_source_file>  (179) 
/var/tmp/pbs.5076255.sched01/tmppnbbzaq8/41bb87crku.sdf

>  <i_m_source_file_index>  (179) 
29

>  <i_lp_mmshare_version>  (179) 
48012

>  <i_f3d_flags>  (179) 
0

>  <s_epik_input>  (179) 
Tz1DMU9bQ0BIXShbQ0BAXTEyMylPW0NAQEhdKE9bQ0gzXSlbQ0BdMyhbQ0gzXSlbQ0BIXTRbQ0BAXTUoW0NASF0oW0NIMl00KUMoQzI9Tyk9QzVbQ0gzXSlbQ0BIXShbQ0gzXSlbQ0BIXShPQyhbQ0gzXSkoW0NIM10pW0NASF02W0NIM10pW0NASF0oW09IXSlPW0NAQEhdKE83KVtDQEhdNjc=

>  <s_epik_cmdline>  (179) 
J2VwaWtfcHl0aG9uJywgJy1waHQnLCAnMi4wJywgJy1waCcsICc3LjAnLCAnLXRuJywgJzgnLCAnLW1hJywgJzIwMCcsICctaW1hZScsICc8aW5maWxlLm1hZT4nLCAnLW9tYWUnLCAnPG91dGZpbGUubWFlPic=

>  <r_lp_tautomer_probability>  (179) 
1

>  <r_epik_Ionization_Penalty>  (179) 
1.23477e-06

>  <r_epik_Ionization_Penalty_Charging>  (179) 
0

>  <r_epik_Ionization_Penalty_Neutral>  (179) 
1.23477e-06

>  <r_epik_State_Penalty>  (179) 
-0

>  <r_epik_Charging_Adjusted_Penalty>  (179) 
0

>  <i_epik_Tot_Q>  (179) 
0

>  <i_epik_Tot_abs_Q>  (179) 
0

>  <s_epik_Chemistry_Notes>  (179) 
This compound has an ester and may undergo hydrolysis at high or low pH. This compound contains an acetal/aminal-like group ( X-CH(R)-Y where X, Y are N, S, or O) that may be acid/base labile, releasing an aldehyde.

>  <s_lp_Force_Field>  (179) 
OPLS3e

>  <r_lp_Energy>  (179) 
86.8663

>  <b_lp_Chiralities_Consistent>  (179) 
1

>  <s_lp_Variant>  (179) 
53:0-1

>  <s_i_glide_gridfile>  (179) 
pfpi4k_grid

>  <i_i_glide_lignum>  (179) 
29

>  <i_i_glide_rotatable_bonds>  (179) 
4

>  <r_i_docking_score>  (179) 
-1.95815

>  <r_i_glide_ligand_efficiency>  (179) 
-0.0559471

>  <r_i_glide_ligand_efficiency_sa>  (179) 
-0.183007

>  <r_i_glide_ligand_efficiency_ln>  (179) 
-0.429857

>  <r_i_glide_gscore>  (179) 
-1.95815

>  <r_i_glide_lipo>  (179) 
-0.212603

>  <r_i_glide_hbond>  (179) 
0

>  <r_i_glide_metal>  (179) 
-0

>  <r_i_glide_rewards>  (179) 
-0.273171

>  <r_i_glide_evdw>  (179) 
-24.1903

>  <r_i_glide_ecoul>  (179) 
-2.63207

>  <r_i_glide_erotb>  (179) 
0.169148

>  <r_i_glide_esite>  (179) 
-0.0371991

>  <r_i_glide_emodel>  (179) 
-27.8283

>  <r_i_glide_energy>  (179) 
-26.8224

>  <r_i_glide_einternal>  (179) 
2.87633

>  <r_i_glide_intrahb_reward>  (179) 
-0

>  <i_i_glide_confnum>  (179) 
2

>  <i_i_glide_posenum>  (179) 
12

>  <r_i_glide_eff_state_penalty>  (179) 
0

>  <ligand_id>  (179) 
53

>  <original_smiles>  (179) 
COC1OC2OC(=O)C23C(=O)C2=C(C)C4(C(C)C5OC(C)(C)C(C)C6OC6OC5O)C2CC4C13C

>  <smiles>  (179) 
[H]OC1([H])OC2([H])OC2([H])C([H])(C([H])([H])[H])C(C([H])([H])[H])(C([H])([H])[H])OC1([H])C([H])(C([H])([H])[H])C12C(C([H])([H])[H])=C3C(=O)C45C(=O)OC4([H])OC([H])(OC([H])([H])[H])C5(C([H])([H])[H])C1([H])C([H])([H])C32[H]

$$$$
54:0:0
     RDKit          3D

 32 37  0  0  1  0  0  0  0  0999 V2000
   -5.0010   -5.3322   -5.0899 O   0  0  0  0  0  0  0  0  0  0  0  0
   -6.0311   -5.8932   -4.7117 C   0  0  0  0  0  0  0  0  0  0  0  0
   -6.4173   -7.1183   -5.0598 O   0  0  0  0  0  0  0  0  0  0  0  0
   -5.6430   -7.8672   -5.9764 C   0  0  0  0  0  0  0  0  0  0  0  0
   -6.5234   -8.9705   -6.5735 C   0  0  2  0  0  0  0  0  0  0  0  0
   -5.9193   -9.6701   -7.7966 C   0  0  0  0  0  0  0  0  0  0  0  0
   -7.0905   -9.6898   -8.7963 C   0  0  1  0  0  0  0  0  0  0  0  0
   -8.3866   -9.7105   -7.9836 C   0  0  1  0  0  0  0  0  0  0  0  0
   -7.8658   -8.5125   -7.1296 C   0  0  2  0  0  0  0  0  0  0  0  0
   -7.7240   -7.4106   -8.2040 C   0  0  1  0  0  0  0  0  0  0  0  0
   -7.3797   -8.3241   -9.4490 C   0  0  2  0  0  0  0  0  0  0  0  0
   -8.7345   -8.5651  -10.1141 C   0  0  1  0  0  0  0  0  0  0  0  0
   -9.4866   -9.3013   -8.9971 C   0  0  2  0  0  0  0  0  0  0  0  0
  -10.1134   -7.9802   -8.6449 C   0  0  2  0  0  0  0  0  0  0  0  0
   -9.1116   -6.8652   -8.4741 C   0  0  2  0  0  0  0  0  0  0  0  0
   -9.4775   -7.3246   -9.8229 C   0  0  1  0  0  0  0  0  0  0  0  0
   -6.7515   -5.4598   -4.0199 H   0  0  0  0  0  0  0  0  0  0  0  0
   -5.2491   -7.2259   -6.7676 H   0  0  0  0  0  0  0  0  0  0  0  0
   -4.7827   -8.3022   -5.4629 H   0  0  0  0  0  0  0  0  0  0  0  0
   -6.7243   -9.7140   -5.8078 H   0  0  0  0  0  0  0  0  0  0  0  0
   -5.0568   -9.1331   -8.2228 H   0  0  0  0  0  0  0  0  0  0  0  0
   -5.5989  -10.6914   -7.5356 H   0  0  0  0  0  0  0  0  0  0  0  0
   -7.0260  -10.4835   -9.5350 H   0  0  0  0  0  0  0  0  0  0  0  0
   -8.5684  -10.6223   -7.4076 H   0  0  0  0  0  0  0  0  0  0  0  0
   -8.5165   -8.2124   -6.3245 H   0  0  0  0  0  0  0  0  0  0  0  0
   -7.0177   -6.6131   -7.9621 H   0  0  0  0  0  0  0  0  0  0  0  0
   -6.6183   -7.9095  -10.1139 H   0  0  0  0  0  0  0  0  0  0  0  0
   -8.8207   -9.0005  -11.1096 H   0  0  0  0  0  0  0  0  0  0  0  0
  -10.1660  -10.0672   -9.3858 H   0  0  0  0  0  0  0  0  0  0  0  0
  -11.1933   -7.8908   -8.5773 H   0  0  0  0  0  0  0  0  0  0  0  0
   -9.4305   -5.9012   -8.1103 H   0  0  0  0  0  0  0  0  0  0  0  0
  -10.1539   -6.8652  -10.5417 H   0  0  0  0  0  0  0  0  0  0  0  0
  1  2  2  0
  2  3  1  0
  2 17  1  0
  3  4  1  0
  4  5  1  0
  4 18  1  0
  4 19  1  0
  5  9  1  0
  5  6  1  0
  5 20  1  1
  6  7  1  0
  6 21  1  0
  6 22  1  0
  7 11  1  0
  7  8  1  0
  7 23  1  6
  8 13  1  0
  8  9  1  0
  8 24  1  1
  9 10  1  0
  9 25  1  1
 10 15  1  0
 10 11  1  0
 10 26  1  1
 11 12  1  0
 11 27  1  6
 12 16  1  0
 12 13  1  0
 12 28  1  6
 13 14  1  0
 13 29  1  6
 14 16  1  0
 14 15  1  0
 14 30  1  6
 15 16  1  0
 15 31  1  6
 16 32  1  6
M  END
>  <i_m_ct_stereo_status>  (180) 
1

>  <s_m_source_file>  (180) 
/var/tmp/pbs.5076255.sched01/tmppnbbzaq8/41bb87crku.sdf

>  <i_m_source_file_index>  (180) 
30

>  <i_lp_mmshare_version>  (180) 
48012

>  <i_f3d_flags>  (180) 
2

>  <s_epik_input>  (180) 
Tz1bQ0hdT1tDSDJdW0NASF0oW0NIMl0xKVtDQEhdKFtDQEBIXTJbQ0BIXTEzKVtDQEhdNFtDQEBIXTNbQ0BASF01W0NIXTJbQ0BIXTZbQ0hdNFtDQEBIXTU2

>  <s_epik_cmdline>  (180) 
J2VwaWtfcHl0aG9uJywgJy1waHQnLCAnMi4wJywgJy1waCcsICc3LjAnLCAnLXRuJywgJzgnLCAnLW1hJywgJzIwMCcsICctaW1hZScsICc8aW5maWxlLm1hZT4nLCAnLW9tYWUnLCAnPG91dGZpbGUubWFlPic=

>  <r_lp_tautomer_probability>  (180) 
1

>  <r_epik_Ionization_Penalty>  (180) 
0

>  <r_epik_Ionization_Penalty_Charging>  (180) 
0

>  <r_epik_Ionization_Penalty_Neutral>  (180) 
0

>  <r_epik_State_Penalty>  (180) 
-0

>  <r_epik_Charging_Adjusted_Penalty>  (180) 
0

>  <i_epik_Tot_Q>  (180) 
0

>  <i_epik_Tot_abs_Q>  (180) 
0

>  <s_epik_Chemistry_Notes>  (180) 
This compound has an ester and may undergo hydrolysis at high or low pH.

>  <s_lp_Force_Field>  (180) 
OPLS3e

>  <r_lp_Energy>  (180) 
66.4782

>  <b_lp_Chiralities_Consistent>  (180) 
0

>  <s_lp_Variant>  (180) 
54:0-1

>  <s_i_glide_gridfile>  (180) 
pfpi4k_grid

>  <i_i_glide_lignum>  (180) 
30

>  <i_i_glide_rotatable_bonds>  (180) 
3

>  <r_i_docking_score>  (180) 
-5.87063

>  <r_i_glide_ligand_efficiency>  (180) 
-0.366914

>  <r_i_glide_ligand_efficiency_sa>  (180) 
-0.924566

>  <r_i_glide_ligand_efficiency_ln>  (180) 
-1.55613

>  <r_i_glide_gscore>  (180) 
-5.87063

>  <r_i_glide_lipo>  (180) 
-1.50603

>  <r_i_glide_hbond>  (180) 
-0.294354

>  <r_i_glide_metal>  (180) 
-0

>  <r_i_glide_rewards>  (180) 
-3.16437

>  <r_i_glide_evdw>  (180) 
-21.2068

>  <r_i_glide_ecoul>  (180) 
-1.35806

>  <r_i_glide_erotb>  (180) 
0.358173

>  <r_i_glide_esite>  (180) 
0

>  <r_i_glide_emodel>  (180) 
-30.4431

>  <r_i_glide_energy>  (180) 
-22.5649

>  <r_i_glide_einternal>  (180) 
1.25682

>  <r_i_glide_intrahb_reward>  (180) 
-0

>  <i_i_glide_confnum>  (180) 
1

>  <i_i_glide_posenum>  (180) 
30

>  <r_i_glide_eff_state_penalty>  (180) 
0

>  <ligand_id>  (180) 
54

>  <original_smiles>  (180) 
O=COCC1CC2C3C1C1C2C2C3C3C1C23

>  <smiles>  (180) 
[H]C(=O)OC([H])([H])C1([H])C([H])([H])C2([H])C3([H])C1([H])C1([H])C2([H])C2([H])C3([H])C3([H])C1([H])C23[H]

$$$$
54:0:1
     RDKit          3D

 32 37  0  0  1  0  0  0  0  0999 V2000
   -4.9849   -5.9232   -5.0753 O   0  0  0  0  0  0  0  0  0  0  0  0
   -6.0671   -6.4964   -4.9949 C   0  0  0  0  0  0  0  0  0  0  0  0
   -6.3635   -7.6957   -5.5162 O   0  0  0  0  0  0  0  0  0  0  0  0
   -5.4034   -8.4038   -6.2861 C   0  0  0  0  0  0  0  0  0  0  0  0
   -5.6000   -9.9093   -6.0709 C   0  0  2  0  0  0  0  0  0  0  0  0
   -4.7161  -10.7953   -6.9464 C   0  0  0  0  0  0  0  0  0  0  0  0
   -5.7005  -11.8587   -7.4712 C   0  0  1  0  0  0  0  0  0  0  0  0
   -6.7977  -12.0192   -6.4236 C   0  0  1  0  0  0  0  0  0  0  0  0
   -7.0018  -10.4720   -6.3606 C   0  0  2  0  0  0  0  0  0  0  0  0
   -7.4404  -10.1702   -7.8156 C   0  0  1  0  0  0  0  0  0  0  0  0
   -6.6666  -11.3403   -8.5642 C   0  0  2  0  0  0  0  0  0  0  0  0
   -7.6956  -12.4697   -8.6547 C   0  0  1  0  0  0  0  0  0  0  0  0
   -7.9370  -12.7523   -7.1702 C   0  0  2  0  0  0  0  0  0  0  0  0
   -9.1593  -11.8807   -7.2861 C   0  0  1  0  0  0  0  0  0  0  0  0
   -8.8970  -10.5340   -7.9144 C   0  0  2  0  0  0  0  0  0  0  0  0
   -8.9662  -11.7314   -8.7591 C   0  0  1  0  0  0  0  0  0  0  0  0
   -6.9365   -6.1108   -4.4516 H   0  0  0  0  0  0  0  0  0  0  0  0
   -5.5132   -8.1223   -7.3321 H   0  0  0  0  0  0  0  0  0  0  0  0
   -4.3807   -8.1530   -5.9946 H   0  0  0  0  0  0  0  0  0  0  0  0
   -5.3511  -10.1290   -5.0361 H   0  0  0  0  0  0  0  0  0  0  0  0
   -4.2718  -10.2751   -7.7916 H   0  0  0  0  0  0  0  0  0  0  0  0
   -3.9213  -11.2593   -6.3569 H   0  0  0  0  0  0  0  0  0  0  0  0
   -5.2306  -12.7958   -7.7748 H   0  0  0  0  0  0  0  0  0  0  0  0
   -6.4559  -12.4822   -5.5065 H   0  0  0  0  0  0  0  0  0  0  0  0
   -7.7311  -10.1536   -5.6163 H   0  0  0  0  0  0  0  0  0  0  0  0
   -7.2614   -9.1628   -8.1853 H   0  0  0  0  0  0  0  0  0  0  0  0
   -6.2196  -11.0582   -9.5185 H   0  0  0  0  0  0  0  0  0  0  0  0
   -7.5246  -13.3440   -9.2811 H   0  0  0  0  0  0  0  0  0  0  0  0
   -8.1199  -13.8034   -6.9593 H   0  0  0  0  0  0  0  0  0  0  0  0
  -10.1276  -12.2288   -6.9308 H   0  0  0  0  0  0  0  0  0  0  0  0
   -9.6849   -9.8017   -7.9590 H   0  0  0  0  0  0  0  0  0  0  0  0
   -9.7744  -12.0622   -9.4091 H   0  0  0  0  0  0  0  0  0  0  0  0
  1  2  2  0
  2  3  1  0
  2 17  1  0
  3  4  1  0
  4  5  1  0
  4 18  1  0
  4 19  1  0
  5  9  1  0
  5  6  1  0
  5 20  1  1
  6  7  1  0
  6 21  1  0
  6 22  1  0
  7 11  1  0
  7  8  1  0
  7 23  1  6
  8 13  1  0
  8  9  1  0
  8 24  1  1
  9 10  1  0
  9 25  1  1
 10 15  1  0
 10 11  1  0
 10 26  1  6
 11 12  1  0
 11 27  1  6
 12 16  1  0
 12 13  1  0
 12 28  1  6
 13 14  1  0
 13 29  1  6
 14 16  1  0
 14 15  1  0
 14 30  1  6
 15 16  1  0
 15 31  1  6
 16 32  1  6
M  END
>  <i_m_ct_stereo_status>  (181) 
1

>  <s_m_source_file>  (181) 
/var/tmp/pbs.5076255.sched01/tmppnbbzaq8/41bb87crku.sdf

>  <i_m_source_file_index>  (181) 
30

>  <i_lp_mmshare_version>  (181) 
48012

>  <i_f3d_flags>  (181) 
2

>  <s_epik_input>  (181) 
Tz1bQ0hdT1tDSDJdW0NASF0oW0NIMl0xKVtDQEhdKFtDQEBIXTJbQ0BIXTEzKVtDQEhdNFtDQEBIXTNbQ0BASF01W0NIXTJbQ0BIXTZbQ0hdNFtDQEBIXTU2

>  <s_epik_cmdline>  (181) 
J2VwaWtfcHl0aG9uJywgJy1waHQnLCAnMi4wJywgJy1waCcsICc3LjAnLCAnLXRuJywgJzgnLCAnLW1hJywgJzIwMCcsICctaW1hZScsICc8aW5maWxlLm1hZT4nLCAnLW9tYWUnLCAnPG91dGZpbGUubWFlPic=

>  <r_lp_tautomer_probability>  (181) 
1

>  <r_epik_Ionization_Penalty>  (181) 
0

>  <r_epik_Ionization_Penalty_Charging>  (181) 
0

>  <r_epik_Ionization_Penalty_Neutral>  (181) 
0

>  <r_epik_State_Penalty>  (181) 
-0

>  <r_epik_Charging_Adjusted_Penalty>  (181) 
0

>  <i_epik_Tot_Q>  (181) 
0

>  <i_epik_Tot_abs_Q>  (181) 
0

>  <s_epik_Chemistry_Notes>  (181) 
This compound has an ester and may undergo hydrolysis at high or low pH.

>  <s_lp_Force_Field>  (181) 
OPLS3e

>  <r_lp_Energy>  (181) 
66.4782

>  <b_lp_Chiralities_Consistent>  (181) 
0

>  <s_lp_Variant>  (181) 
54:0-1

>  <s_i_glide_gridfile>  (181) 
pfpi4k_grid

>  <i_i_glide_lignum>  (181) 
30

>  <i_i_glide_rotatable_bonds>  (181) 
3

>  <r_i_docking_score>  (181) 
-5.43098

>  <r_i_glide_ligand_efficiency>  (181) 
-0.339436

>  <r_i_glide_ligand_efficiency_sa>  (181) 
-0.855325

>  <r_i_glide_ligand_efficiency_ln>  (181) 
-1.43959

>  <r_i_glide_gscore>  (181) 
-5.43098

>  <r_i_glide_lipo>  (181) 
-1.10903

>  <r_i_glide_hbond>  (181) 
-0.32

>  <r_i_glide_metal>  (181) 
-0

>  <r_i_glide_rewards>  (181) 
-2.94282

>  <r_i_glide_evdw>  (181) 
-22.8228

>  <r_i_glide_ecoul>  (181) 
-1.8411

>  <r_i_glide_erotb>  (181) 
0.358173

>  <r_i_glide_esite>  (181) 
0

>  <r_i_glide_emodel>  (181) 
-32.1096

>  <r_i_glide_energy>  (181) 
-24.6639

>  <r_i_glide_einternal>  (181) 
0.894401

>  <r_i_glide_intrahb_reward>  (181) 
-0

>  <i_i_glide_confnum>  (181) 
5

>  <i_i_glide_posenum>  (181) 
9

>  <r_i_glide_eff_state_penalty>  (181) 
0

>  <ligand_id>  (181) 
54

>  <original_smiles>  (181) 
O=COCC1CC2C3C1C1C2C2C3C3C1C23

>  <smiles>  (181) 
[H]C(=O)OC([H])([H])C1([H])C([H])([H])C2([H])C3([H])C1([H])C1([H])C2([H])C2([H])C3([H])C3([H])C1([H])C23[H]

$$$$
54:0:2
     RDKit          3D

 32 37  0  0  1  0  0  0  0  0999 V2000
   -4.9865   -6.3006   -4.7595 O   0  0  0  0  0  0  0  0  0  0  0  0
   -4.9883   -7.4745   -5.1316 C   0  0  0  0  0  0  0  0  0  0  0  0
   -5.2995   -7.8486   -6.3772 O   0  0  0  0  0  0  0  0  0  0  0  0
   -5.2207   -9.2240   -6.7145 C   0  0  0  0  0  0  0  0  0  0  0  0
   -6.5265   -9.9725   -6.3894 C   0  0  2  0  0  0  0  0  0  0  0  0
   -6.4800  -11.4693   -6.7232 C   0  0  0  0  0  0  0  0  0  0  0  0
   -7.8267  -11.7002   -7.4303 C   0  0  1  0  0  0  0  0  0  0  0  0
   -8.8096  -10.6542   -6.8969 C   0  0  1  0  0  0  0  0  0  0  0  0
   -7.7791   -9.5111   -7.1481 C   0  0  2  0  0  0  0  0  0  0  0  0
   -7.5956   -9.6137   -8.6854 C   0  0  1  0  0  0  0  0  0  0  0  0
   -7.8666  -11.1649   -8.8790 C   0  0  2  0  0  0  0  0  0  0  0  0
   -9.3614  -11.2353   -9.2103 C   0  0  1  0  0  0  0  0  0  0  0  0
   -9.9700  -10.6578   -7.9241 C   0  0  2  0  0  0  0  0  0  0  0  0
  -10.0731   -9.3437   -8.6608 C   0  0  1  0  0  0  0  0  0  0  0  0
   -8.7790   -8.9197   -9.3194 C   0  0  2  0  0  0  0  0  0  0  0  0
   -9.6055   -9.9680   -9.9291 C   0  0  1  0  0  0  0  0  0  0  0  0
   -4.7034   -8.3283   -4.5093 H   0  0  0  0  0  0  0  0  0  0  0  0
   -4.9914   -9.2907   -7.7773 H   0  0  0  0  0  0  0  0  0  0  0  0
   -4.3788   -9.7009   -6.1997 H   0  0  0  0  0  0  0  0  0  0  0  0
   -6.7339   -9.8635   -5.3255 H   0  0  0  0  0  0  0  0  0  0  0  0
   -5.6454  -11.7461   -7.3697 H   0  0  0  0  0  0  0  0  0  0  0  0
   -6.4211  -12.0698   -5.8138 H   0  0  0  0  0  0  0  0  0  0  0  0
   -8.1910  -12.7267   -7.3715 H   0  0  0  0  0  0  0  0  0  0  0  0
   -9.0956  -10.7839   -5.8547 H   0  0  0  0  0  0  0  0  0  0  0  0
   -8.1188   -8.5302   -6.8172 H   0  0  0  0  0  0  0  0  0  0  0  0
   -6.6603   -9.2404   -9.1000 H   0  0  0  0  0  0  0  0  0  0  0  0
   -7.2180  -11.6614   -9.6071 H   0  0  0  0  0  0  0  0  0  0  0  0
   -9.8100  -12.1542   -9.5798 H   0  0  0  0  0  0  0  0  0  0  0  0
  -10.9157  -11.1247   -7.6433 H   0  0  0  0  0  0  0  0  0  0  0  0
  -10.9967   -8.7635   -8.6688 H   0  0  0  0  0  0  0  0  0  0  0  0
   -8.6969   -7.9464   -9.7810 H   0  0  0  0  0  0  0  0  0  0  0  0
  -10.2371   -9.8984  -10.8160 H   0  0  0  0  0  0  0  0  0  0  0  0
  1  2  2  0
  2  3  1  0
  2 17  1  0
  3  4  1  0
  4  5  1  0
  4 18  1  0
  4 19  1  0
  5  9  1  0
  5  6  1  0
  5 20  1  1
  6  7  1  0
  6 21  1  0
  6 22  1  0
  7 11  1  0
  7  8  1  0
  7 23  1  6
  8 13  1  0
  8  9  1  0
  8 24  1  1
  9 10  1  0
  9 25  1  6
 10 15  1  0
 10 11  1  0
 10 26  1  1
 11 12  1  0
 11 27  1  6
 12 16  1  0
 12 13  1  0
 12 28  1  6
 13 14  1  0
 13 29  1  1
 14 16  1  0
 14 15  1  0
 14 30  1  6
 15 16  1  0
 15 31  1  6
 16 32  1  6
M  END
>  <i_m_ct_stereo_status>  (182) 
1

>  <s_m_source_file>  (182) 
/var/tmp/pbs.5076255.sched01/tmppnbbzaq8/41bb87crku.sdf

>  <i_m_source_file_index>  (182) 
30

>  <i_lp_mmshare_version>  (182) 
48012

>  <i_f3d_flags>  (182) 
2

>  <s_epik_input>  (182) 
Tz1bQ0hdT1tDSDJdW0NASF0oW0NIMl0xKVtDQEhdKFtDQEBIXTJbQ0BIXTEzKVtDQEhdNFtDQEBIXTNbQ0BASF01W0NIXTJbQ0BIXTZbQ0hdNFtDQEBIXTU2

>  <s_epik_cmdline>  (182) 
J2VwaWtfcHl0aG9uJywgJy1waHQnLCAnMi4wJywgJy1waCcsICc3LjAnLCAnLXRuJywgJzgnLCAnLW1hJywgJzIwMCcsICctaW1hZScsICc8aW5maWxlLm1hZT4nLCAnLW9tYWUnLCAnPG91dGZpbGUubWFlPic=

>  <r_lp_tautomer_probability>  (182) 
1

>  <r_epik_Ionization_Penalty>  (182) 
0

>  <r_epik_Ionization_Penalty_Charging>  (182) 
0

>  <r_epik_Ionization_Penalty_Neutral>  (182) 
0

>  <r_epik_State_Penalty>  (182) 
-0

>  <r_epik_Charging_Adjusted_Penalty>  (182) 
0

>  <i_epik_Tot_Q>  (182) 
0

>  <i_epik_Tot_abs_Q>  (182) 
0

>  <s_epik_Chemistry_Notes>  (182) 
This compound has an ester and may undergo hydrolysis at high or low pH.

>  <s_lp_Force_Field>  (182) 
OPLS3e

>  <r_lp_Energy>  (182) 
66.4782

>  <b_lp_Chiralities_Consistent>  (182) 
0

>  <s_lp_Variant>  (182) 
54:0-1

>  <s_i_glide_gridfile>  (182) 
pfpi4k_grid

>  <i_i_glide_lignum>  (182) 
30

>  <i_i_glide_rotatable_bonds>  (182) 
3

>  <r_i_docking_score>  (182) 
-5.35515

>  <r_i_glide_ligand_efficiency>  (182) 
-0.334697

>  <r_i_glide_ligand_efficiency_sa>  (182) 
-0.843383

>  <r_i_glide_ligand_efficiency_ln>  (182) 
-1.41949

>  <r_i_glide_gscore>  (182) 
-5.35515

>  <r_i_glide_lipo>  (182) 
-1.03727

>  <r_i_glide_hbond>  (182) 
-0.32

>  <r_i_glide_metal>  (182) 
-0

>  <r_i_glide_rewards>  (182) 
-2.94282

>  <r_i_glide_evdw>  (182) 
-22.3882

>  <r_i_glide_ecoul>  (182) 
-1.95883

>  <r_i_glide_erotb>  (182) 
0.358173

>  <r_i_glide_esite>  (182) 
0

>  <r_i_glide_emodel>  (182) 
-30.8464

>  <r_i_glide_energy>  (182) 
-24.347

>  <r_i_glide_einternal>  (182) 
2.61618

>  <r_i_glide_intrahb_reward>  (182) 
-0

>  <i_i_glide_confnum>  (182) 
5

>  <i_i_glide_posenum>  (182) 
22

>  <r_i_glide_eff_state_penalty>  (182) 
0

>  <ligand_id>  (182) 
54

>  <original_smiles>  (182) 
O=COCC1CC2C3C1C1C2C2C3C3C1C23

>  <smiles>  (182) 
[H]C(=O)OC([H])([H])C1([H])C([H])([H])C2([H])C3([H])C1([H])C1([H])C2([H])C2([H])C3([H])C3([H])C1([H])C23[H]

$$$$
55:0:0
     RDKit          3D

 28 30  0  0  1  0  0  0  0  0999 V2000
    3.7138   -0.4437   -4.0331 C   0  0  0  0  0  0  0  0  0  0  0  0
    4.6156   -1.5199   -3.7760 O   0  0  0  0  0  0  0  0  0  0  0  0
    4.2944   -2.3094   -2.6930 C   0  0  0  0  0  0  0  0  0  0  0  0
    3.0171   -2.7102   -2.4469 C   0  0  0  0  0  0  0  0  0  0  0  0
    2.6235   -3.4955   -1.2603 C   0  0  0  0  0  0  0  0  0  0  0  0
    1.4551   -3.8475   -1.1474 O   0  0  0  0  0  0  0  0  0  0  0  0
    3.7040   -3.8586   -0.3286 C   0  0  0  0  0  0  0  0  0  0  0  0
    3.6437   -4.6737    0.8641 C   0  0  0  0  0  0  0  0  0  0  0  0
    2.4398   -5.3471    1.3757 C   0  0  0  0  0  0  0  0  0  0  0  0
    2.1034   -5.2355    2.7384 C   0  0  0  0  0  0  0  0  0  0  0  0
    0.9611   -5.9037    3.2126 C   0  0  0  0  0  0  0  0  0  0  0  0
    0.1509   -6.6484    2.4261 N   0  0  0  0  0  0  0  0  0  0  0  0
    0.4939   -6.7858    1.1306 C   0  0  0  0  0  0  0  0  0  0  0  0
    1.6109   -6.1499    0.5619 C   0  0  0  0  0  0  0  0  0  0  0  0
    4.8700   -4.7518    1.4845 C   0  0  0  0  0  0  0  0  0  0  0  0
    6.1280   -3.9152    0.6253 S   0  0  0  0  0  0  0  0  0  0  0  0
    4.9798   -3.4215   -0.5897 C   0  0  0  0  0  0  0  0  0  0  0  0
    5.4043   -2.6354   -1.7450 C   0  0  0  0  0  0  0  0  0  0  0  0
    6.5726   -2.2730   -1.8960 O   0  0  0  0  0  0  0  0  0  0  0  0
    4.0825    0.1445   -4.8775 H   0  0  0  0  0  0  0  0  0  0  0  0
    3.6656    0.2115   -3.1575 H   0  0  0  0  0  0  0  0  0  0  0  0
    2.6994   -0.7654   -4.2891 H   0  0  0  0  0  0  0  0  0  0  0  0
    2.2064   -2.4989   -3.1280 H   0  0  0  0  0  0  0  0  0  0  0  0
    2.7115   -4.6393    3.4022 H   0  0  0  0  0  0  0  0  0  0  0  0
    0.6894   -5.8361    4.2541 H   0  0  0  0  0  0  0  0  0  0  0  0
   -0.1658   -7.3895    0.5241 H   0  0  0  0  0  0  0  0  0  0  0  0
    1.8159   -6.2533   -0.4881 H   0  0  0  0  0  0  0  0  0  0  0  0
    5.1167   -5.2756    2.3983 H   0  0  0  0  0  0  0  0  0  0  0  0
  1  2  1  0
  1 20  1  0
  1 21  1  0
  1 22  1  0
  2  3  1  0
  3 18  1  0
  3  4  2  0
  4  5  1  0
  4 23  1  0
  5  6  2  0
  5  7  1  0
  7 17  2  0
  7  8  1  0
  8  9  1  0
  8 15  2  0
  9 14  1  0
  9 10  2  0
 10 11  1  0
 10 24  1  0
 11 12  2  0
 11 25  1  0
 12 13  1  0
 13 14  2  0
 13 26  1  0
 14 27  1  0
 15 16  1  0
 15 28  1  0
 16 17  1  0
 17 18  1  0
 18 19  2  0
M  END
>  <i_m_ct_stereo_status>  (183) 
1

>  <s_m_source_file>  (183) 
/var/tmp/pbs.5076255.sched01/tmppnbbzaq8/41bb87crku.sdf

>  <i_m_source_file_index>  (183) 
31

>  <i_lp_mmshare_version>  (183) 
48012

>  <i_f3d_flags>  (183) 
0

>  <s_epik_input>  (183) 
Tz1DMVtDSF09QyhPW0NIM10pQyg9TyljKGMxMilzW2NIXWMyLWMzW2NIXVtjSF1uW2NIXVtjSF0z

>  <s_epik_cmdline>  (183) 
J2VwaWtfcHl0aG9uJywgJy1waHQnLCAnMi4wJywgJy1waCcsICc3LjAnLCAnLXRuJywgJzgnLCAnLW1hJywgJzIwMCcsICctaW1hZScsICc8aW5maWxlLm1hZT4nLCAnLW9tYWUnLCAnPG91dGZpbGUubWFlPic=

>  <r_lp_tautomer_probability>  (183) 
1

>  <r_epik_Ionization_Penalty>  (183) 
0.00898218

>  <r_epik_Ionization_Penalty_Charging>  (183) 
0

>  <r_epik_Ionization_Penalty_Neutral>  (183) 
0.00898218

>  <r_epik_State_Penalty>  (183) 
0.00679777

>  <r_epik_Charging_Adjusted_Penalty>  (183) 
0.00679777

>  <i_epik_Tot_Q>  (183) 
0

>  <i_epik_Tot_abs_Q>  (183) 
0

>  <s_lp_Force_Field>  (183) 
OPLS3e

>  <r_lp_Energy>  (183) 
36.2415

>  <b_lp_Chiralities_Consistent>  (183) 
1

>  <s_lp_Variant>  (183) 
55:0-1

>  <s_i_glide_gridfile>  (183) 
pfpi4k_grid

>  <i_i_glide_lignum>  (183) 
31

>  <i_i_glide_rotatable_bonds>  (183) 
2

>  <r_i_docking_score>  (183) 
-4.35355

>  <r_i_glide_ligand_efficiency>  (183) 
-0.229134

>  <r_i_glide_ligand_efficiency_sa>  (183) 
-0.611422

>  <r_i_glide_ligand_efficiency_ln>  (183) 
-1.10372

>  <r_i_glide_gscore>  (183) 
-4.35355

>  <r_i_glide_lipo>  (183) 
-0.563621

>  <r_i_glide_hbond>  (183) 
-0.286911

>  <r_i_glide_metal>  (183) 
-0

>  <r_i_glide_rewards>  (183) 
-1.61323

>  <r_i_glide_evdw>  (183) 
-24.6747

>  <r_i_glide_ecoul>  (183) 
-5.96849

>  <r_i_glide_erotb>  (183) 
0.243228

>  <r_i_glide_esite>  (183) 
-0.004004

>  <r_i_glide_emodel>  (183) 
-39.2097

>  <r_i_glide_energy>  (183) 
-30.6432

>  <r_i_glide_einternal>  (183) 
0.0553653

>  <r_i_glide_intrahb_reward>  (183) 
-0

>  <i_i_glide_confnum>  (183) 
5

>  <i_i_glide_posenum>  (183) 
27

>  <r_i_glide_eff_state_penalty>  (183) 
0

>  <ligand_id>  (183) 
55

>  <original_smiles>  (183) 
COC1=CC(=O)c2c(-c3ccncc3)csc2C1=O

>  <smiles>  (183) 
[H]C1=C(OC([H])([H])[H])C(=O)c2sc([H])c(-c3c([H])c([H])nc([H])c3[H])c2C1=O

$$$$
55:0:1
     RDKit          3D

 28 30  0  0  1  0  0  0  0  0999 V2000
    3.4072   -0.8174   -2.8190 C   0  0  0  0  0  0  0  0  0  0  0  0
    4.6468   -1.3082   -2.3208 O   0  0  0  0  0  0  0  0  0  0  0  0
    4.5931   -2.4115   -1.5000 C   0  0  0  0  0  0  0  0  0  0  0  0
    3.4231   -3.0475   -1.1956 C   0  0  0  0  0  0  0  0  0  0  0  0
    3.3406   -4.2181   -0.2972 C   0  0  0  0  0  0  0  0  0  0  0  0
    2.2414   -4.7162   -0.0494 O   0  0  0  0  0  0  0  0  0  0  0  0
    4.6236   -4.6949    0.2462 C   0  0  0  0  0  0  0  0  0  0  0  0
    4.8518   -5.8340    1.0992 C   0  0  0  0  0  0  0  0  0  0  0  0
    3.8139   -6.7662    1.5589 C   0  0  0  0  0  0  0  0  0  0  0  0
    3.9323   -8.1427    1.2843 C   0  0  0  0  0  0  0  0  0  0  0  0
    2.9280   -9.0171    1.7401 C   0  0  0  0  0  0  0  0  0  0  0  0
    1.8553   -8.5967    2.4431 N   0  0  0  0  0  0  0  0  0  0  0  0
    1.7396   -7.2820    2.7014 C   0  0  0  0  0  0  0  0  0  0  0  0
    2.6882   -6.3284    2.2949 C   0  0  0  0  0  0  0  0  0  0  0  0
    6.1825   -5.9584    1.4294 C   0  0  0  0  0  0  0  0  0  0  0  0
    7.1855   -4.7196    0.7278 S   0  0  0  0  0  0  0  0  0  0  0  0
    5.7866   -4.0179   -0.0514 C   0  0  0  0  0  0  0  0  0  0  0  0
    5.8975   -2.8469   -0.9212 C   0  0  0  0  0  0  0  0  0  0  0  0
    6.9699   -2.2735   -1.1511 O   0  0  0  0  0  0  0  0  0  0  0  0
    3.5144    0.1064   -3.3784 H   0  0  0  0  0  0  0  0  0  0  0  0
    2.7243   -0.6378   -1.9850 H   0  0  0  0  0  0  0  0  0  0  0  0
    2.9327   -1.5533   -3.4728 H   0  0  0  0  0  0  0  0  0  0  0  0
    2.4789   -2.7165   -1.6103 H   0  0  0  0  0  0  0  0  0  0  0  0
    4.7720   -8.5241    0.7222 H   0  0  0  0  0  0  0  0  0  0  0  0
    3.0010  -10.0787    1.5560 H   0  0  0  0  0  0  0  0  0  0  0  0
    0.8700   -6.9846    3.2686 H   0  0  0  0  0  0  0  0  0  0  0  0
    2.5492   -5.2864    2.5303 H   0  0  0  0  0  0  0  0  0  0  0  0
    6.6416   -6.7121    2.0531 H   0  0  0  0  0  0  0  0  0  0  0  0
  1  2  1  0
  1 20  1  0
  1 21  1  0
  1 22  1  0
  2  3  1  0
  3 18  1  0
  3  4  2  0
  4  5  1  0
  4 23  1  0
  5  6  2  0
  5  7  1  0
  7 17  2  0
  7  8  1  0
  8  9  1  0
  8 15  2  0
  9 14  1  0
  9 10  2  0
 10 11  1  0
 10 24  1  0
 11 12  2  0
 11 25  1  0
 12 13  1  0
 13 14  2  0
 13 26  1  0
 14 27  1  0
 15 16  1  0
 15 28  1  0
 16 17  1  0
 17 18  1  0
 18 19  2  0
M  END
>  <i_m_ct_stereo_status>  (184) 
1

>  <s_m_source_file>  (184) 
/var/tmp/pbs.5076255.sched01/tmppnbbzaq8/41bb87crku.sdf

>  <i_m_source_file_index>  (184) 
31

>  <i_lp_mmshare_version>  (184) 
48012

>  <i_f3d_flags>  (184) 
0

>  <s_epik_input>  (184) 
Tz1DMVtDSF09QyhPW0NIM10pQyg9TyljKGMxMilzW2NIXWMyLWMzW2NIXVtjSF1uW2NIXVtjSF0z

>  <s_epik_cmdline>  (184) 
J2VwaWtfcHl0aG9uJywgJy1waHQnLCAnMi4wJywgJy1waCcsICc3LjAnLCAnLXRuJywgJzgnLCAnLW1hJywgJzIwMCcsICctaW1hZScsICc8aW5maWxlLm1hZT4nLCAnLW9tYWUnLCAnPG91dGZpbGUubWFlPic=

>  <r_lp_tautomer_probability>  (184) 
1

>  <r_epik_Ionization_Penalty>  (184) 
0.00898218

>  <r_epik_Ionization_Penalty_Charging>  (184) 
0

>  <r_epik_Ionization_Penalty_Neutral>  (184) 
0.00898218

>  <r_epik_State_Penalty>  (184) 
0.00679777

>  <r_epik_Charging_Adjusted_Penalty>  (184) 
0.00679777

>  <i_epik_Tot_Q>  (184) 
0

>  <i_epik_Tot_abs_Q>  (184) 
0

>  <s_lp_Force_Field>  (184) 
OPLS3e

>  <r_lp_Energy>  (184) 
36.2415

>  <b_lp_Chiralities_Consistent>  (184) 
1

>  <s_lp_Variant>  (184) 
55:0-1

>  <s_i_glide_gridfile>  (184) 
pfpi4k_grid

>  <i_i_glide_lignum>  (184) 
31

>  <i_i_glide_rotatable_bonds>  (184) 
2

>  <r_i_docking_score>  (184) 
-3.84183

>  <r_i_glide_ligand_efficiency>  (184) 
-0.202202

>  <r_i_glide_ligand_efficiency_sa>  (184) 
-0.539555

>  <r_i_glide_ligand_efficiency_ln>  (184) 
-0.973986

>  <r_i_glide_gscore>  (184) 
-3.84183

>  <r_i_glide_lipo>  (184) 
-0.445835

>  <r_i_glide_hbond>  (184) 
-0.162045

>  <r_i_glide_metal>  (184) 
-0

>  <r_i_glide_rewards>  (184) 
-1.56678

>  <r_i_glide_evdw>  (184) 
-25.3949

>  <r_i_glide_ecoul>  (184) 
-4.08908

>  <r_i_glide_erotb>  (184) 
0.243228

>  <r_i_glide_esite>  (184) 
-0.0272907

>  <r_i_glide_emodel>  (184) 
-36.8848

>  <r_i_glide_energy>  (184) 
-29.484

>  <r_i_glide_einternal>  (184) 
0.598529

>  <r_i_glide_intrahb_reward>  (184) 
-0

>  <i_i_glide_confnum>  (184) 
2

>  <i_i_glide_posenum>  (184) 
17

>  <r_i_glide_eff_state_penalty>  (184) 
0

>  <ligand_id>  (184) 
55

>  <original_smiles>  (184) 
COC1=CC(=O)c2c(-c3ccncc3)csc2C1=O

>  <smiles>  (184) 
[H]C1=C(OC([H])([H])[H])C(=O)c2sc([H])c(-c3c([H])c([H])nc([H])c3[H])c2C1=O

$$$$
55:0:2
     RDKit          3D

 28 30  0  0  1  0  0  0  0  0999 V2000
    5.4481   -4.3487   -0.9340 C   0  0  0  0  0  0  0  0  0  0  0  0
    5.8574   -5.2348    0.1062 O   0  0  0  0  0  0  0  0  0  0  0  0
    4.8692   -5.9056    0.7958 C   0  0  0  0  0  0  0  0  0  0  0  0
    3.5964   -5.4340    0.9150 C   0  0  0  0  0  0  0  0  0  0  0  0
    2.5063   -6.1793    1.5840 C   0  0  0  0  0  0  0  0  0  0  0  0
    1.3882   -5.6818    1.6404 O   0  0  0  0  0  0  0  0  0  0  0  0
    2.8608   -7.4950    2.1277 C   0  0  0  0  0  0  0  0  0  0  0  0
    2.0108   -8.4408    2.8014 C   0  0  0  0  0  0  0  0  0  0  0  0
    0.5835   -8.2410    3.0561 C   0  0  0  0  0  0  0  0  0  0  0  0
    0.1028   -7.1595    3.8300 C   0  0  0  0  0  0  0  0  0  0  0  0
   -1.2798   -7.0634    4.0676 C   0  0  0  0  0  0  0  0  0  0  0  0
   -2.1740   -7.9339    3.5697 N   0  0  0  0  0  0  0  0  0  0  0  0
   -1.7148   -8.9793    2.8492 C   0  0  0  0  0  0  0  0  0  0  0  0
   -0.3504   -9.1748    2.5697 C   0  0  0  0  0  0  0  0  0  0  0  0
    2.7019   -9.5651    3.1838 C   0  0  0  0  0  0  0  0  0  0  0  0
    4.3810   -9.5196    2.7154 S   0  0  0  0  0  0  0  0  0  0  0  0
    4.1532   -7.9391    2.0111 C   0  0  0  0  0  0  0  0  0  0  0  0
    5.2552   -7.2331    1.3599 C   0  0  0  0  0  0  0  0  0  0  0  0
    6.3910   -7.7041    1.2785 O   0  0  0  0  0  0  0  0  0  0  0  0
    6.3206   -3.8331   -1.3440 H   0  0  0  0  0  0  0  0  0  0  0  0
    4.7451   -3.5851   -0.6074 H   0  0  0  0  0  0  0  0  0  0  0  0
    5.0048   -4.9317   -1.7413 H   0  0  0  0  0  0  0  0  0  0  0  0
    3.3037   -4.4819    0.5047 H   0  0  0  0  0  0  0  0  0  0  0  0
    0.7795   -6.4193    4.2292 H   0  0  0  0  0  0  0  0  0  0  0  0
   -1.6814   -6.2581    4.6600 H   0  0  0  0  0  0  0  0  0  0  0  0
   -2.4509   -9.6900    2.4989 H   0  0  0  0  0  0  0  0  0  0  0  0
   -0.0281  -10.0366    1.9960 H   0  0  0  0  0  0  0  0  0  0  0  0
    2.3220  -10.4234    3.7186 H   0  0  0  0  0  0  0  0  0  0  0  0
  1  2  1  0
  1 20  1  0
  1 21  1  0
  1 22  1  0
  2  3  1  0
  3 18  1  0
  3  4  2  0
  4  5  1  0
  4 23  1  0
  5  6  2  0
  5  7  1  0
  7 17  2  0
  7  8  1  0
  8  9  1  0
  8 15  2  0
  9 14  1  0
  9 10  2  0
 10 11  1  0
 10 24  1  0
 11 12  2  0
 11 25  1  0
 12 13  1  0
 13 14  2  0
 13 26  1  0
 14 27  1  0
 15 16  1  0
 15 28  1  0
 16 17  1  0
 17 18  1  0
 18 19  2  0
M  END
>  <i_m_ct_stereo_status>  (185) 
1

>  <s_m_source_file>  (185) 
/var/tmp/pbs.5076255.sched01/tmppnbbzaq8/41bb87crku.sdf

>  <i_m_source_file_index>  (185) 
31

>  <i_lp_mmshare_version>  (185) 
48012

>  <i_f3d_flags>  (185) 
0

>  <s_epik_input>  (185) 
Tz1DMVtDSF09QyhPW0NIM10pQyg9TyljKGMxMilzW2NIXWMyLWMzW2NIXVtjSF1uW2NIXVtjSF0z

>  <s_epik_cmdline>  (185) 
J2VwaWtfcHl0aG9uJywgJy1waHQnLCAnMi4wJywgJy1waCcsICc3LjAnLCAnLXRuJywgJzgnLCAnLW1hJywgJzIwMCcsICctaW1hZScsICc8aW5maWxlLm1hZT4nLCAnLW9tYWUnLCAnPG91dGZpbGUubWFlPic=

>  <r_lp_tautomer_probability>  (185) 
1

>  <r_epik_Ionization_Penalty>  (185) 
0.00898218

>  <r_epik_Ionization_Penalty_Charging>  (185) 
0

>  <r_epik_Ionization_Penalty_Neutral>  (185) 
0.00898218

>  <r_epik_State_Penalty>  (185) 
0.00679777

>  <r_epik_Charging_Adjusted_Penalty>  (185) 
0.00679777

>  <i_epik_Tot_Q>  (185) 
0

>  <i_epik_Tot_abs_Q>  (185) 
0

>  <s_lp_Force_Field>  (185) 
OPLS3e

>  <r_lp_Energy>  (185) 
36.2415

>  <b_lp_Chiralities_Consistent>  (185) 
1

>  <s_lp_Variant>  (185) 
55:0-1

>  <s_i_glide_gridfile>  (185) 
pfpi4k_grid

>  <i_i_glide_lignum>  (185) 
31

>  <i_i_glide_rotatable_bonds>  (185) 
2

>  <r_i_docking_score>  (185) 
-3.37581

>  <r_i_glide_ligand_efficiency>  (185) 
-0.177674

>  <r_i_glide_ligand_efficiency_sa>  (185) 
-0.474106

>  <r_i_glide_ligand_efficiency_ln>  (185) 
-0.85584

>  <r_i_glide_gscore>  (185) 
-3.37581

>  <r_i_glide_lipo>  (185) 
-0.1083

>  <r_i_glide_hbond>  (185) 
-0.115524

>  <r_i_glide_metal>  (185) 
-0

>  <r_i_glide_rewards>  (185) 
-1.68737

>  <r_i_glide_evdw>  (185) 
-23.0177

>  <r_i_glide_ecoul>  (185) 
-3.64187

>  <r_i_glide_erotb>  (185) 
0.243228

>  <r_i_glide_esite>  (185) 
-0.0106742

>  <r_i_glide_emodel>  (185) 
-32.2811

>  <r_i_glide_energy>  (185) 
-26.6596

>  <r_i_glide_einternal>  (185) 
2.08341

>  <r_i_glide_intrahb_reward>  (185) 
-0

>  <i_i_glide_confnum>  (185) 
2

>  <i_i_glide_posenum>  (185) 
2

>  <r_i_glide_eff_state_penalty>  (185) 
0

>  <ligand_id>  (185) 
55

>  <original_smiles>  (185) 
COC1=CC(=O)c2c(-c3ccncc3)csc2C1=O

>  <smiles>  (185) 
[H]C1=C(OC([H])([H])[H])C(=O)c2sc([H])c(-c3c([H])c([H])nc([H])c3[H])c2C1=O

$$$$
55:1:0
     RDKit          3D

 29 31  0  0  1  0  0  0  0  0999 V2000
    3.4162   -1.5446   -2.3947 C   0  0  0  0  0  0  0  0  0  0  0  0
    4.3704   -1.4046   -1.3479 O   0  0  0  0  0  0  0  0  0  0  0  0
    4.7068   -2.5526   -0.6721 C   0  0  0  0  0  0  0  0  0  0  0  0
    3.7921   -3.4985   -0.3206 C   0  0  0  0  0  0  0  0  0  0  0  0
    4.1427   -4.7714    0.3508 C   0  0  0  0  0  0  0  0  0  0  0  0
    3.2407   -5.5344    0.6875 O   0  0  0  0  0  0  0  0  0  0  0  0
    5.5800   -5.0060    0.5773 C   0  0  0  0  0  0  0  0  0  0  0  0
    6.2325   -6.1517    1.1713 C   0  0  0  0  0  0  0  0  0  0  0  0
    5.5339   -7.3647    1.6281 C   0  0  0  0  0  0  0  0  0  0  0  0
    4.6206   -8.0566    0.7996 C   0  0  0  0  0  0  0  0  0  0  0  0
    3.9975   -9.2281    1.2676 C   0  0  0  0  0  0  0  0  0  0  0  0
    4.3006   -9.7038    2.4909 N   0  0  0  0  0  0  0  0  0  0  0  0
    5.1750   -9.0874    3.3183 C   0  0  0  0  0  0  0  0  0  0  0  0
    5.8164   -7.9022    2.9026 C   0  0  0  0  0  0  0  0  0  0  0  0
    7.5947   -5.9629    1.2677 C   0  0  0  0  0  0  0  0  0  0  0  0
    8.1199   -4.4393    0.6120 S   0  0  0  0  0  0  0  0  0  0  0  0
    6.4755   -4.0242    0.2246 C   0  0  0  0  0  0  0  0  0  0  0  0
    6.1565   -2.7454   -0.4133 C   0  0  0  0  0  0  0  0  0  0  0  0
    7.0165   -1.9164   -0.7136 O   0  0  0  0  0  0  0  0  0  0  0  0
    3.1280   -0.5571   -2.7552 H   0  0  0  0  0  0  0  0  0  0  0  0
    2.4960   -2.0560   -2.1162 H   0  0  0  0  0  0  0  0  0  0  0  0
    3.8739   -2.0941   -3.2166 H   0  0  0  0  0  0  0  0  0  0  0  0
    2.7378   -3.3646   -0.5090 H   0  0  0  0  0  0  0  0  0  0  0  0
    4.3958   -7.6914   -0.1907 H   0  0  0  0  0  0  0  0  0  0  0  0
    3.2947   -9.8174    0.6932 H   0  0  0  0  0  0  0  0  0  0  0  0
    5.3462   -9.5635    4.2742 H   0  0  0  0  0  0  0  0  0  0  0  0
    6.5221   -7.4081    3.5552 H   0  0  0  0  0  0  0  0  0  0  0  0
    8.3384   -6.6428    1.6674 H   0  0  0  0  0  0  0  0  0  0  0  0
    3.8541  -10.5713    2.7919 H   0  0  0  0  0  0  0  0  0  0  0  0
  1  2  1  0
  1 20  1  0
  1 21  1  0
  1 22  1  0
  2  3  1  0
  3 18  1  0
  3  4  2  0
  4  5  1  0
  4 23  1  0
  5  6  2  0
  5  7  1  0
  7 17  2  0
  7  8  1  0
  8  9  1  0
  8 15  2  0
  9 14  1  0
  9 10  2  0
 10 11  1  0
 10 24  1  0
 11 12  2  0
 11 25  1  0
 12 13  1  0
 12 29  1  0
 13 14  2  0
 13 26  1  0
 14 27  1  0
 15 16  1  0
 15 28  1  0
 16 17  1  0
 17 18  1  0
 18 19  2  0
M  CHG  1  12   1
M  END
>  <i_m_ct_stereo_status>  (186) 
1

>  <s_m_source_file>  (186) 
/var/tmp/pbs.5076255.sched01/tmppnbbzaq8/41bb87crku.sdf

>  <i_m_source_file_index>  (186) 
32

>  <i_lp_mmshare_version>  (186) 
48012

>  <i_f3d_flags>  (186) 
0

>  <s_epik_input>  (186) 
Tz1DMVtDSF09QyhPW0NIM10pQyg9TyljKGMxMilzW2NIXWMyLWMzW2NIXVtjSF1uW2NIXVtjSF0z

>  <s_epik_cmdline>  (186) 
J2VwaWtfcHl0aG9uJywgJy1waHQnLCAnMi4wJywgJy1waCcsICc3LjAnLCAnLXRuJywgJzgnLCAnLW1hJywgJzIwMCcsICctaW1hZScsICc8aW5maWxlLm1hZT4nLCAnLW9tYWUnLCAnPG91dGZpbGUubWFlPic=

>  <r_lp_tautomer_probability>  (186) 
1

>  <r_epik_Ionization_Penalty>  (186) 
2.48646

>  <r_epik_Ionization_Penalty_Charging>  (186) 
2.48646

>  <r_epik_Ionization_Penalty_Neutral>  (186) 
0

>  <r_epik_State_Penalty>  (186) 
2.65046

>  <r_epik_Charging_Adjusted_Penalty>  (186) 
5.13692

>  <i_epik_Tot_Q>  (186) 
1

>  <i_epik_Tot_abs_Q>  (186) 
1

>  <s_lp_Force_Field>  (186) 
OPLS3e

>  <r_lp_Energy>  (186) 
41.7913

>  <b_lp_Chiralities_Consistent>  (186) 
1

>  <s_lp_Variant>  (186) 
55:0-2

>  <s_i_glide_gridfile>  (186) 
pfpi4k_grid

>  <i_i_glide_lignum>  (186) 
32

>  <i_i_glide_rotatable_bonds>  (186) 
2

>  <r_i_docking_score>  (186) 
-4.2069

>  <r_i_glide_ligand_efficiency>  (186) 
-0.221416

>  <r_i_glide_ligand_efficiency_sa>  (186) 
-0.590826

>  <r_i_glide_ligand_efficiency_ln>  (186) 
-1.06654

>  <r_i_glide_gscore>  (186) 
-4.2069

>  <r_i_glide_lipo>  (186) 
-0.598906

>  <r_i_glide_hbond>  (186) 
-0.16

>  <r_i_glide_metal>  (186) 
-0

>  <r_i_glide_rewards>  (186) 
-1.59766

>  <r_i_glide_evdw>  (186) 
-23.2504

>  <r_i_glide_ecoul>  (186) 
-5.8889

>  <r_i_glide_erotb>  (186) 
0.241671

>  <r_i_glide_esite>  (186) 
-0.0461496

>  <r_i_glide_emodel>  (186) 
-38.9044

>  <r_i_glide_energy>  (186) 
-29.1393

>  <r_i_glide_einternal>  (186) 
0.709461

>  <r_i_glide_intrahb_reward>  (186) 
-0

>  <i_i_glide_confnum>  (186) 
3

>  <i_i_glide_posenum>  (186) 
28

>  <r_i_glide_eff_state_penalty>  (186) 
0

>  <ligand_id>  (186) 
55

>  <original_smiles>  (186) 
COC1=CC(=O)c2c(-c3ccncc3)csc2C1=O

>  <smiles>  (186) 
[H]C1=C(OC([H])([H])[H])C(=O)c2sc([H])c(-c3c([H])c([H])[n+]([H])c([H])c3[H])c2C1=O

$$$$
55:1:1
     RDKit          3D

 29 31  0  0  1  0  0  0  0  0999 V2000
    3.3537   -0.8216   -2.7669 C   0  0  0  0  0  0  0  0  0  0  0  0
    4.6085   -1.2568   -2.2453 O   0  0  0  0  0  0  0  0  0  0  0  0
    4.5998   -2.3827   -1.4510 C   0  0  0  0  0  0  0  0  0  0  0  0
    3.4551   -3.0665   -1.1592 C   0  0  0  0  0  0  0  0  0  0  0  0
    3.4203   -4.2633   -0.2914 C   0  0  0  0  0  0  0  0  0  0  0  0
    2.3411   -4.8062   -0.0439 O   0  0  0  0  0  0  0  0  0  0  0  0
    4.7225   -4.7174    0.2339 C   0  0  0  0  0  0  0  0  0  0  0  0
    5.0004   -5.8753    1.0501 C   0  0  0  0  0  0  0  0  0  0  0  0
    4.0019   -6.8641    1.4855 C   0  0  0  0  0  0  0  0  0  0  0  0
    4.1999   -8.2328    1.2078 C   0  0  0  0  0  0  0  0  0  0  0  0
    3.2555   -9.1801    1.6400 C   0  0  0  0  0  0  0  0  0  0  0  0
    2.1634   -8.7643    2.3191 N   0  0  0  0  0  0  0  0  0  0  0  0
    1.9212   -7.4700    2.6027 C   0  0  0  0  0  0  0  0  0  0  0  0
    2.8408   -6.4868    2.2048 C   0  0  0  0  0  0  0  0  0  0  0  0
    6.3400   -5.9554    1.3682 C   0  0  0  0  0  0  0  0  0  0  0  0
    7.2889   -4.6594    0.6941 S   0  0  0  0  0  0  0  0  0  0  0  0
    5.8572   -3.9911   -0.0524 C   0  0  0  0  0  0  0  0  0  0  0  0
    5.9259   -2.7996   -0.8975 C   0  0  0  0  0  0  0  0  0  0  0  0
    6.9870   -2.2108   -1.1338 O   0  0  0  0  0  0  0  0  0  0  0  0
    3.4405    0.0985   -3.3366 H   0  0  0  0  0  0  0  0  0  0  0  0
    2.6442   -0.6478   -1.9511 H   0  0  0  0  0  0  0  0  0  0  0  0
    2.9390   -1.5804   -3.4354 H   0  0  0  0  0  0  0  0  0  0  0  0
    2.5002   -2.7559   -1.5696 H   0  0  0  0  0  0  0  0  0  0  0  0
    5.0736   -8.5518    0.6623 H   0  0  0  0  0  0  0  0  0  0  0  0
    3.3524  -10.2439    1.4779 H   0  0  0  0  0  0  0  0  0  0  0  0
    1.0169   -7.2603    3.1542 H   0  0  0  0  0  0  0  0  0  0  0  0
    2.6623   -5.4509    2.4317 H   0  0  0  0  0  0  0  0  0  0  0  0
    6.8422   -6.6993    1.9670 H   0  0  0  0  0  0  0  0  0  0  0  0
    1.4940   -9.4648    2.6237 H   0  0  0  0  0  0  0  0  0  0  0  0
  1  2  1  0
  1 20  1  0
  1 21  1  0
  1 22  1  0
  2  3  1  0
  3 18  1  0
  3  4  2  0
  4  5  1  0
  4 23  1  0
  5  6  2  0
  5  7  1  0
  7 17  2  0
  7  8  1  0
  8  9  1  0
  8 15  2  0
  9 14  1  0
  9 10  2  0
 10 11  1  0
 10 24  1  0
 11 12  2  0
 11 25  1  0
 12 13  1  0
 12 29  1  0
 13 14  2  0
 13 26  1  0
 14 27  1  0
 15 16  1  0
 15 28  1  0
 16 17  1  0
 17 18  1  0
 18 19  2  0
M  CHG  1  12   1
M  END
>  <i_m_ct_stereo_status>  (187) 
1

>  <s_m_source_file>  (187) 
/var/tmp/pbs.5076255.sched01/tmppnbbzaq8/41bb87crku.sdf

>  <i_m_source_file_index>  (187) 
32

>  <i_lp_mmshare_version>  (187) 
48012

>  <i_f3d_flags>  (187) 
0

>  <s_epik_input>  (187) 
Tz1DMVtDSF09QyhPW0NIM10pQyg9TyljKGMxMilzW2NIXWMyLWMzW2NIXVtjSF1uW2NIXVtjSF0z

>  <s_epik_cmdline>  (187) 
J2VwaWtfcHl0aG9uJywgJy1waHQnLCAnMi4wJywgJy1waCcsICc3LjAnLCAnLXRuJywgJzgnLCAnLW1hJywgJzIwMCcsICctaW1hZScsICc8aW5maWxlLm1hZT4nLCAnLW9tYWUnLCAnPG91dGZpbGUubWFlPic=

>  <r_lp_tautomer_probability>  (187) 
1

>  <r_epik_Ionization_Penalty>  (187) 
2.48646

>  <r_epik_Ionization_Penalty_Charging>  (187) 
2.48646

>  <r_epik_Ionization_Penalty_Neutral>  (187) 
0

>  <r_epik_State_Penalty>  (187) 
2.65046

>  <r_epik_Charging_Adjusted_Penalty>  (187) 
5.13692

>  <i_epik_Tot_Q>  (187) 
1

>  <i_epik_Tot_abs_Q>  (187) 
1

>  <s_lp_Force_Field>  (187) 
OPLS3e

>  <r_lp_Energy>  (187) 
41.7913

>  <b_lp_Chiralities_Consistent>  (187) 
1

>  <s_lp_Variant>  (187) 
55:0-2

>  <s_i_glide_gridfile>  (187) 
pfpi4k_grid

>  <i_i_glide_lignum>  (187) 
32

>  <i_i_glide_rotatable_bonds>  (187) 
2

>  <r_i_docking_score>  (187) 
-4.1999

>  <r_i_glide_ligand_efficiency>  (187) 
-0.221047

>  <r_i_glide_ligand_efficiency_sa>  (187) 
-0.589843

>  <r_i_glide_ligand_efficiency_ln>  (187) 
-1.06476

>  <r_i_glide_gscore>  (187) 
-4.1999

>  <r_i_glide_lipo>  (187) 
-0.478371

>  <r_i_glide_hbond>  (187) 
-0.16

>  <r_i_glide_metal>  (187) 
-0

>  <r_i_glide_rewards>  (187) 
-1.5525

>  <r_i_glide_evdw>  (187) 
-24.081

>  <r_i_glide_ecoul>  (187) 
-6.78303

>  <r_i_glide_erotb>  (187) 
0.241671

>  <r_i_glide_esite>  (187) 
-0.0291977

>  <r_i_glide_emodel>  (187) 
-40.4826

>  <r_i_glide_energy>  (187) 
-30.864

>  <r_i_glide_einternal>  (187) 
0.704521

>  <r_i_glide_intrahb_reward>  (187) 
-0

>  <i_i_glide_confnum>  (187) 
4

>  <i_i_glide_posenum>  (187) 
22

>  <r_i_glide_eff_state_penalty>  (187) 
0

>  <ligand_id>  (187) 
55

>  <original_smiles>  (187) 
COC1=CC(=O)c2c(-c3ccncc3)csc2C1=O

>  <smiles>  (187) 
[H]C1=C(OC([H])([H])[H])C(=O)c2sc([H])c(-c3c([H])c([H])[n+]([H])c([H])c3[H])c2C1=O

$$$$
55:1:2
     RDKit          3D

 29 31  0  0  1  0  0  0  0  0999 V2000
    5.1336   -7.7129    3.1428 C   0  0  0  0  0  0  0  0  0  0  0  0
    5.9338   -6.5378    3.1952 O   0  0  0  0  0  0  0  0  0  0  0  0
    5.8399   -5.6901    2.1145 C   0  0  0  0  0  0  0  0  0  0  0  0
    4.6608   -5.4015    1.4932 C   0  0  0  0  0  0  0  0  0  0  0  0
    4.5569   -4.5447    0.2817 C   0  0  0  0  0  0  0  0  0  0  0  0
    3.4586   -4.3382   -0.2263 O   0  0  0  0  0  0  0  0  0  0  0  0
    5.8210   -3.9939   -0.2215 C   0  0  0  0  0  0  0  0  0  0  0  0
    6.0334   -3.1215   -1.3470 C   0  0  0  0  0  0  0  0  0  0  0  0
    4.9627   -2.6022   -2.2046 C   0  0  0  0  0  0  0  0  0  0  0  0
    4.2522   -3.4448   -3.0879 C   0  0  0  0  0  0  0  0  0  0  0  0
    3.2525   -2.8945   -3.9149 C   0  0  0  0  0  0  0  0  0  0  0  0
    3.0136   -1.5661   -3.8872 N   0  0  0  0  0  0  0  0  0  0  0  0
    3.6774   -0.7193   -3.0675 C   0  0  0  0  0  0  0  0  0  0  0  0
    4.6644   -1.2217   -2.1983 C   0  0  0  0  0  0  0  0  0  0  0  0
    7.3691   -2.8435   -1.5229 C   0  0  0  0  0  0  0  0  0  0  0  0
    8.3848   -3.5626   -0.3122 S   0  0  0  0  0  0  0  0  0  0  0  0
    6.9917   -4.3061    0.4212 C   0  0  0  0  0  0  0  0  0  0  0  0
    7.1345   -5.1733    1.5888 C   0  0  0  0  0  0  0  0  0  0  0  0
    8.2327   -5.4551    2.0682 O   0  0  0  0  0  0  0  0  0  0  0  0
    5.2923   -8.3216    4.0377 H   0  0  0  0  0  0  0  0  0  0  0  0
    5.4284   -8.3014    2.2727 H   0  0  0  0  0  0  0  0  0  0  0  0
    4.0644   -7.5079    3.0828 H   0  0  0  0  0  0  0  0  0  0  0  0
    3.7173   -5.7791    1.8596 H   0  0  0  0  0  0  0  0  0  0  0  0
    4.4563   -4.5033   -3.1083 H   0  0  0  0  0  0  0  0  0  0  0  0
    2.6334   -3.4638   -4.5933 H   0  0  0  0  0  0  0  0  0  0  0  0
    3.3992    0.3257   -3.1250 H   0  0  0  0  0  0  0  0  0  0  0  0
    5.1818   -0.5554   -1.5263 H   0  0  0  0  0  0  0  0  0  0  0  0
    7.8436   -2.2898   -2.3176 H   0  0  0  0  0  0  0  0  0  0  0  0
    2.2913   -1.1869   -4.5008 H   0  0  0  0  0  0  0  0  0  0  0  0
  1  2  1  0
  1 20  1  0
  1 21  1  0
  1 22  1  0
  2  3  1  0
  3 18  1  0
  3  4  2  0
  4  5  1  0
  4 23  1  0
  5  6  2  0
  5  7  1  0
  7 17  2  0
  7  8  1  0
  8  9  1  0
  8 15  2  0
  9 14  1  0
  9 10  2  0
 10 11  1  0
 10 24  1  0
 11 12  2  0
 11 25  1  0
 12 13  1  0
 12 29  1  0
 13 14  2  0
 13 26  1  0
 14 27  1  0
 15 16  1  0
 15 28  1  0
 16 17  1  0
 17 18  1  0
 18 19  2  0
M  CHG  1  12   1
M  END
>  <i_m_ct_stereo_status>  (188) 
1

>  <s_m_source_file>  (188) 
/var/tmp/pbs.5076255.sched01/tmppnbbzaq8/41bb87crku.sdf

>  <i_m_source_file_index>  (188) 
32

>  <i_lp_mmshare_version>  (188) 
48012

>  <i_f3d_flags>  (188) 
0

>  <s_epik_input>  (188) 
Tz1DMVtDSF09QyhPW0NIM10pQyg9TyljKGMxMilzW2NIXWMyLWMzW2NIXVtjSF1uW2NIXVtjSF0z

>  <s_epik_cmdline>  (188) 
J2VwaWtfcHl0aG9uJywgJy1waHQnLCAnMi4wJywgJy1waCcsICc3LjAnLCAnLXRuJywgJzgnLCAnLW1hJywgJzIwMCcsICctaW1hZScsICc8aW5maWxlLm1hZT4nLCAnLW9tYWUnLCAnPG91dGZpbGUubWFlPic=

>  <r_lp_tautomer_probability>  (188) 
1

>  <r_epik_Ionization_Penalty>  (188) 
2.48646

>  <r_epik_Ionization_Penalty_Charging>  (188) 
2.48646

>  <r_epik_Ionization_Penalty_Neutral>  (188) 
0

>  <r_epik_State_Penalty>  (188) 
2.65046

>  <r_epik_Charging_Adjusted_Penalty>  (188) 
5.13692

>  <i_epik_Tot_Q>  (188) 
1

>  <i_epik_Tot_abs_Q>  (188) 
1

>  <s_lp_Force_Field>  (188) 
OPLS3e

>  <r_lp_Energy>  (188) 
41.7913

>  <b_lp_Chiralities_Consistent>  (188) 
1

>  <s_lp_Variant>  (188) 
55:0-2

>  <s_i_glide_gridfile>  (188) 
pfpi4k_grid

>  <i_i_glide_lignum>  (188) 
32

>  <i_i_glide_rotatable_bonds>  (188) 
2

>  <r_i_docking_score>  (188) 
-4.11792

>  <r_i_glide_ligand_efficiency>  (188) 
-0.216733

>  <r_i_glide_ligand_efficiency_sa>  (188) 
-0.578329

>  <r_i_glide_ligand_efficiency_ln>  (188) 
-1.04398

>  <r_i_glide_gscore>  (188) 
-4.11792

>  <r_i_glide_lipo>  (188) 
-0.758027

>  <r_i_glide_hbond>  (188) 
0

>  <r_i_glide_metal>  (188) 
-0

>  <r_i_glide_rewards>  (188) 
-1.72222

>  <r_i_glide_evdw>  (188) 
-27.0785

>  <r_i_glide_ecoul>  (188) 
-3.50279

>  <r_i_glide_erotb>  (188) 
0.241671

>  <r_i_glide_esite>  (188) 
0

>  <r_i_glide_emodel>  (188) 
-40.2412

>  <r_i_glide_energy>  (188) 
-30.5813

>  <r_i_glide_einternal>  (188) 
0.516847

>  <r_i_glide_intrahb_reward>  (188) 
-0

>  <i_i_glide_confnum>  (188) 
2

>  <i_i_glide_posenum>  (188) 
12

>  <r_i_glide_eff_state_penalty>  (188) 
0

>  <ligand_id>  (188) 
55

>  <original_smiles>  (188) 
COC1=CC(=O)c2c(-c3ccncc3)csc2C1=O

>  <smiles>  (188) 
[H]C1=C(OC([H])([H])[H])C(=O)c2sc([H])c(-c3c([H])c([H])[n+]([H])c([H])c3[H])c2C1=O

$$$$
57:1:0
     RDKit          3D

 79 84  0  0  1  0  0  0  0  0999 V2000
   -0.8702    1.1647    2.4079 C   0  0  0  0  0  0  0  0  0  0  0  0
    0.5648    1.4837    2.9058 C   0  0  2  0  0  0  0  0  0  0  0  0
    1.6298    0.5429    2.2518 C   0  0  0  0  0  0  0  0  0  0  0  0
    2.1484   -0.8011    2.8983 C   0  0  2  0  0  0  0  0  0  0  0  0
    2.3159   -1.5330    1.6847 O   0  0  0  0  0  0  0  0  0  0  0  0
    1.0060   -1.6325    3.6242 C   0  0  1  0  0  0  0  0  0  0  0  0
    1.2145   -3.1722    3.6809 C   0  0  0  0  0  0  0  0  0  0  0  0
    0.1935   -1.0978    4.8639 C   0  0  0  0  0  0  0  0  0  0  0  0
    0.7238   -0.1113    5.9378 C   0  0  0  0  0  0  0  0  0  0  0  0
    1.4681    1.1501    5.4895 C   0  0  2  0  0  0  0  0  0  0  0  0
    0.6221    1.9111    4.4132 C   0  0  1  0  0  0  0  0  0  0  0  0
    0.8527    3.3282    4.5485 O   0  0  0  0  0  0  0  0  0  0  0  0
   -0.1137    4.2864    4.4806 C   0  0  0  0  0  0  0  0  0  0  0  0
    0.1417    5.4906    4.5588 O   0  0  0  0  0  0  0  0  0  0  0  0
   -1.4897    3.7781    4.3493 C   0  0  0  0  0  0  0  0  0  0  0  0
   -2.2797    3.3834    5.3764 C   0  0  0  0  0  0  0  0  0  0  0  0
   -2.0899    3.4873    6.8507 C   0  0  0  0  0  0  0  0  0  0  0  0
   -1.1301    4.3344    7.4550 C   0  0  0  0  0  0  0  0  0  0  0  0
   -1.0488    4.4719    8.8479 C   0  0  0  0  0  0  0  0  0  0  0  0
   -1.9365    3.7683    9.6819 C   0  0  0  0  0  0  0  0  0  0  0  0
   -2.9038    2.9281    9.1063 C   0  0  0  0  0  0  0  0  0  0  0  0
   -2.9785    2.7840    7.7049 C   0  0  0  0  0  0  0  0  0  0  0  0
    3.0551    1.0835    5.4278 C   0  0  1  0  0  0  0  0  0  0  0  0
    3.5207    2.2056    4.4263 C   0  0  0  0  0  0  0  0  0  0  0  0
    3.7945    1.7448    6.7045 C   0  0  1  0  0  0  0  0  0  0  0  0
    3.2657    1.4613    8.1194 C   0  0  0  0  0  0  0  0  0  0  0  0
    2.3123    2.2451    8.8307 C   0  0  0  0  0  0  0  0  0  0  0  0
    2.1447    1.6717   10.0655 C   0  0  0  0  0  0  0  0  0  0  0  0
    2.9423    0.5851   10.1893 O   0  0  0  0  0  0  0  0  0  0  0  0
    3.6117    0.4704    9.0138 C   0  0  0  0  0  0  0  0  0  0  0  0
    5.2556    1.7234    6.5704 O   0  0  0  0  0  0  0  0  0  0  0  0
    5.9307    0.6050    6.0946 C   0  0  0  0  0  0  0  0  0  0  0  0
    7.1301    0.5783    5.8482 O   0  0  0  0  0  0  0  0  0  0  0  0
    4.9362   -0.4823    6.0272 C   0  0  2  0  0  0  0  0  0  0  0  0
    5.0012   -1.9816    6.1286 C   0  0  0  0  0  0  0  0  0  0  0  0
    3.4533   -1.7781    5.9153 C   0  0  0  0  0  0  0  0  0  0  0  0
    2.5080   -2.4190    6.3723 O   0  0  0  0  0  0  0  0  0  0  0  0
    3.6835   -0.3885    5.1062 C   0  0  1  0  0  0  0  0  0  0  0  0
    3.6326   -0.7746    3.5525 C   0  0  1  0  0  0  0  0  0  0  0  0
    4.4861   -2.0337    3.1740 C   0  0  0  0  0  0  0  0  0  0  0  0
    4.4564    0.1376    2.8418 O   0  0  0  0  0  0  0  0  0  0  0  0
   -1.1443    0.1281    2.5757 H   0  0  0  0  0  0  0  0  0  0  0  0
   -0.9093    1.2973    1.3233 H   0  0  0  0  0  0  0  0  0  0  0  0
   -1.6316    1.7836    2.8380 H   0  0  0  0  0  0  0  0  0  0  0  0
    0.7723    2.4178    2.3823 H   0  0  0  0  0  0  0  0  0  0  0  0
    1.1382    0.3046    1.3091 H   0  0  0  0  0  0  0  0  0  0  0  0
    2.4609    1.1175    1.8500 H   0  0  0  0  0  0  0  0  0  0  0  0
    1.7181   -1.1994    1.0267 H   0  0  0  0  0  0  0  0  0  0  0  0
    0.2187   -1.6036    2.8744 H   0  0  0  0  0  0  0  0  0  0  0  0
    2.0893   -3.4846    4.2381 H   0  0  0  0  0  0  0  0  0  0  0  0
    1.3215   -3.5993    2.6844 H   0  0  0  0  0  0  0  0  0  0  0  0
    0.3553   -3.6749    4.1258 H   0  0  0  0  0  0  0  0  0  0  0  0
   -0.7285   -0.6561    4.4952 H   0  0  0  0  0  0  0  0  0  0  0  0
   -0.1824   -1.9585    5.4167 H   0  0  0  0  0  0  0  0  0  0  0  0
   -0.1788    0.2370    6.4408 H   0  0  0  0  0  0  0  0  0  0  0  0
    1.2221   -0.5727    6.7812 H   0  0  0  0  0  0  0  0  0  0  0  0
    1.3015    1.7970    6.3511 H   0  0  0  0  0  0  0  0  0  0  0  0
   -0.3877    1.7284    4.7794 H   0  0  0  0  0  0  0  0  0  0  0  0
   -1.8614    3.7002    3.3360 H   0  0  0  0  0  0  0  0  0  0  0  0
   -3.2231    2.9521    5.0771 H   0  0  0  0  0  0  0  0  0  0  0  0
   -0.4540    4.9442    6.8854 H   0  0  0  0  0  0  0  0  0  0  0  0
   -0.3138    5.1423    9.2622 H   0  0  0  0  0  0  0  0  0  0  0  0
   -1.8804    3.8945   10.7553 H   0  0  0  0  0  0  0  0  0  0  0  0
   -3.5969    2.4039    9.7512 H   0  0  0  0  0  0  0  0  0  0  0  0
   -3.7429    2.1506    7.2832 H   0  0  0  0  0  0  0  0  0  0  0  0
    4.5930    2.1697    4.2453 H   0  0  0  0  0  0  0  0  0  0  0  0
    3.3211    3.2262    4.7635 H   0  0  0  0  0  0  0  0  0  0  0  0
    3.0655    2.1905    3.4541 H   0  0  0  0  0  0  0  0  0  0  0  0
    3.5534    2.8085    6.6908 H   0  0  0  0  0  0  0  0  0  0  0  0
    1.8097    3.1430    8.4992 H   0  0  0  0  0  0  0  0  0  0  0  0
    1.5545    1.9013   10.9376 H   0  0  0  0  0  0  0  0  0  0  0  0
    4.3075   -0.3518    9.0095 H   0  0  0  0  0  0  0  0  0  0  0  0
    4.6589   -0.3512    7.0660 H   0  0  0  0  0  0  0  0  0  0  0  0
    5.5368   -2.5298    5.3583 H   0  0  0  0  0  0  0  0  0  0  0  0
    5.2548   -2.3339    7.1265 H   0  0  0  0  0  0  0  0  0  0  0  0
    4.1161   -2.9720    3.5843 H   0  0  0  0  0  0  0  0  0  0  0  0
    5.5257   -1.9115    3.4729 H   0  0  0  0  0  0  0  0  0  0  0  0
    4.5613   -2.1829    2.0985 H   0  0  0  0  0  0  0  0  0  0  0  0
    4.0683    0.9976    2.8939 H   0  0  0  0  0  0  0  0  0  0  0  0
  1  2  1  0
  1 42  1  0
  1 43  1  0
  1 44  1  0
  2 11  1  0
  2  3  1  0
  2 45  1  6
  3  4  1  0
  3 46  1  0
  3 47  1  0
  4 39  1  0
  4  5  1  6
  4  6  1  0
  5 48  1  0
  6  7  1  0
  6  8  1  0
  6 49  1  6
  7 50  1  0
  7 51  1  0
  7 52  1  0
  8  9  1  0
  8 53  1  0
  8 54  1  0
  9 10  1  0
  9 55  1  0
  9 56  1  0
 10 11  1  0
 10 23  1  0
 10 57  1  1
 11 12  1  0
 11 58  1  1
 12 13  1  0
 13 14  2  0
 13 15  1  0
 15 16  2  3
 15 59  1  0
 16 17  1  0
 16 60  1  0
 17 22  1  0
 17 18  2  0
 18 19  1  0
 18 61  1  0
 19 20  2  0
 19 62  1  0
 20 21  1  0
 20 63  1  0
 21 22  2  0
 21 64  1  0
 22 65  1  0
 23 38  1  0
 23 24  1  6
 23 25  1  0
 24 66  1  0
 24 67  1  0
 24 68  1  0
 25 26  1  0
 25 31  1  0
 25 69  1  6
 26 30  2  0
 26 27  1  0
 27 28  2  0
 27 70  1  0
 28 29  1  0
 28 71  1  0
 29 30  1  0
 30 72  1  0
 31 32  1  0
 32 33  2  0
 32 34  1  0
 34 38  1  0
 34 35  1  0
 34 73  1  1
 35 36  1  0
 35 74  1  0
 35 75  1  0
 36 37  2  0
 38 36  1  1
 38 39  1  0
 39 40  1  0
 39 41  1  6
 40 76  1  0
 40 77  1  0
 40 78  1  0
 41 79  1  0
M  END
>  <i_m_ct_stereo_status>  (189) 
1

>  <s_m_source_file>  (189) 
/var/tmp/pbs.5076255.sched01/tmppnbbzaq8/41bb87crku.sdf

>  <i_m_source_file_index>  (189) 
35

>  <i_lp_mmshare_version>  (189) 
48012

>  <i_f3d_flags>  (189) 
0

>  <s_epik_input>  (189) 
W2NIXTFbY0hdW2NIXVtjSF1bY0hdYzFcW0NIXT1bQ0hdXEMoPU8pT1tDQEhdMltDQEhdKFtDSDNdKVtDSDJdW0NAQF0oW09IXSkoW0NAQF0zKFtDSDNdKVtPSF0pW0NAQEhdKFtDSDNdKVtDSDJdW0NIMl1bQ0BIXTJbQ0BAXShbQ0BAXTM0NSkoW0NIM10pW0NAQEhdKGM2W2NIXVtjSF1vW2NIXTYpT0MoPU8pW0NAQEhdNFtDSDJdQzU9Tw==

>  <s_epik_cmdline>  (189) 
J2VwaWtfcHl0aG9uJywgJy1waHQnLCAnMi4wJywgJy1waCcsICc3LjAnLCAnLXRuJywgJzgnLCAnLW1hJywgJzIwMCcsICctaW1hZScsICc8aW5maWxlLm1hZT4nLCAnLW9tYWUnLCAnPG91dGZpbGUubWFlPic=

>  <r_lp_tautomer_probability>  (189) 
1

>  <r_epik_Ionization_Penalty>  (189) 
1.6568e-07

>  <r_epik_Ionization_Penalty_Charging>  (189) 
0

>  <r_epik_Ionization_Penalty_Neutral>  (189) 
1.6568e-07

>  <r_epik_State_Penalty>  (189) 
-0

>  <r_epik_Charging_Adjusted_Penalty>  (189) 
0

>  <i_epik_Tot_Q>  (189) 
0

>  <i_epik_Tot_abs_Q>  (189) 
0

>  <s_epik_Chemistry_Notes>  (189) 
This compound has an ester and may undergo hydrolysis at high or low pH.

>  <s_lp_Force_Field>  (189) 
OPLS3e

>  <r_lp_Energy>  (189) 
188.745

>  <b_lp_Chiralities_Consistent>  (189) 
1

>  <s_lp_Variant>  (189) 
57:0-2

>  <s_i_glide_gridfile>  (189) 
pfpi4k_grid

>  <i_i_glide_lignum>  (189) 
35

>  <i_i_glide_rotatable_bonds>  (189) 
7

>  <r_i_docking_score>  (189) 
-2.65678

>  <r_i_glide_ligand_efficiency>  (189) 
-0.0647995

>  <r_i_glide_ligand_efficiency_sa>  (189) 
-0.223443

>  <r_i_glide_ligand_efficiency_ln>  (189) 
-0.563645

>  <r_i_glide_gscore>  (189) 
-2.65678

>  <r_i_glide_lipo>  (189) 
-0.328907

>  <r_i_glide_hbond>  (189) 
0

>  <r_i_glide_metal>  (189) 
-0

>  <r_i_glide_rewards>  (189) 
-0.100802

>  <r_i_glide_evdw>  (189) 
-32.0451

>  <r_i_glide_ecoul>  (189) 
-5.06264

>  <r_i_glide_erotb>  (189) 
0.18051

>  <r_i_glide_esite>  (189) 
-0.0459292

>  <r_i_glide_emodel>  (189) 
-36.1992

>  <r_i_glide_energy>  (189) 
-37.1078

>  <r_i_glide_einternal>  (189) 
13.0648

>  <r_i_glide_intrahb_reward>  (189) 
-0

>  <i_i_glide_confnum>  (189) 
1

>  <i_i_glide_posenum>  (189) 
18

>  <r_i_glide_eff_state_penalty>  (189) 
0

>  <ligand_id>  (189) 
57

>  <original_smiles>  (189) 
CC1CC2(O)C(C)CCC(C1OC(=O)C=Cc1ccccc1)C1(C)C(c3ccoc3)OC(=O)C3CC(=O)C31C2(C)O

>  <smiles>  (189) 
[H]OC12C([H])([H])C([H])(C([H])([H])[H])C([H])(OC(=O)C([H])=C([H])c3c([H])c([H])c([H])c([H])c3[H])C([H])(C([H])([H])C([H])([H])C1([H])C([H])([H])[H])C1(C([H])([H])[H])C([H])(c3c([H])oc([H])c3[H])OC(=O)C3([H])C([H])([H])C(=O)C31C2(O[H])C([H])([H])[H]

$$$$
57:1:1
     RDKit          3D

 79 84  0  0  1  0  0  0  0  0999 V2000
    3.7751   -9.2290    1.0622 C   0  0  0  0  0  0  0  0  0  0  0  0
    3.9626   -8.6617    2.4839 C   0  0  2  0  0  0  0  0  0  0  0  0
    3.2395   -9.5114    3.5658 C   0  0  0  0  0  0  0  0  0  0  0  0
    1.8018   -9.1875    4.1217 C   0  0  2  0  0  0  0  0  0  0  0  0
    1.3837  -10.5355    4.3367 O   0  0  0  0  0  0  0  0  0  0  0  0
    0.7918   -8.7535    2.9751 C   0  0  1  0  0  0  0  0  0  0  0  0
   -0.7092   -9.0588    3.2423 C   0  0  0  0  0  0  0  0  0  0  0  0
    0.9859   -7.4688    2.0965 C   0  0  0  0  0  0  0  0  0  0  0  0
    1.6488   -6.1522    2.5847 C   0  0  0  0  0  0  0  0  0  0  0  0
    2.9994   -6.2261    3.3324 C   0  0  2  0  0  0  0  0  0  0  0  0
    3.9622   -7.1124    2.4914 C   0  0  1  0  0  0  0  0  0  0  0  0
    5.3219   -6.6774    2.6812 O   0  0  0  0  0  0  0  0  0  0  0  0
    6.0064   -5.8846    1.7984 C   0  0  0  0  0  0  0  0  0  0  0  0
    7.0636   -5.3811    2.1161 O   0  0  0  0  0  0  0  0  0  0  0  0
    5.4242   -5.8390    0.4339 C   0  0  0  0  0  0  0  0  0  0  0  0
    5.1788   -4.7991   -0.3598 C   0  0  0  0  0  0  0  0  0  0  0  0
    5.4696   -3.3651   -0.2108 C   0  0  0  0  0  0  0  0  0  0  0  0
    6.6143   -2.9125    0.4962 C   0  0  0  0  0  0  0  0  0  0  0  0
    6.8122   -1.5444    0.6795 C   0  0  0  0  0  0  0  0  0  0  0  0
    5.9317   -0.5843    0.1062 C   0  0  0  0  0  0  0  0  0  0  0  0
    4.8272   -1.0328   -0.6528 C   0  0  0  0  0  0  0  0  0  0  0  0
    4.5819   -2.4100   -0.7952 C   0  0  0  0  0  0  0  0  0  0  0  0
    3.0367   -6.2462    4.9195 C   0  0  1  0  0  0  0  0  0  0  0  0
    4.3869   -6.9377    5.3664 C   0  0  0  0  0  0  0  0  0  0  0  0
    3.4095   -4.8242    5.5977 C   0  0  1  0  0  0  0  0  0  0  0  0
    2.7157   -3.5325    5.1195 C   0  0  0  0  0  0  0  0  0  0  0  0
    1.3973   -3.3842    4.5317 C   0  0  0  0  0  0  0  0  0  0  0  0
    1.2548   -2.0788    4.2448 C   0  0  0  0  0  0  0  0  0  0  0  0
    2.3287   -1.3478    4.6503 O   0  0  0  0  0  0  0  0  0  0  0  0
    3.1904   -2.2677    5.1825 C   0  0  0  0  0  0  0  0  0  0  0  0
    3.4687   -4.9417    7.0658 O   0  0  0  0  0  0  0  0  0  0  0  0
    2.4896   -5.6284    7.7821 C   0  0  0  0  0  0  0  0  0  0  0  0
    2.5300   -5.8704    8.9760 O   0  0  0  0  0  0  0  0  0  0  0  0
    1.4240   -5.9373    6.8094 C   0  0  2  0  0  0  0  0  0  0  0  0
   -0.0276   -6.2658    6.9552 C   0  0  0  0  0  0  0  0  0  0  0  0
    0.1734   -6.5078    5.4147 C   0  0  0  0  0  0  0  0  0  0  0  0
   -0.5966   -6.2917    4.4838 O   0  0  0  0  0  0  0  0  0  0  0  0
    1.7189   -6.8983    5.6139 C   0  0  1  0  0  0  0  0  0  0  0  0
    1.7181   -8.5053    5.5974 C   0  0  1  0  0  0  0  0  0  0  0  0
    0.6163   -9.1719    6.4998 C   0  0  0  0  0  0  0  0  0  0  0  0
    2.8015   -8.9596    6.3833 O   0  0  0  0  0  0  0  0  0  0  0  0
    2.7384   -9.3158    0.7516 H   0  0  0  0  0  0  0  0  0  0  0  0
    4.1794  -10.2337    1.0503 H   0  0  0  0  0  0  0  0  0  0  0  0
    4.3159   -8.6850    0.2893 H   0  0  0  0  0  0  0  0  0  0  0  0
    5.0120   -8.9223    2.6532 H   0  0  0  0  0  0  0  0  0  0  0  0
    3.2142  -10.4912    3.0841 H   0  0  0  0  0  0  0  0  0  0  0  0
    3.9316   -9.7322    4.3770 H   0  0  0  0  0  0  0  0  0  0  0  0
    1.8770  -10.9089    5.0512 H   0  0  0  0  0  0  0  0  0  0  0  0
    0.9838   -9.5143    2.2127 H   0  0  0  0  0  0  0  0  0  0  0  0
   -1.1274   -8.5964    4.1304 H   0  0  0  0  0  0  0  0  0  0  0  0
   -0.8697  -10.1303    3.3643 H   0  0  0  0  0  0  0  0  0  0  0  0
   -1.3361   -8.7710    2.3991 H   0  0  0  0  0  0  0  0  0  0  0  0
    1.4542   -7.7535    1.1573 H   0  0  0  0  0  0  0  0  0  0  0  0
   -0.0010   -7.1474    1.7754 H   0  0  0  0  0  0  0  0  0  0  0  0
    1.8821   -5.6211    1.6508 H   0  0  0  0  0  0  0  0  0  0  0  0
    0.9485   -5.5011    3.0371 H   0  0  0  0  0  0  0  0  0  0  0  0
    3.4045   -5.2382    3.1251 H   0  0  0  0  0  0  0  0  0  0  0  0
    3.6300   -6.8822    1.4846 H   0  0  0  0  0  0  0  0  0  0  0  0
    5.1628   -6.8029    0.0115 H   0  0  0  0  0  0  0  0  0  0  0  0
    4.7018   -5.0473   -1.3076 H   0  0  0  0  0  0  0  0  0  0  0  0
    7.3431   -3.5969    0.8841 H   0  0  0  0  0  0  0  0  0  0  0  0
    7.6730   -1.1986    1.2363 H   0  0  0  0  0  0  0  0  0  0  0  0
    6.1687    0.4579    0.2235 H   0  0  0  0  0  0  0  0  0  0  0  0
    4.1872   -0.3073   -1.1390 H   0  0  0  0  0  0  0  0  0  0  0  0
    3.7120   -2.7431   -1.3601 H   0  0  0  0  0  0  0  0  0  0  0  0
    4.4421   -7.1063    6.4410 H   0  0  0  0  0  0  0  0  0  0  0  0
    5.2871   -6.3719    5.1178 H   0  0  0  0  0  0  0  0  0  0  0  0
    4.5821   -7.9019    4.9319 H   0  0  0  0  0  0  0  0  0  0  0  0
    4.4364   -4.5729    5.3059 H   0  0  0  0  0  0  0  0  0  0  0  0
    0.6472   -4.1270    4.3516 H   0  0  0  0  0  0  0  0  0  0  0  0
    0.4382   -1.5173    3.7857 H   0  0  0  0  0  0  0  0  0  0  0  0
    4.1052   -1.8075    5.5907 H   0  0  0  0  0  0  0  0  0  0  0  0
    1.2572   -4.9120    6.4713 H   0  0  0  0  0  0  0  0  0  0  0  0
   -0.3056   -7.1247    7.5525 H   0  0  0  0  0  0  0  0  0  0  0  0
   -0.6465   -5.4031    7.1953 H   0  0  0  0  0  0  0  0  0  0  0  0
   -0.4085   -9.0291    6.1524 H   0  0  0  0  0  0  0  0  0  0  0  0
    0.6883   -8.8300    7.5303 H   0  0  0  0  0  0  0  0  0  0  0  0
    0.7314  -10.2474    6.6024 H   0  0  0  0  0  0  0  0  0  0  0  0
    2.6620   -9.8728    6.5806 H   0  0  0  0  0  0  0  0  0  0  0  0
  1  2  1  0
  1 42  1  0
  1 43  1  0
  1 44  1  0
  2 11  1  0
  2  3  1  0
  2 45  1  1
  3  4  1  0
  3 46  1  0
  3 47  1  0
  4 39  1  0
  4  5  1  1
  4  6  1  0
  5 48  1  0
  6  7  1  0
  6  8  1  0
  6 49  1  6
  7 50  1  0
  7 51  1  0
  7 52  1  0
  8  9  1  0
  8 53  1  0
  8 54  1  0
  9 10  1  0
  9 55  1  0
  9 56  1  0
 10 11  1  0
 10 23  1  0
 10 57  1  6
 11 12  1  0
 11 58  1  6
 12 13  1  0
 13 14  2  0
 13 15  1  0
 15 16  2  3
 15 59  1  0
 16 17  1  0
 16 60  1  0
 17 22  1  0
 17 18  2  0
 18 19  1  0
 18 61  1  0
 19 20  2  0
 19 62  1  0
 20 21  1  0
 20 63  1  0
 21 22  2  0
 21 64  1  0
 22 65  1  0
 23 38  1  0
 23 24  1  6
 23 25  1  0
 24 66  1  0
 24 67  1  0
 24 68  1  0
 25 26  1  0
 25 31  1  0
 25 69  1  6
 26 30  2  0
 26 27  1  0
 27 28  2  0
 27 70  1  0
 28 29  1  0
 28 71  1  0
 29 30  1  0
 30 72  1  0
 31 32  1  0
 32 33  2  0
 32 34  1  0
 34 38  1  0
 34 35  1  0
 34 73  1  6
 35 36  1  0
 35 74  1  0
 35 75  1  0
 36 37  2  0
 38 36  1  6
 38 39  1  0
 39 40  1  0
 39 41  1  1
 40 76  1  0
 40 77  1  0
 40 78  1  0
 41 79  1  0
M  END
>  <i_m_ct_stereo_status>  (190) 
1

>  <s_m_source_file>  (190) 
/var/tmp/pbs.5076255.sched01/tmppnbbzaq8/41bb87crku.sdf

>  <i_m_source_file_index>  (190) 
35

>  <i_lp_mmshare_version>  (190) 
48012

>  <i_f3d_flags>  (190) 
0

>  <s_epik_input>  (190) 
W2NIXTFbY0hdW2NIXVtjSF1bY0hdYzFcW0NIXT1bQ0hdXEMoPU8pT1tDQEhdMltDQEhdKFtDSDNdKVtDSDJdW0NAQF0oW09IXSkoW0NAQF0zKFtDSDNdKVtPSF0pW0NAQEhdKFtDSDNdKVtDSDJdW0NIMl1bQ0BIXTJbQ0BAXShbQ0BAXTM0NSkoW0NIM10pW0NAQEhdKGM2W2NIXVtjSF1vW2NIXTYpT0MoPU8pW0NAQEhdNFtDSDJdQzU9Tw==

>  <s_epik_cmdline>  (190) 
J2VwaWtfcHl0aG9uJywgJy1waHQnLCAnMi4wJywgJy1waCcsICc3LjAnLCAnLXRuJywgJzgnLCAnLW1hJywgJzIwMCcsICctaW1hZScsICc8aW5maWxlLm1hZT4nLCAnLW9tYWUnLCAnPG91dGZpbGUubWFlPic=

>  <r_lp_tautomer_probability>  (190) 
1

>  <r_epik_Ionization_Penalty>  (190) 
1.6568e-07

>  <r_epik_Ionization_Penalty_Charging>  (190) 
0

>  <r_epik_Ionization_Penalty_Neutral>  (190) 
1.6568e-07

>  <r_epik_State_Penalty>  (190) 
-0

>  <r_epik_Charging_Adjusted_Penalty>  (190) 
0

>  <i_epik_Tot_Q>  (190) 
0

>  <i_epik_Tot_abs_Q>  (190) 
0

>  <s_epik_Chemistry_Notes>  (190) 
This compound has an ester and may undergo hydrolysis at high or low pH.

>  <s_lp_Force_Field>  (190) 
OPLS3e

>  <r_lp_Energy>  (190) 
188.745

>  <b_lp_Chiralities_Consistent>  (190) 
1

>  <s_lp_Variant>  (190) 
57:0-2

>  <s_i_glide_gridfile>  (190) 
pfpi4k_grid

>  <i_i_glide_lignum>  (190) 
35

>  <i_i_glide_rotatable_bonds>  (190) 
7

>  <r_i_docking_score>  (190) 
-2.46345

>  <r_i_glide_ligand_efficiency>  (190) 
-0.0600842

>  <r_i_glide_ligand_efficiency_sa>  (190) 
-0.207183

>  <r_i_glide_ligand_efficiency_ln>  (190) 
-0.522629

>  <r_i_glide_gscore>  (190) 
-2.46345

>  <r_i_glide_lipo>  (190) 
-0.332819

>  <r_i_glide_hbond>  (190) 
0

>  <r_i_glide_metal>  (190) 
-0

>  <r_i_glide_rewards>  (190) 
-0.0823103

>  <r_i_glide_evdw>  (190) 
-32.1289

>  <r_i_glide_ecoul>  (190) 
-4.07072

>  <r_i_glide_erotb>  (190) 
0.18051

>  <r_i_glide_esite>  (190) 
-0.0117802

>  <r_i_glide_emodel>  (190) 
-36.5289

>  <r_i_glide_energy>  (190) 
-36.1996

>  <r_i_glide_einternal>  (190) 
8.7509

>  <r_i_glide_intrahb_reward>  (190) 
-0

>  <i_i_glide_confnum>  (190) 
1

>  <i_i_glide_posenum>  (190) 
2

>  <r_i_glide_eff_state_penalty>  (190) 
0

>  <ligand_id>  (190) 
57

>  <original_smiles>  (190) 
CC1CC2(O)C(C)CCC(C1OC(=O)C=Cc1ccccc1)C1(C)C(c3ccoc3)OC(=O)C3CC(=O)C31C2(C)O

>  <smiles>  (190) 
[H]OC12C([H])([H])C([H])(C([H])([H])[H])C([H])(OC(=O)C([H])=C([H])c3c([H])c([H])c([H])c([H])c3[H])C([H])(C([H])([H])C([H])([H])C1([H])C([H])([H])[H])C1(C([H])([H])[H])C([H])(c3c([H])oc([H])c3[H])OC(=O)C3([H])C([H])([H])C(=O)C31C2(O[H])C([H])([H])[H]

$$$$
57:1:2
     RDKit          3D

 79 84  0  0  1  0  0  0  0  0999 V2000
    4.3751   -9.4405    1.4466 C   0  0  0  0  0  0  0  0  0  0  0  0
    4.3786   -8.6365    2.7586 C   0  0  2  0  0  0  0  0  0  0  0  0
    3.6052   -9.3550    3.8990 C   0  0  0  0  0  0  0  0  0  0  0  0
    2.1022   -9.0523    4.2662 C   0  0  2  0  0  0  0  0  0  0  0  0
    1.7716  -10.3706    4.6962 O   0  0  0  0  0  0  0  0  0  0  0  0
    1.1752   -8.8725    2.9920 C   0  0  1  0  0  0  0  0  0  0  0  0
   -0.3193   -9.2511    3.1845 C   0  0  0  0  0  0  0  0  0  0  0  0
    1.3532   -7.6970    1.9629 C   0  0  0  0  0  0  0  0  0  0  0  0
    1.9205   -6.2831    2.2787 C   0  0  0  0  0  0  0  0  0  0  0  0
    3.2026   -6.1656    3.1074 C   0  0  2  0  0  0  0  0  0  0  0  0
    4.2890   -7.1081    2.4980 C   0  0  1  0  0  0  0  0  0  0  0  0
    5.5992   -6.5565    2.7136 O   0  0  0  0  0  0  0  0  0  0  0  0
    6.3065   -5.8830    1.7596 C   0  0  0  0  0  0  0  0  0  0  0  0
    7.3967   -5.4159    1.9971 O   0  0  0  0  0  0  0  0  0  0  0  0
    5.6681   -5.8810    0.4298 C   0  0  0  0  0  0  0  0  0  0  0  0
    5.3580   -4.8289   -0.3535 C   0  0  0  0  0  0  0  0  0  0  0  0
    5.5986   -3.3985   -0.1838 C   0  0  0  0  0  0  0  0  0  0  0  0
    6.7154   -2.9010    0.5026 C   0  0  0  0  0  0  0  0  0  0  0  0
    6.8832   -1.5248    0.6750 C   0  0  0  0  0  0  0  0  0  0  0  0
    5.9531   -0.6221    0.1166 C   0  0  0  0  0  0  0  0  0  0  0  0
    4.8521   -1.0884   -0.6284 C   0  0  0  0  0  0  0  0  0  0  0  0
    4.6662   -2.4768   -0.7668 C   0  0  0  0  0  0  0  0  0  0  0  0
    3.0725   -5.9422    4.6710 C   0  0  1  0  0  0  0  0  0  0  0  0
    4.4179   -6.4367    5.3369 C   0  0  0  0  0  0  0  0  0  0  0  0
    3.2488   -4.3987    5.1288 C   0  0  1  0  0  0  0  0  0  0  0  0
    2.5435   -3.2616    4.3592 C   0  0  0  0  0  0  0  0  0  0  0  0
    1.2220   -2.7260    4.5573 C   0  0  0  0  0  0  0  0  0  0  0  0
    1.0684   -1.6976    3.6947 C   0  0  0  0  0  0  0  0  0  0  0  0
    2.1932   -1.5064    2.9541 O   0  0  0  0  0  0  0  0  0  0  0  0
    3.0694   -2.4648    3.3766 C   0  0  0  0  0  0  0  0  0  0  0  0
    3.2003   -4.2699    6.5943 O   0  0  0  0  0  0  0  0  0  0  0  0
    2.2477   -4.9184    7.3565 C   0  0  0  0  0  0  0  0  0  0  0  0
    2.2058   -4.9049    8.5769 O   0  0  0  0  0  0  0  0  0  0  0  0
    1.2970   -5.5280    6.3942 C   0  0  2  0  0  0  0  0  0  0  0  0
   -0.1654   -5.8729    6.4206 C   0  0  0  0  0  0  0  0  0  0  0  0
    0.1963   -6.3214    4.9537 C   0  0  0  0  0  0  0  0  0  0  0  0
   -0.4874   -6.2626    3.9325 O   0  0  0  0  0  0  0  0  0  0  0  0
    1.7421   -6.5875    5.3519 C   0  0  1  0  0  0  0  0  0  0  0  0
    1.8365   -8.1682    5.5897 C   0  0  1  0  0  0  0  0  0  0  0  0
    0.6964   -8.7491    6.4985 C   0  0  0  0  0  0  0  0  0  0  0  0
    2.8579   -8.4014    6.5258 O   0  0  0  0  0  0  0  0  0  0  0  0
    3.3813   -9.6420    1.0540 H   0  0  0  0  0  0  0  0  0  0  0  0
    4.8477  -10.4040    1.6230 H   0  0  0  0  0  0  0  0  0  0  0  0
    4.9502   -8.9569    0.6592 H   0  0  0  0  0  0  0  0  0  0  0  0
    5.4127   -8.7854    3.0741 H   0  0  0  0  0  0  0  0  0  0  0  0
    3.6994  -10.4033    3.5940 H   0  0  0  0  0  0  0  0  0  0  0  0
    4.2182   -9.3834    4.8008 H   0  0  0  0  0  0  0  0  0  0  0  0
    1.9476  -10.9768    3.9890 H   0  0  0  0  0  0  0  0  0  0  0  0
    1.4841   -9.7138    2.3647 H   0  0  0  0  0  0  0  0  0  0  0  0
   -0.8432   -8.6655    3.9323 H   0  0  0  0  0  0  0  0  0  0  0  0
   -0.4313  -10.2920    3.4862 H   0  0  0  0  0  0  0  0  0  0  0  0
   -0.8772   -9.1559    2.2523 H   0  0  0  0  0  0  0  0  0  0  0  0
    1.9532   -8.0805    1.1421 H   0  0  0  0  0  0  0  0  0  0  0  0
    0.3956   -7.5258    1.4726 H   0  0  0  0  0  0  0  0  0  0  0  0
    2.1737   -5.8847    1.2951 H   0  0  0  0  0  0  0  0  0  0  0  0
    1.1978   -5.5391    2.5869 H   0  0  0  0  0  0  0  0  0  0  0  0
    3.5708   -5.2006    2.7771 H   0  0  0  0  0  0  0  0  0  0  0  0
    4.0426   -7.0740    1.4372 H   0  0  0  0  0  0  0  0  0  0  0  0
    5.3978   -6.8548    0.0632 H   0  0  0  0  0  0  0  0  0  0  0  0
    4.8634   -5.0869   -1.2715 H   0  0  0  0  0  0  0  0  0  0  0  0
    7.4692   -3.5533    0.9085 H   0  0  0  0  0  0  0  0  0  0  0  0
    7.7272   -1.1239    1.2134 H   0  0  0  0  0  0  0  0  0  0  0  0
    6.1326    0.4419    0.2238 H   0  0  0  0  0  0  0  0  0  0  0  0
    4.1733   -0.3839   -1.1015 H   0  0  0  0  0  0  0  0  0  0  0  0
    3.8038   -2.8361   -1.3147 H   0  0  0  0  0  0  0  0  0  0  0  0
    4.3815   -6.4238    6.4292 H   0  0  0  0  0  0  0  0  0  0  0  0
    5.2997   -5.8507    5.0700 H   0  0  0  0  0  0  0  0  0  0  0  0
    4.7134   -7.4462    5.0932 H   0  0  0  0  0  0  0  0  0  0  0  0
    4.2724   -4.1276    4.8844 H   0  0  0  0  0  0  0  0  0  0  0  0
    0.4888   -3.0442    5.2817 H   0  0  0  0  0  0  0  0  0  0  0  0
    0.2609   -0.9965    3.4862 H   0  0  0  0  0  0  0  0  0  0  0  0
    4.0495   -2.4030    2.8947 H   0  0  0  0  0  0  0  0  0  0  0  0
    1.1423   -4.6268    5.9163 H   0  0  0  0  0  0  0  0  0  0  0  0
   -0.5378   -6.6508    7.0902 H   0  0  0  0  0  0  0  0  0  0  0  0
   -0.7812   -4.9810    6.4598 H   0  0  0  0  0  0  0  0  0  0  0  0
   -0.2973   -8.7303    6.0508 H   0  0  0  0  0  0  0  0  0  0  0  0
    0.6507   -8.2279    7.4520 H   0  0  0  0  0  0  0  0  0  0  0  0
    0.8622   -9.7872    6.7992 H   0  0  0  0  0  0  0  0  0  0  0  0
    2.8385   -9.3285    6.7228 H   0  0  0  0  0  0  0  0  0  0  0  0
  1  2  1  0
  1 42  1  0
  1 43  1  0
  1 44  1  0
  2 11  1  0
  2  3  1  0
  2 45  1  1
  3  4  1  0
  3 46  1  0
  3 47  1  0
  4 39  1  0
  4  5  1  1
  4  6  1  0
  5 48  1  0
  6  7  1  0
  6  8  1  0
  6 49  1  6
  7 50  1  0
  7 51  1  0
  7 52  1  0
  8  9  1  0
  8 53  1  0
  8 54  1  0
  9 10  1  0
  9 55  1  0
  9 56  1  0
 10 11  1  0
 10 23  1  0
 10 57  1  6
 11 12  1  0
 11 58  1  6
 12 13  1  0
 13 14  2  0
 13 15  1  0
 15 16  2  3
 15 59  1  0
 16 17  1  0
 16 60  1  0
 17 22  1  0
 17 18  2  0
 18 19  1  0
 18 61  1  0
 19 20  2  0
 19 62  1  0
 20 21  1  0
 20 63  1  0
 21 22  2  0
 21 64  1  0
 22 65  1  0
 23 38  1  0
 23 24  1  1
 23 25  1  0
 24 66  1  0
 24 67  1  0
 24 68  1  0
 25 26  1  0
 25 31  1  0
 25 69  1  6
 26 30  2  0
 26 27  1  0
 27 28  2  0
 27 70  1  0
 28 29  1  0
 28 71  1  0
 29 30  1  0
 30 72  1  0
 31 32  1  0
 32 33  2  0
 32 34  1  0
 34 38  1  0
 34 35  1  0
 34 73  1  6
 35 36  1  0
 35 74  1  0
 35 75  1  0
 36 37  2  0
 38 36  1  6
 38 39  1  0
 39 40  1  0
 39 41  1  1
 40 76  1  0
 40 77  1  0
 40 78  1  0
 41 79  1  0
M  END
>  <i_m_ct_stereo_status>  (191) 
1

>  <s_m_source_file>  (191) 
/var/tmp/pbs.5076255.sched01/tmppnbbzaq8/41bb87crku.sdf

>  <i_m_source_file_index>  (191) 
35

>  <i_lp_mmshare_version>  (191) 
48012

>  <i_f3d_flags>  (191) 
0

>  <s_epik_input>  (191) 
W2NIXTFbY0hdW2NIXVtjSF1bY0hdYzFcW0NIXT1bQ0hdXEMoPU8pT1tDQEhdMltDQEhdKFtDSDNdKVtDSDJdW0NAQF0oW09IXSkoW0NAQF0zKFtDSDNdKVtPSF0pW0NAQEhdKFtDSDNdKVtDSDJdW0NIMl1bQ0BIXTJbQ0BAXShbQ0BAXTM0NSkoW0NIM10pW0NAQEhdKGM2W2NIXVtjSF1vW2NIXTYpT0MoPU8pW0NAQEhdNFtDSDJdQzU9Tw==

>  <s_epik_cmdline>  (191) 
J2VwaWtfcHl0aG9uJywgJy1waHQnLCAnMi4wJywgJy1waCcsICc3LjAnLCAnLXRuJywgJzgnLCAnLW1hJywgJzIwMCcsICctaW1hZScsICc8aW5maWxlLm1hZT4nLCAnLW9tYWUnLCAnPG91dGZpbGUubWFlPic=

>  <r_lp_tautomer_probability>  (191) 
1

>  <r_epik_Ionization_Penalty>  (191) 
1.6568e-07

>  <r_epik_Ionization_Penalty_Charging>  (191) 
0

>  <r_epik_Ionization_Penalty_Neutral>  (191) 
1.6568e-07

>  <r_epik_State_Penalty>  (191) 
-0

>  <r_epik_Charging_Adjusted_Penalty>  (191) 
0

>  <i_epik_Tot_Q>  (191) 
0

>  <i_epik_Tot_abs_Q>  (191) 
0

>  <s_epik_Chemistry_Notes>  (191) 
This compound has an ester and may undergo hydrolysis at high or low pH.

>  <s_lp_Force_Field>  (191) 
OPLS3e

>  <r_lp_Energy>  (191) 
188.745

>  <b_lp_Chiralities_Consistent>  (191) 
1

>  <s_lp_Variant>  (191) 
57:0-2

>  <s_i_glide_gridfile>  (191) 
pfpi4k_grid

>  <i_i_glide_lignum>  (191) 
35

>  <i_i_glide_rotatable_bonds>  (191) 
7

>  <r_i_docking_score>  (191) 
-2.44675

>  <r_i_glide_ligand_efficiency>  (191) 
-0.0596767

>  <r_i_glide_ligand_efficiency_sa>  (191) 
-0.205778

>  <r_i_glide_ligand_efficiency_ln>  (191) 
-0.519085

>  <r_i_glide_gscore>  (191) 
-2.44675

>  <r_i_glide_lipo>  (191) 
-0.323807

>  <r_i_glide_hbond>  (191) 
-0.0718554

>  <r_i_glide_metal>  (191) 
-0

>  <r_i_glide_rewards>  (191) 
-0.0906829

>  <r_i_glide_evdw>  (191) 
-32.9425

>  <r_i_glide_ecoul>  (191) 
-3.18163

>  <r_i_glide_erotb>  (191) 
0.18051

>  <r_i_glide_esite>  (191) 
-0.0165423

>  <r_i_glide_emodel>  (191) 
-36.3436

>  <r_i_glide_energy>  (191) 
-36.1241

>  <r_i_glide_einternal>  (191) 
9.19273

>  <r_i_glide_intrahb_reward>  (191) 
-0

>  <i_i_glide_confnum>  (191) 
1

>  <i_i_glide_posenum>  (191) 
14

>  <r_i_glide_eff_state_penalty>  (191) 
0

>  <ligand_id>  (191) 
57

>  <original_smiles>  (191) 
CC1CC2(O)C(C)CCC(C1OC(=O)C=Cc1ccccc1)C1(C)C(c3ccoc3)OC(=O)C3CC(=O)C31C2(C)O

>  <smiles>  (191) 
[H]OC12C([H])([H])C([H])(C([H])([H])[H])C([H])(OC(=O)C([H])=C([H])c3c([H])c([H])c([H])c([H])c3[H])C([H])(C([H])([H])C([H])([H])C1([H])C([H])([H])[H])C1(C([H])([H])[H])C([H])(c3c([H])oc([H])c3[H])OC(=O)C3([H])C([H])([H])C(=O)C31C2(O[H])C([H])([H])[H]

$$$$
58:0:0
     RDKit          3D

 26 28  0  0  1  0  0  0  0  0999 V2000
    2.2069   -2.6429   -2.8751 N   0  0  0  0  0  0  0  0  0  0  0  0
    3.8205   -2.1120   -2.9113 S   0  0  0  0  0  0  0  0  0  0  0  0
    4.5609   -3.1087   -3.7017 O   0  0  0  0  0  0  0  0  0  0  0  0
    3.7981   -0.7003   -3.3181 O   0  0  0  0  0  0  0  0  0  0  0  0
    4.4057   -2.1552   -1.3278 O   0  0  0  0  0  0  0  0  0  0  0  0
    4.3114   -3.3550   -0.6900 C   0  0  0  0  0  0  0  0  0  0  0  0
    5.4693   -4.1398   -0.5032 C   0  0  0  0  0  0  0  0  0  0  0  0
    5.3793   -5.3980    0.1292 C   0  0  0  0  0  0  0  0  0  0  0  0
    4.1344   -5.8955    0.5865 C   0  0  0  0  0  0  0  0  0  0  0  0
    2.9922   -5.0719    0.3915 C   0  0  0  0  0  0  0  0  0  0  0  0
    3.0685   -3.8095   -0.2108 C   0  0  0  0  0  0  0  0  0  0  0  0
    1.8575   -5.7055    0.8636 O   0  0  0  0  0  0  0  0  0  0  0  0
    2.2526   -6.9191    1.4001 C   0  0  0  0  0  0  0  0  0  0  0  0
    1.4709   -7.9083    2.0155 C   0  0  0  0  0  0  0  0  0  0  0  0
    2.1440   -9.0584    2.4751 C   0  0  0  0  0  0  0  0  0  0  0  0
    3.5416   -9.1410    2.2745 C   0  0  0  0  0  0  0  0  0  0  0  0
    4.2954   -8.1864    1.6797 N   0  0  0  0  0  0  0  0  0  0  0  0
    3.6581   -7.0889    1.2535 C   0  0  0  0  0  0  0  0  0  0  0  0
    2.1371   -3.6141   -2.5579 H   0  0  0  0  0  0  0  0  0  0  0  0
    1.6612   -2.0320   -2.2552 H   0  0  0  0  0  0  0  0  0  0  0  0
    6.4347   -3.8026   -0.8682 H   0  0  0  0  0  0  0  0  0  0  0  0
    6.2564   -6.0117    0.2662 H   0  0  0  0  0  0  0  0  0  0  0  0
    2.1767   -3.2144   -0.3422 H   0  0  0  0  0  0  0  0  0  0  0  0
    0.4043   -7.7912    2.1300 H   0  0  0  0  0  0  0  0  0  0  0  0
    1.6108   -9.8615    2.9638 H   0  0  0  0  0  0  0  0  0  0  0  0
    4.0952  -10.0078    2.6147 H   0  0  0  0  0  0  0  0  0  0  0  0
  1  2  1  0
  1 19  1  0
  1 20  1  0
  2  3  2  0
  2  4  2  0
  2  5  1  0
  5  6  1  0
  6 11  2  0
  6  7  1  0
  7  8  2  0
  7 21  1  0
  8  9  1  0
  8 22  1  0
  9 18  1  0
  9 10  2  0
 10 11  1  0
 10 12  1  0
 11 23  1  0
 12 13  1  0
 13 18  2  0
 13 14  1  0
 14 15  2  0
 14 24  1  0
 15 16  1  0
 15 25  1  0
 16 17  2  0
 16 26  1  0
 17 18  1  0
M  END
>  <i_m_ct_stereo_status>  (192) 
1

>  <s_m_source_file>  (192) 
/var/tmp/pbs.5076255.sched01/tmppnbbzaq8/41bb87crku.sdf

>  <i_m_source_file_index>  (192) 
36

>  <i_lp_mmshare_version>  (192) 
48012

>  <i_f3d_flags>  (192) 
0

>  <s_epik_input>  (192) 
W05IMl1TKD1PKSg9TylPYyhbY0hdW2NIXTEpW2NIXWMoYzEyKW9jM2MybltjSF1bY0hdW2NIXTM=

>  <s_epik_cmdline>  (192) 
J2VwaWtfcHl0aG9uJywgJy1waHQnLCAnMi4wJywgJy1waCcsICc3LjAnLCAnLXRuJywgJzgnLCAnLW1hJywgJzIwMCcsICctaW1hZScsICc8aW5maWxlLm1hZT4nLCAnLW9tYWUnLCAnPG91dGZpbGUubWFlPic=

>  <r_epik_Ionization_Penalty>  (192) 
0.0577072

>  <r_epik_Ionization_Penalty_Charging>  (192) 
0

>  <r_epik_Ionization_Penalty_Neutral>  (192) 
0.0577072

>  <r_epik_State_Penalty>  (192) 
0.0498303

>  <r_epik_Charging_Adjusted_Penalty>  (192) 
0.0498303

>  <i_epik_Tot_Q>  (192) 
0

>  <i_epik_Tot_abs_Q>  (192) 
0

>  <s_lp_Force_Field>  (192) 
OPLS3e

>  <r_lp_Energy>  (192) 
16.6162

>  <b_lp_Chiralities_Consistent>  (192) 
1

>  <s_lp_Variant>  (192) 
58:0-1

>  <s_i_glide_gridfile>  (192) 
pfpi4k_grid

>  <i_i_glide_lignum>  (192) 
36

>  <i_i_glide_rotatable_bonds>  (192) 
2

>  <r_i_docking_score>  (192) 
-4.38797

>  <r_i_glide_ligand_efficiency>  (192) 
-0.243776

>  <r_i_glide_ligand_efficiency_sa>  (192) 
-0.638874

>  <r_i_glide_ligand_efficiency_ln>  (192) 
-1.12791

>  <r_i_glide_gscore>  (192) 
-4.38797

>  <r_i_glide_lipo>  (192) 
-0.357541

>  <r_i_glide_hbond>  (192) 
-0.231502

>  <r_i_glide_metal>  (192) 
-0

>  <r_i_glide_rewards>  (192) 
-1.68948

>  <r_i_glide_evdw>  (192) 
-26.1766

>  <r_i_glide_ecoul>  (192) 
-5.33747

>  <r_i_glide_erotb>  (192) 
0

>  <r_i_glide_esite>  (192) 
0

>  <r_i_glide_emodel>  (192) 
-40.0174

>  <r_i_glide_energy>  (192) 
-31.514

>  <r_i_glide_einternal>  (192) 
0.808823

>  <r_i_glide_intrahb_reward>  (192) 
-0

>  <i_i_glide_confnum>  (192) 
1

>  <i_i_glide_posenum>  (192) 
6

>  <r_i_glide_eff_state_penalty>  (192) 
0

>  <ligand_id>  (192) 
58

>  <original_smiles>  (192) 
NS(=O)(=O)Oc1ccc2c(c1)oc1cccnc12

>  <smiles>  (192) 
[H]c1nc2c(oc3c([H])c(OS(=O)(=O)N([H])[H])c([H])c([H])c32)c([H])c1[H]

$$$$
58:0:1
     RDKit          3D

 26 28  0  0  1  0  0  0  0  0999 V2000
    4.6013   -4.1021   -1.9916 N   0  0  0  0  0  0  0  0  0  0  0  0
    3.3322   -3.2461   -1.2568 S   0  0  0  0  0  0  0  0  0  0  0  0
    3.9925   -2.0814   -0.6106 O   0  0  0  0  0  0  0  0  0  0  0  0
    2.2786   -3.0747   -2.2553 O   0  0  0  0  0  0  0  0  0  0  0  0
    2.7391   -4.2605   -0.0313 O   0  0  0  0  0  0  0  0  0  0  0  0
    3.6250   -4.8684    0.8305 C   0  0  0  0  0  0  0  0  0  0  0  0
    3.1281   -5.8518    1.7387 C   0  0  0  0  0  0  0  0  0  0  0  0
    4.0182   -6.5563    2.5846 C   0  0  0  0  0  0  0  0  0  0  0  0
    5.4069   -6.3078    2.5187 C   0  0  0  0  0  0  0  0  0  0  0  0
    5.8586   -5.3145    1.6097 C   0  0  0  0  0  0  0  0  0  0  0  0
    5.0057   -4.5732    0.8023 C   0  0  0  0  0  0  0  0  0  0  0  0
    7.2242   -5.2116    1.6493 O   0  0  0  0  0  0  0  0  0  0  0  0
    7.6918   -6.0771    2.6052 C   0  0  0  0  0  0  0  0  0  0  0  0
    9.0176   -6.2726    3.0136 C   0  0  0  0  0  0  0  0  0  0  0  0
    9.2115   -7.2109    4.0442 C   0  0  0  0  0  0  0  0  0  0  0  0
    8.0736   -7.8680    4.5744 C   0  0  0  0  0  0  0  0  0  0  0  0
    6.8010   -7.6681    4.1679 N   0  0  0  0  0  0  0  0  0  0  0  0
    6.6125   -6.7869    3.1938 C   0  0  0  0  0  0  0  0  0  0  0  0
    5.3887   -4.3340   -1.3365 H   0  0  0  0  0  0  0  0  0  0  0  0
    4.2210   -4.9636   -2.3510 H   0  0  0  0  0  0  0  0  0  0  0  0
    2.0655   -6.0822    1.7935 H   0  0  0  0  0  0  0  0  0  0  0  0
    3.6561   -7.2768    3.2997 H   0  0  0  0  0  0  0  0  0  0  0  0
    5.4391   -3.8341    0.1322 H   0  0  0  0  0  0  0  0  0  0  0  0
    9.8472   -5.7358    2.5537 H   0  0  0  0  0  0  0  0  0  0  0  0
   10.1975   -7.4398    4.4086 H   0  0  0  0  0  0  0  0  0  0  0  0
    8.1676   -8.6074    5.3606 H   0  0  0  0  0  0  0  0  0  0  0  0
  1  2  1  0
  1 19  1  0
  1 20  1  0
  2  3  2  0
  2  4  2  0
  2  5  1  0
  5  6  1  0
  6 11  2  0
  6  7  1  0
  7  8  2  0
  7 21  1  0
  8  9  1  0
  8 22  1  0
  9 18  1  0
  9 10  2  0
 10 11  1  0
 10 12  1  0
 11 23  1  0
 12 13  1  0
 13 18  2  0
 13 14  1  0
 14 15  2  0
 14 24  1  0
 15 16  1  0
 15 25  1  0
 16 17  2  0
 16 26  1  0
 17 18  1  0
M  END
>  <i_m_ct_stereo_status>  (193) 
1

>  <s_m_source_file>  (193) 
/var/tmp/pbs.5076255.sched01/tmppnbbzaq8/41bb87crku.sdf

>  <i_m_source_file_index>  (193) 
36

>  <i_lp_mmshare_version>  (193) 
48012

>  <i_f3d_flags>  (193) 
0

>  <s_epik_input>  (193) 
W05IMl1TKD1PKSg9TylPYyhbY0hdW2NIXTEpW2NIXWMoYzEyKW9jM2MybltjSF1bY0hdW2NIXTM=

>  <s_epik_cmdline>  (193) 
J2VwaWtfcHl0aG9uJywgJy1waHQnLCAnMi4wJywgJy1waCcsICc3LjAnLCAnLXRuJywgJzgnLCAnLW1hJywgJzIwMCcsICctaW1hZScsICc8aW5maWxlLm1hZT4nLCAnLW9tYWUnLCAnPG91dGZpbGUubWFlPic=

>  <r_epik_Ionization_Penalty>  (193) 
0.0577072

>  <r_epik_Ionization_Penalty_Charging>  (193) 
0

>  <r_epik_Ionization_Penalty_Neutral>  (193) 
0.0577072

>  <r_epik_State_Penalty>  (193) 
0.0498303

>  <r_epik_Charging_Adjusted_Penalty>  (193) 
0.0498303

>  <i_epik_Tot_Q>  (193) 
0

>  <i_epik_Tot_abs_Q>  (193) 
0

>  <s_lp_Force_Field>  (193) 
OPLS3e

>  <r_lp_Energy>  (193) 
16.6162

>  <b_lp_Chiralities_Consistent>  (193) 
1

>  <s_lp_Variant>  (193) 
58:0-1

>  <s_i_glide_gridfile>  (193) 
pfpi4k_grid

>  <i_i_glide_lignum>  (193) 
36

>  <i_i_glide_rotatable_bonds>  (193) 
2

>  <r_i_docking_score>  (193) 
-3.52045

>  <r_i_glide_ligand_efficiency>  (193) 
-0.19558

>  <r_i_glide_ligand_efficiency_sa>  (193) 
-0.512566

>  <r_i_glide_ligand_efficiency_ln>  (193) 
-0.904913

>  <r_i_glide_gscore>  (193) 
-3.52045

>  <r_i_glide_lipo>  (193) 
-0.135806

>  <r_i_glide_hbond>  (193) 
-0.32

>  <r_i_glide_metal>  (193) 
-0

>  <r_i_glide_rewards>  (193) 
-1.6771

>  <r_i_glide_evdw>  (193) 
-15.2974

>  <r_i_glide_ecoul>  (193) 
-3.64003

>  <r_i_glide_erotb>  (193) 
0

>  <r_i_glide_esite>  (193) 
-0.0766684

>  <r_i_glide_emodel>  (193) 
-21.8851

>  <r_i_glide_energy>  (193) 
-18.9374

>  <r_i_glide_einternal>  (193) 
6.47501

>  <r_i_glide_intrahb_reward>  (193) 
-0

>  <i_i_glide_confnum>  (193) 
1

>  <i_i_glide_posenum>  (193) 
7

>  <r_i_glide_eff_state_penalty>  (193) 
0

>  <ligand_id>  (193) 
58

>  <original_smiles>  (193) 
NS(=O)(=O)Oc1ccc2c(c1)oc1cccnc12

>  <smiles>  (193) 
[H]c1nc2c(oc3c([H])c(OS(=O)(=O)N([H])[H])c([H])c([H])c32)c([H])c1[H]

$$$$
58:0:2
     RDKit          3D

 26 28  0  0  1  0  0  0  0  0999 V2000
    4.3879   -3.7407   -1.5574 N   0  0  0  0  0  0  0  0  0  0  0  0
    3.0604   -3.7331   -0.4868 S   0  0  0  0  0  0  0  0  0  0  0  0
    3.3688   -2.7434    0.5539 O   0  0  0  0  0  0  0  0  0  0  0  0
    1.8479   -3.6153   -1.3066 O   0  0  0  0  0  0  0  0  0  0  0  0
    2.9540   -5.2338    0.2675 O   0  0  0  0  0  0  0  0  0  0  0  0
    3.8695   -5.4692    1.2463 C   0  0  0  0  0  0  0  0  0  0  0  0
    3.4357   -5.4597    2.5906 C   0  0  0  0  0  0  0  0  0  0  0  0
    4.3610   -5.6743    3.6321 C   0  0  0  0  0  0  0  0  0  0  0  0
    5.7273   -5.9035    3.3560 C   0  0  0  0  0  0  0  0  0  0  0  0
    6.1313   -5.9041    1.9883 C   0  0  0  0  0  0  0  0  0  0  0  0
    5.2254   -5.7028    0.9387 C   0  0  0  0  0  0  0  0  0  0  0  0
    7.4906   -6.1318    1.9003 O   0  0  0  0  0  0  0  0  0  0  0  0
    7.9789   -6.3002    3.1837 C   0  0  0  0  0  0  0  0  0  0  0  0
    9.2852   -6.5655    3.6128 C   0  0  0  0  0  0  0  0  0  0  0  0
    9.4969   -6.6819    4.9998 C   0  0  0  0  0  0  0  0  0  0  0  0
    8.3859   -6.5289    5.8633 C   0  0  0  0  0  0  0  0  0  0  0  0
    7.1223   -6.2728    5.4549 N   0  0  0  0  0  0  0  0  0  0  0  0
    6.9257   -6.1661    4.1363 C   0  0  0  0  0  0  0  0  0  0  0  0
    5.2506   -3.9087   -1.0440 H   0  0  0  0  0  0  0  0  0  0  0  0
    4.2365   -4.4903   -2.2349 H   0  0  0  0  0  0  0  0  0  0  0  0
    2.3989   -5.2727    2.8324 H   0  0  0  0  0  0  0  0  0  0  0  0
    4.0373   -5.6705    4.6638 H   0  0  0  0  0  0  0  0  0  0  0  0
    5.5807   -5.7106   -0.0818 H   0  0  0  0  0  0  0  0  0  0  0  0
   10.0886   -6.6550    2.8999 H   0  0  0  0  0  0  0  0  0  0  0  0
   10.4814   -6.8803    5.3985 H   0  0  0  0  0  0  0  0  0  0  0  0
    8.5058   -6.6112    6.9317 H   0  0  0  0  0  0  0  0  0  0  0  0
  1  2  1  0
  1 19  1  0
  1 20  1  0
  2  3  2  0
  2  4  2  0
  2  5  1  0
  5  6  1  0
  6 11  2  0
  6  7  1  0
  7  8  2  0
  7 21  1  0
  8  9  1  0
  8 22  1  0
  9 18  1  0
  9 10  2  0
 10 11  1  0
 10 12  1  0
 11 23  1  0
 12 13  1  0
 13 18  2  0
 13 14  1  0
 14 15  2  0
 14 24  1  0
 15 16  1  0
 15 25  1  0
 16 17  2  0
 16 26  1  0
 17 18  1  0
M  END
>  <i_m_ct_stereo_status>  (194) 
1

>  <s_m_source_file>  (194) 
/var/tmp/pbs.5076255.sched01/tmppnbbzaq8/41bb87crku.sdf

>  <i_m_source_file_index>  (194) 
36

>  <i_lp_mmshare_version>  (194) 
48012

>  <i_f3d_flags>  (194) 
0

>  <s_epik_input>  (194) 
W05IMl1TKD1PKSg9TylPYyhbY0hdW2NIXTEpW2NIXWMoYzEyKW9jM2MybltjSF1bY0hdW2NIXTM=

>  <s_epik_cmdline>  (194) 
J2VwaWtfcHl0aG9uJywgJy1waHQnLCAnMi4wJywgJy1waCcsICc3LjAnLCAnLXRuJywgJzgnLCAnLW1hJywgJzIwMCcsICctaW1hZScsICc8aW5maWxlLm1hZT4nLCAnLW9tYWUnLCAnPG91dGZpbGUubWFlPic=

>  <r_epik_Ionization_Penalty>  (194) 
0.0577072

>  <r_epik_Ionization_Penalty_Charging>  (194) 
0

>  <r_epik_Ionization_Penalty_Neutral>  (194) 
0.0577072

>  <r_epik_State_Penalty>  (194) 
0.0498303

>  <r_epik_Charging_Adjusted_Penalty>  (194) 
0.0498303

>  <i_epik_Tot_Q>  (194) 
0

>  <i_epik_Tot_abs_Q>  (194) 
0

>  <s_lp_Force_Field>  (194) 
OPLS3e

>  <r_lp_Energy>  (194) 
16.6162

>  <b_lp_Chiralities_Consistent>  (194) 
1

>  <s_lp_Variant>  (194) 
58:0-1

>  <s_i_glide_gridfile>  (194) 
pfpi4k_grid

>  <i_i_glide_lignum>  (194) 
36

>  <i_i_glide_rotatable_bonds>  (194) 
2

>  <r_i_docking_score>  (194) 
-3.20163

>  <r_i_glide_ligand_efficiency>  (194) 
-0.177868

>  <r_i_glide_ligand_efficiency_sa>  (194) 
-0.466147

>  <r_i_glide_ligand_efficiency_ln>  (194) 
-0.822962

>  <r_i_glide_gscore>  (194) 
-3.20163

>  <r_i_glide_lipo>  (194) 
-0.201303

>  <r_i_glide_hbond>  (194) 
-0.230748

>  <r_i_glide_metal>  (194) 
-0

>  <r_i_glide_rewards>  (194) 
-1.60733

>  <r_i_glide_evdw>  (194) 
-15.2477

>  <r_i_glide_ecoul>  (194) 
-2.122

>  <r_i_glide_erotb>  (194) 
0

>  <r_i_glide_esite>  (194) 
-0.0815593

>  <r_i_glide_emodel>  (194) 
-23.4907

>  <r_i_glide_energy>  (194) 
-17.3697

>  <r_i_glide_einternal>  (194) 
0.869578

>  <r_i_glide_intrahb_reward>  (194) 
-0

>  <i_i_glide_confnum>  (194) 
1

>  <i_i_glide_posenum>  (194) 
1

>  <r_i_glide_eff_state_penalty>  (194) 
0

>  <ligand_id>  (194) 
58

>  <original_smiles>  (194) 
NS(=O)(=O)Oc1ccc2c(c1)oc1cccnc12

>  <smiles>  (194) 
[H]c1nc2c(oc3c([H])c(OS(=O)(=O)N([H])[H])c([H])c([H])c32)c([H])c1[H]

$$$$
58:1:0
     RDKit          3D

 25 27  0  0  1  0  0  0  0  0999 V2000
   -4.6552   -6.0004   -5.1146 N   0  0  0  0  0  0  0  0  0  0  0  0
   -6.2481   -5.8391   -5.0266 S   0  0  0  0  0  0  0  0  0  0  0  0
   -6.6002   -5.0566   -3.8374 O   0  0  0  0  0  0  0  0  0  0  0  0
   -6.8533   -5.4582   -6.3152 O   0  0  0  0  0  0  0  0  0  0  0  0
   -6.8589   -7.3614   -4.7198 O   0  0  0  0  0  0  0  0  0  0  0  0
   -6.5138   -8.3941   -5.5553 C   0  0  0  0  0  0  0  0  0  0  0  0
   -5.2511   -8.9921   -5.4174 C   0  0  0  0  0  0  0  0  0  0  0  0
   -4.8452   -9.9981   -6.2960 C   0  0  0  0  0  0  0  0  0  0  0  0
   -5.7265  -10.4831   -7.2766 C   0  0  0  0  0  0  0  0  0  0  0  0
   -7.0166   -9.8982   -7.3647 C   0  0  0  0  0  0  0  0  0  0  0  0
   -7.4247   -8.8569   -6.5232 C   0  0  0  0  0  0  0  0  0  0  0  0
   -7.7452  -10.5086   -8.3626 O   0  0  0  0  0  0  0  0  0  0  0  0
   -6.9478  -11.4792   -8.9268 C   0  0  0  0  0  0  0  0  0  0  0  0
   -7.2546  -12.3582   -9.9691 C   0  0  0  0  0  0  0  0  0  0  0  0
   -6.2325  -13.2433  -10.3706 C   0  0  0  0  0  0  0  0  0  0  0  0
   -4.9942  -13.1868   -9.6910 C   0  0  0  0  0  0  0  0  0  0  0  0
   -4.6986  -12.3380   -8.6848 N   0  0  0  0  0  0  0  0  0  0  0  0
   -5.6710  -11.5010   -8.3069 C   0  0  0  0  0  0  0  0  0  0  0  0
   -4.4209   -6.6138   -5.8940 H   0  0  0  0  0  0  0  0  0  0  0  0
   -4.5611   -8.6399   -4.6610 H   0  0  0  0  0  0  0  0  0  0  0  0
   -3.8490  -10.3969   -6.2268 H   0  0  0  0  0  0  0  0  0  0  0  0
   -8.4146   -8.4286   -6.6343 H   0  0  0  0  0  0  0  0  0  0  0  0
   -8.2229  -12.3338  -10.4521 H   0  0  0  0  0  0  0  0  0  0  0  0
   -6.3877  -13.9368  -11.1762 H   0  0  0  0  0  0  0  0  0  0  0  0
   -4.1798  -13.8509   -9.9721 H   0  0  0  0  0  0  0  0  0  0  0  0
  1  2  1  0
  1 19  1  0
  2  3  2  0
  2  4  2  0
  2  5  1  0
  5  6  1  0
  6 11  2  0
  6  7  1  0
  7  8  2  0
  7 20  1  0
  8  9  1  0
  8 21  1  0
  9 18  1  0
  9 10  2  0
 10 11  1  0
 10 12  1  0
 11 22  1  0
 12 13  1  0
 13 18  2  0
 13 14  1  0
 14 15  2  0
 14 23  1  0
 15 16  1  0
 15 24  1  0
 16 17  2  0
 16 25  1  0
 17 18  1  0
M  CHG  1   1  -1
M  END
>  <i_m_ct_stereo_status>  (195) 
1

>  <s_m_source_file>  (195) 
/var/tmp/pbs.5076255.sched01/tmppnbbzaq8/41bb87crku.sdf

>  <i_m_source_file_index>  (195) 
37

>  <i_lp_mmshare_version>  (195) 
48012

>  <i_f3d_flags>  (195) 
0

>  <s_epik_input>  (195) 
W05IMl1TKD1PKSg9TylPYyhbY0hdW2NIXTEpW2NIXWMoYzEyKW9jM2MybltjSF1bY0hdW2NIXTM=

>  <s_epik_cmdline>  (195) 
J2VwaWtfcHl0aG9uJywgJy1waHQnLCAnMi4wJywgJy1waCcsICc3LjAnLCAnLXRuJywgJzgnLCAnLW1hJywgJzIwMCcsICctaW1hZScsICc8aW5maWxlLm1hZT4nLCAnLW9tYWUnLCAnPG91dGZpbGUubWFlPic=

>  <r_epik_Ionization_Penalty>  (195) 
1.40885

>  <r_epik_Ionization_Penalty_Charging>  (195) 
1.40878

>  <r_epik_Ionization_Penalty_Neutral>  (195) 
7.6148e-05

>  <r_epik_State_Penalty>  (195) 
1.49156

>  <r_epik_Charging_Adjusted_Penalty>  (195) 
2.90034

>  <i_epik_Tot_Q>  (195) 
-1

>  <i_epik_Tot_abs_Q>  (195) 
1

>  <s_lp_Force_Field>  (195) 
OPLS3e

>  <r_lp_Energy>  (195) 
19.6211

>  <b_lp_Chiralities_Consistent>  (195) 
1

>  <s_lp_Variant>  (195) 
58:0-2

>  <s_i_glide_gridfile>  (195) 
pfpi4k_grid

>  <i_i_glide_lignum>  (195) 
37

>  <i_i_glide_rotatable_bonds>  (195) 
2

>  <r_i_docking_score>  (195) 
-4.92308

>  <r_i_glide_ligand_efficiency>  (195) 
-0.273504

>  <r_i_glide_ligand_efficiency_sa>  (195) 
-0.716784

>  <r_i_glide_ligand_efficiency_ln>  (195) 
-1.26545

>  <r_i_glide_gscore>  (195) 
-4.92308

>  <r_i_glide_lipo>  (195) 
-1.08343

>  <r_i_glide_hbond>  (195) 
-0.16

>  <r_i_glide_metal>  (195) 
-0

>  <r_i_glide_rewards>  (195) 
-2.23424

>  <r_i_glide_evdw>  (195) 
-17.3188

>  <r_i_glide_ecoul>  (195) 
-3.86311

>  <r_i_glide_erotb>  (195) 
0

>  <r_i_glide_esite>  (195) 
0

>  <r_i_glide_emodel>  (195) 
-26.8276

>  <r_i_glide_energy>  (195) 
-21.1819

>  <r_i_glide_einternal>  (195) 
2.36411

>  <r_i_glide_intrahb_reward>  (195) 
-0

>  <i_i_glide_confnum>  (195) 
2

>  <i_i_glide_posenum>  (195) 
7

>  <r_i_glide_eff_state_penalty>  (195) 
0

>  <ligand_id>  (195) 
58

>  <original_smiles>  (195) 
NS(=O)(=O)Oc1ccc2c(c1)oc1cccnc12

>  <smiles>  (195) 
[H][N-]S(=O)(=O)Oc1c([H])c([H])c2c(oc3c([H])c([H])c([H])nc32)c1[H]

$$$$
58:1:1
     RDKit          3D

 25 27  0  0  1  0  0  0  0  0999 V2000
   -4.9784   -5.6978   -4.7789 N   0  0  0  0  0  0  0  0  0  0  0  0
   -5.9925   -4.4468   -4.9466 S   0  0  0  0  0  0  0  0  0  0  0  0
   -5.7787   -3.4639   -3.9002 O   0  0  0  0  0  0  0  0  0  0  0  0
   -6.0240   -3.8664   -6.2927 O   0  0  0  0  0  0  0  0  0  0  0  0
   -7.5589   -5.0190   -4.7075 O   0  0  0  0  0  0  0  0  0  0  0  0
   -8.0628   -5.7262   -5.7583 C   0  0  0  0  0  0  0  0  0  0  0  0
   -7.5069   -6.9755   -6.1421 C   0  0  0  0  0  0  0  0  0  0  0  0
   -8.0216   -7.6898   -7.2351 C   0  0  0  0  0  0  0  0  0  0  0  0
   -9.1256   -7.1785   -7.9361 C   0  0  0  0  0  0  0  0  0  0  0  0
   -9.6624   -5.9189   -7.5339 C   0  0  0  0  0  0  0  0  0  0  0  0
   -9.1397   -5.1774   -6.4661 C   0  0  0  0  0  0  0  0  0  0  0  0
  -10.7442   -5.5960   -8.3164 O   0  0  0  0  0  0  0  0  0  0  0  0
  -10.9146   -6.6196   -9.2274 C   0  0  0  0  0  0  0  0  0  0  0  0
  -11.8725   -6.7365  -10.2348 C   0  0  0  0  0  0  0  0  0  0  0  0
  -11.8008   -7.8896  -11.0359 C   0  0  0  0  0  0  0  0  0  0  0  0
  -10.7923   -8.8428  -10.7723 C   0  0  0  0  0  0  0  0  0  0  0  0
   -9.8663   -8.7324   -9.7949 N   0  0  0  0  0  0  0  0  0  0  0  0
   -9.9350   -7.6328   -9.0393 C   0  0  0  0  0  0  0  0  0  0  0  0
   -5.0307   -6.2332   -5.6473 H   0  0  0  0  0  0  0  0  0  0  0  0
   -6.7095   -7.4499   -5.5937 H   0  0  0  0  0  0  0  0  0  0  0  0
   -7.6022   -8.6492   -7.5100 H   0  0  0  0  0  0  0  0  0  0  0  0
   -9.5893   -4.2478   -6.1569 H   0  0  0  0  0  0  0  0  0  0  0  0
  -12.6223   -5.9734  -10.3798 H   0  0  0  0  0  0  0  0  0  0  0  0
  -12.5091   -8.0470  -11.8286 H   0  0  0  0  0  0  0  0  0  0  0  0
  -10.7180   -9.7370  -11.3702 H   0  0  0  0  0  0  0  0  0  0  0  0
  1  2  1  0
  1 19  1  0
  2  3  2  0
  2  4  2  0
  2  5  1  0
  5  6  1  0
  6 11  2  0
  6  7  1  0
  7  8  2  0
  7 20  1  0
  8  9  1  0
  8 21  1  0
  9 18  1  0
  9 10  2  0
 10 11  1  0
 10 12  1  0
 11 22  1  0
 12 13  1  0
 13 18  2  0
 13 14  1  0
 14 15  2  0
 14 23  1  0
 15 16  1  0
 15 24  1  0
 16 17  2  0
 16 25  1  0
 17 18  1  0
M  CHG  1   1  -1
M  END
>  <i_m_ct_stereo_status>  (196) 
1

>  <s_m_source_file>  (196) 
/var/tmp/pbs.5076255.sched01/tmppnbbzaq8/41bb87crku.sdf

>  <i_m_source_file_index>  (196) 
37

>  <i_lp_mmshare_version>  (196) 
48012

>  <i_f3d_flags>  (196) 
0

>  <s_epik_input>  (196) 
W05IMl1TKD1PKSg9TylPYyhbY0hdW2NIXTEpW2NIXWMoYzEyKW9jM2MybltjSF1bY0hdW2NIXTM=

>  <s_epik_cmdline>  (196) 
J2VwaWtfcHl0aG9uJywgJy1waHQnLCAnMi4wJywgJy1waCcsICc3LjAnLCAnLXRuJywgJzgnLCAnLW1hJywgJzIwMCcsICctaW1hZScsICc8aW5maWxlLm1hZT4nLCAnLW9tYWUnLCAnPG91dGZpbGUubWFlPic=

>  <r_epik_Ionization_Penalty>  (196) 
1.40885

>  <r_epik_Ionization_Penalty_Charging>  (196) 
1.40878

>  <r_epik_Ionization_Penalty_Neutral>  (196) 
7.6148e-05

>  <r_epik_State_Penalty>  (196) 
1.49156

>  <r_epik_Charging_Adjusted_Penalty>  (196) 
2.90034

>  <i_epik_Tot_Q>  (196) 
-1

>  <i_epik_Tot_abs_Q>  (196) 
1

>  <s_lp_Force_Field>  (196) 
OPLS3e

>  <r_lp_Energy>  (196) 
19.6211

>  <b_lp_Chiralities_Consistent>  (196) 
1

>  <s_lp_Variant>  (196) 
58:0-2

>  <s_i_glide_gridfile>  (196) 
pfpi4k_grid

>  <i_i_glide_lignum>  (196) 
37

>  <i_i_glide_rotatable_bonds>  (196) 
2

>  <r_i_docking_score>  (196) 
-4.11152

>  <r_i_glide_ligand_efficiency>  (196) 
-0.228418

>  <r_i_glide_ligand_efficiency_sa>  (196) 
-0.598624

>  <r_i_glide_ligand_efficiency_ln>  (196) 
-1.05685

>  <r_i_glide_gscore>  (196) 
-4.11152

>  <r_i_glide_lipo>  (196) 
-1.0617

>  <r_i_glide_hbond>  (196) 
-0.16

>  <r_i_glide_metal>  (196) 
-0

>  <r_i_glide_rewards>  (196) 
-2.40587

>  <r_i_glide_evdw>  (196) 
-5.12049

>  <r_i_glide_ecoul>  (196) 
-1.49869

>  <r_i_glide_erotb>  (196) 
0

>  <r_i_glide_esite>  (196) 
-0.00312732

>  <r_i_glide_emodel>  (196) 
-11.5975

>  <r_i_glide_energy>  (196) 
-6.61918

>  <r_i_glide_einternal>  (196) 
1.58109

>  <r_i_glide_intrahb_reward>  (196) 
-0

>  <i_i_glide_confnum>  (196) 
2

>  <i_i_glide_posenum>  (196) 
1

>  <r_i_glide_eff_state_penalty>  (196) 
0

>  <ligand_id>  (196) 
58

>  <original_smiles>  (196) 
NS(=O)(=O)Oc1ccc2c(c1)oc1cccnc12

>  <smiles>  (196) 
[H][N-]S(=O)(=O)Oc1c([H])c([H])c2c(oc3c([H])c([H])c([H])nc32)c1[H]

$$$$
59:0:0
     RDKit          3D

 76 84  0  0  1  0  0  0  0  0999 V2000
    8.0783   -6.7795    4.5336 O   0  0  0  0  0  0  0  0  0  0  0  0
    6.7864   -7.1201    4.4964 C   0  0  0  0  0  0  0  0  0  0  0  0
    6.0718   -6.9419    3.3257 C   0  0  0  0  0  0  0  0  0  0  0  0
    6.4208   -5.8131    2.6525 O   0  0  0  0  0  0  0  0  0  0  0  0
    5.4046   -4.9347    3.0842 C   0  0  2  0  0  0  0  0  0  0  0  0
    4.5810   -5.8666    4.0152 C   0  0  0  0  0  0  0  0  0  0  0  0
    4.0446   -5.8520    5.2115 C   0  0  0  0  0  0  0  0  0  0  0  0
    4.8897   -6.6178    6.1476 C   0  0  0  0  0  0  0  0  0  0  0  0
    6.0993   -7.1907    5.8159 C   0  0  0  0  0  0  0  0  0  0  0  0
    2.7160   -6.3031    5.0715 O   0  0  0  0  0  0  0  0  0  0  0  0
    2.1715   -6.7570    3.7781 C   0  0  2  0  0  0  0  0  0  0  0  0
    1.7658   -8.1249    3.9714 N   0  0  0  0  0  0  0  0  0  0  0  0
    0.9829   -8.7372    2.8996 C   0  0  0  0  0  0  0  0  0  0  0  0
   -0.3866   -9.1744    3.3840 C   0  0  0  0  0  0  0  0  0  0  0  0
   -1.5631   -9.0807    2.4304 C   0  0  0  0  0  0  0  0  0  0  0  0
   -1.4866   -8.1657    3.6244 C   0  0  0  0  0  0  0  0  0  0  0  0
    2.8676   -8.9339    4.4678 C   0  0  0  0  0  0  0  0  0  0  0  0
    4.2092   -8.6050    3.7808 C   0  0  0  0  0  0  0  0  0  0  0  0
    4.5237   -7.1238    3.2969 C   0  0  2  0  0  0  0  0  0  0  0  0
    3.2372   -6.4759    2.5925 C   0  0  1  0  0  0  0  0  0  0  0  0
    3.1709   -7.2108    1.2402 C   0  0  0  0  0  0  0  0  0  0  0  0
    4.4524   -6.8268    0.4359 C   0  0  0  0  0  0  0  0  0  0  0  0
    4.9535   -5.3992    0.5381 N   0  0  1  0  0  0  0  0  0  0  0  0
    4.7967   -4.6870   -0.7700 C   0  0  0  0  0  0  0  0  0  0  0  0
    5.7275   -3.4937   -0.9973 C   0  0  0  0  0  0  0  0  0  0  0  0
    5.1762   -2.0744   -0.7581 C   0  0  0  0  0  0  0  0  0  0  0  0
    4.8361   -1.9985   -2.2474 C   0  0  0  0  0  0  0  0  0  0  0  0
    5.9161   -3.0589   -2.4681 C   0  0  0  0  0  0  0  0  0  0  0  0
    4.5643   -4.6028    1.7776 C   0  0  1  0  0  0  0  0  0  0  0  0
    3.1096   -4.9025    2.1647 C   0  0  1  0  0  0  0  0  0  0  0  0
    2.2377   -4.6712    1.0616 O   0  0  0  0  0  0  0  0  0  0  0  0
    2.4584   -3.8599    3.1582 C   0  0  0  0  0  0  0  0  0  0  0  0
    2.7827   -2.3898    2.9024 C   0  0  0  0  0  0  0  0  0  0  0  0
    1.9200   -1.5762    2.1370 C   0  0  0  0  0  0  0  0  0  0  0  0
    2.2426   -0.2203    1.9543 C   0  0  0  0  0  0  0  0  0  0  0  0
    3.4225    0.2733    2.5357 C   0  0  0  0  0  0  0  0  0  0  0  0
    4.2537   -0.4884    3.2764 N   0  0  0  0  0  0  0  0  0  0  0  0
    3.9226   -1.7784    3.4687 C   0  0  0  0  0  0  0  0  0  0  0  0
    8.3229   -6.5057    3.6628 H   0  0  0  0  0  0  0  0  0  0  0  0
    5.7899   -4.0666    3.6173 H   0  0  0  0  0  0  0  0  0  0  0  0
    4.5418   -6.7549    7.1609 H   0  0  0  0  0  0  0  0  0  0  0  0
    6.6139   -7.7224    6.5963 H   0  0  0  0  0  0  0  0  0  0  0  0
    1.2708   -6.1751    3.6033 H   0  0  0  0  0  0  0  0  0  0  0  0
    0.8266   -8.0260    2.0924 H   0  0  0  0  0  0  0  0  0  0  0  0
    1.4977   -9.6052    2.4829 H   0  0  0  0  0  0  0  0  0  0  0  0
   -0.3736  -10.0435    4.0397 H   0  0  0  0  0  0  0  0  0  0  0  0
   -1.3797   -8.6507    1.4458 H   0  0  0  0  0  0  0  0  0  0  0  0
   -2.3222   -9.8586    2.4611 H   0  0  0  0  0  0  0  0  0  0  0  0
   -2.1750   -8.3640    4.4442 H   0  0  0  0  0  0  0  0  0  0  0  0
   -1.2336   -7.1190    3.4649 H   0  0  0  0  0  0  0  0  0  0  0  0
    2.9705   -8.7193    5.5313 H   0  0  0  0  0  0  0  0  0  0  0  0
    2.6367   -9.9998    4.4078 H   0  0  0  0  0  0  0  0  0  0  0  0
    4.9958   -9.0238    4.4021 H   0  0  0  0  0  0  0  0  0  0  0  0
    4.2614   -9.2313    2.8931 H   0  0  0  0  0  0  0  0  0  0  0  0
    3.1377   -8.2942    1.3337 H   0  0  0  0  0  0  0  0  0  0  0  0
    2.2632   -6.9781    0.6838 H   0  0  0  0  0  0  0  0  0  0  0  0
    5.2729   -7.4695    0.7589 H   0  0  0  0  0  0  0  0  0  0  0  0
    4.2868   -7.1201   -0.6011 H   0  0  0  0  0  0  0  0  0  0  0  0
    5.0132   -5.3884   -1.5747 H   0  0  0  0  0  0  0  0  0  0  0  0
    3.7627   -4.3894   -0.9346 H   0  0  0  0  0  0  0  0  0  0  0  0
    6.7125   -3.6322   -0.5420 H   0  0  0  0  0  0  0  0  0  0  0  0
    4.3046   -2.0194   -0.1024 H   0  0  0  0  0  0  0  0  0  0  0  0
    5.9513   -1.3637   -0.4622 H   0  0  0  0  0  0  0  0  0  0  0  0
    3.8341   -2.3688   -2.4697 H   0  0  0  0  0  0  0  0  0  0  0  0
    5.0224   -1.0348   -2.7161 H   0  0  0  0  0  0  0  0  0  0  0  0
    6.9054   -2.6447   -2.6639 H   0  0  0  0  0  0  0  0  0  0  0  0
    5.6583   -3.8103   -3.2173 H   0  0  0  0  0  0  0  0  0  0  0  0
    4.7175   -3.5537    1.5481 H   0  0  0  0  0  0  0  0  0  0  0  0
    2.6204   -5.0438    0.2834 H   0  0  0  0  0  0  0  0  0  0  0  0
    1.3723   -3.9751    3.1630 H   0  0  0  0  0  0  0  0  0  0  0  0
    2.7350   -4.0061    4.1935 H   0  0  0  0  0  0  0  0  0  0  0  0
    1.0178   -1.9721    1.6983 H   0  0  0  0  0  0  0  0  0  0  0  0
    1.6044    0.4244    1.3649 H   0  0  0  0  0  0  0  0  0  0  0  0
    3.7078    1.3053    2.4012 H   0  0  0  0  0  0  0  0  0  0  0  0
    4.5959   -2.3392    4.0955 H   0  0  0  0  0  0  0  0  0  0  0  0
    5.9533   -5.5030    0.6339 H   0  0  0  0  0  0  0  0  0  0  0  0
  1  2  1  0
  1 39  1  0
  2  9  1  0
  2  3  2  0
  3 19  1  0
  3  4  1  0
  4  5  1  0
  5 29  1  0
  5  6  1  0
  5 40  1  1
  6 19  1  0
  6  7  2  0
  7  8  1  0
  7 10  1  0
  8  9  2  0
  8 41  1  0
  9 42  1  0
 10 11  1  0
 11 20  1  0
 11 12  1  0
 11 43  1  6
 12 13  1  0
 12 17  1  0
 13 14  1  0
 13 44  1  0
 13 45  1  0
 14 16  1  0
 14 15  1  0
 14 46  1  0
 15 16  1  0
 15 47  1  0
 15 48  1  0
 16 49  1  0
 16 50  1  0
 17 18  1  0
 17 51  1  0
 17 52  1  0
 19 18  1  1
 18 53  1  0
 18 54  1  0
 19 20  1  0
 20 30  1  0
 20 21  1  6
 21 22  1  0
 21 55  1  0
 21 56  1  0
 22 23  1  0
 22 57  1  0
 22 58  1  0
 23 24  1  0
 23 29  1  0
 23 76  1  1
 24 25  1  0
 24 59  1  0
 24 60  1  0
 25 28  1  0
 25 26  1  0
 25 61  1  0
 26 27  1  0
 26 62  1  0
 26 63  1  0
 27 28  1  0
 27 64  1  0
 27 65  1  0
 28 66  1  0
 28 67  1  0
 29 30  1  0
 29 68  1  6
 30 31  1  6
 30 32  1  0
 31 69  1  0
 32 33  1  0
 32 70  1  0
 32 71  1  0
 33 38  1  0
 33 34  2  0
 34 35  1  0
 34 72  1  0
 35 36  2  0
 35 73  1  0
 36 37  1  0
 36 74  1  0
 37 38  2  0
 38 75  1  0
M  CHG  1  23   1
M  END
>  <i_m_ct_stereo_status>  (197) 
1

>  <s_m_source_file>  (197) 
/var/tmp/pbs.5076255.sched01/tmppnbbzaq8/41bb87crku.sdf

>  <i_m_source_file_index>  (197) 
38

>  <i_lp_mmshare_version>  (197) 
48012

>  <i_f3d_flags>  (197) 
0

>  <s_epik_input>  (197) 
W2NIXTFuW2NIXVtjSF1bY0hdYzFbQ0gyXVtDQEBdMihbT0hdKVtDQEhdKE4oW0NIMl1bQ0gyXTMpW0NIMl1bQ0hdNFtDSDJdW0NIMl1bQ0gyXTQpW0NASF0oT0M1PUMoW09IXSlbQ0hdPVtDSF02KUM3PUM2T1tDQEBIXShbQ0BdMjNbQ0BAXTU3OClOKFtDSDJdW0NIMl04KVtDSDJdW0NIXTlbQ0gyXVtDSDJdOQ==

>  <s_epik_cmdline>  (197) 
J2VwaWtfcHl0aG9uJywgJy1waHQnLCAnMi4wJywgJy1waCcsICc3LjAnLCAnLXRuJywgJzgnLCAnLW1hJywgJzIwMCcsICctaW1hZScsICc8aW5maWxlLm1hZT4nLCAnLW9tYWUnLCAnPG91dGZpbGUubWFlPic=

>  <r_epik_Ionization_Penalty>  (197) 
0.462818

>  <r_epik_Ionization_Penalty_Charging>  (197) 
0.44538

>  <r_epik_Ionization_Penalty_Neutral>  (197) 
0.0174382

>  <r_epik_State_Penalty>  (197) 
0.414712

>  <r_epik_Charging_Adjusted_Penalty>  (197) 
0.860092

>  <i_epik_Tot_Q>  (197) 
1

>  <i_epik_Tot_abs_Q>  (197) 
1

>  <s_epik_Chemistry_Notes>  (197) 
This compound contains an acetal/aminal-like group ( X-CH(R)-Y where X, Y are N, S, or O) that may be acid/base labile, releasing an aldehyde.

>  <s_lp_Force_Field>  (197) 
OPLS3e

>  <r_lp_Energy>  (197) 
309.329

>  <b_lp_Chiralities_Consistent>  (197) 
1

>  <s_lp_Variant>  (197) 
59:0-1

>  <s_i_glide_gridfile>  (197) 
pfpi4k_grid

>  <i_i_glide_lignum>  (197) 
38

>  <i_i_glide_rotatable_bonds>  (197) 
8

>  <r_i_docking_score>  (197) 
-2.37013

>  <r_i_glide_ligand_efficiency>  (197) 
-0.0623719

>  <r_i_glide_ligand_efficiency_sa>  (197) 
-0.209693

>  <r_i_glide_ligand_efficiency_ln>  (197) 
-0.51107

>  <r_i_glide_gscore>  (197) 
-2.37013

>  <r_i_glide_lipo>  (197) 
-0.782991

>  <r_i_glide_hbond>  (197) 
-0.0104967

>  <r_i_glide_metal>  (197) 
-0

>  <r_i_glide_rewards>  (197) 
0

>  <r_i_glide_evdw>  (197) 
-27.7915

>  <r_i_glide_ecoul>  (197) 
-4.31459

>  <r_i_glide_erotb>  (197) 
0.461403

>  <r_i_glide_esite>  (197) 
-0.00128077

>  <r_i_glide_emodel>  (197) 
-35.4426

>  <r_i_glide_energy>  (197) 
-32.1061

>  <r_i_glide_einternal>  (197) 
2.59189

>  <r_i_glide_intrahb_reward>  (197) 
-0

>  <i_i_glide_confnum>  (197) 
8

>  <i_i_glide_posenum>  (197) 
33

>  <r_i_glide_eff_state_penalty>  (197) 
0

>  <ligand_id>  (197) 
59

>  <original_smiles>  (197) 
OC1=C2OC3C4=C(C=C1)OC1N(CC5CC5)CCC24C12CCN(CC1CCC1)C3C2(O)Cc1cccnc1

>  <smiles>  (197) 
[H]OC1=C2OC3([H])C4=C(OC5([H])N(C([H])([H])C6([H])C([H])([H])C6([H])[H])C([H])([H])C([H])([H])C24C52C([H])([H])C([H])([H])[N+]([H])(C([H])([H])C4([H])C([H])([H])C([H])([H])C4([H])[H])C3([H])C2(O[H])C([H])([H])c2c([H])nc([H])c([H])c2[H])C([H])=C1[H]

$$$$
59:0:1
     RDKit          3D

 76 84  0  0  1  0  0  0  0  0999 V2000
    7.8807   -6.8444    4.8063 O   0  0  0  0  0  0  0  0  0  0  0  0
    6.5819   -7.1312    4.6894 C   0  0  0  0  0  0  0  0  0  0  0  0
    5.9571   -6.8997    3.4784 C   0  0  0  0  0  0  0  0  0  0  0  0
    6.4009   -5.7728    2.8595 O   0  0  0  0  0  0  0  0  0  0  0  0
    5.3970   -4.8624    3.2457 C   0  0  2  0  0  0  0  0  0  0  0  0
    4.4703   -5.7764    4.0918 C   0  0  0  0  0  0  0  0  0  0  0  0
    3.8516   -5.7619    5.2477 C   0  0  0  0  0  0  0  0  0  0  0  0
    4.5957   -6.5839    6.2208 C   0  0  0  0  0  0  0  0  0  0  0  0
    5.8026   -7.2008    5.9613 C   0  0  0  0  0  0  0  0  0  0  0  0
    2.5165   -6.1422    4.9988 O   0  0  0  0  0  0  0  0  0  0  0  0
    2.0485   -6.5465    3.6591 C   0  0  2  0  0  0  0  0  0  0  0  0
    1.5709   -7.8974    3.7904 N   0  0  0  0  0  0  0  0  0  0  0  0
    0.8318   -8.4469    2.6564 C   0  0  0  0  0  0  0  0  0  0  0  0
   -0.4003   -9.2128    3.1007 C   0  0  0  0  0  0  0  0  0  0  0  0
   -1.5697   -9.3071    2.1448 C   0  0  0  0  0  0  0  0  0  0  0  0
   -1.6947   -8.4894    3.4008 C   0  0  0  0  0  0  0  0  0  0  0  0
    2.5967   -8.7695    4.3392 C   0  0  0  0  0  0  0  0  0  0  0  0
    3.9973   -8.4867    3.7579 C   0  0  0  0  0  0  0  0  0  0  0  0
    4.4087   -7.0105    3.3364 C   0  0  2  0  0  0  0  0  0  0  0  0
    3.2062   -6.2863    2.5574 C   0  0  1  0  0  0  0  0  0  0  0  0
    3.2019   -6.9836    1.1788 C   0  0  0  0  0  0  0  0  0  0  0  0
    4.5552   -6.6452    0.4760 C   0  0  0  0  0  0  0  0  0  0  0  0
    5.1119   -5.2492    0.6570 N   0  0  1  0  0  0  0  0  0  0  0  0
    5.0736   -4.4920   -0.6359 C   0  0  0  0  0  0  0  0  0  0  0  0
    6.0009   -3.2749   -0.7310 C   0  0  0  0  0  0  0  0  0  0  0  0
    5.4207   -1.8786   -0.4265 C   0  0  0  0  0  0  0  0  0  0  0  0
    5.1645   -1.7004   -1.9213 C   0  0  0  0  0  0  0  0  0  0  0  0
    6.2674   -2.7331   -2.1544 C   0  0  0  0  0  0  0  0  0  0  0  0
    4.6706   -4.4719    1.8885 C   0  0  1  0  0  0  0  0  0  0  0  0
    3.1816   -4.6985    2.1657 C   0  0  1  0  0  0  0  0  0  0  0  0
    2.4001   -4.4039    1.0135 O   0  0  0  0  0  0  0  0  0  0  0  0
    2.5150   -3.6515    3.1475 C   0  0  0  0  0  0  0  0  0  0  0  0
    2.7270   -2.1697    2.8259 C   0  0  0  0  0  0  0  0  0  0  0  0
    1.6636   -1.3722    2.3480 C   0  0  0  0  0  0  0  0  0  0  0  0
    1.8964   -0.0091    2.0797 C   0  0  0  0  0  0  0  0  0  0  0  0
    3.1896    0.5043    2.2859 C   0  0  0  0  0  0  0  0  0  0  0  0
    4.2058   -0.2384    2.7648 N   0  0  0  0  0  0  0  0  0  0  0  0
    3.9646   -1.5305    3.0490 C   0  0  0  0  0  0  0  0  0  0  0  0
    8.0789   -6.8280    5.7304 H   0  0  0  0  0  0  0  0  0  0  0  0
    5.7684   -4.0187    3.8293 H   0  0  0  0  0  0  0  0  0  0  0  0
    4.1633   -6.7322    7.2003 H   0  0  0  0  0  0  0  0  0  0  0  0
    6.2233   -7.7816    6.7645 H   0  0  0  0  0  0  0  0  0  0  0  0
    1.1852   -5.9272    3.4373 H   0  0  0  0  0  0  0  0  0  0  0  0
    0.5053   -7.6374    2.0024 H   0  0  0  0  0  0  0  0  0  0  0  0
    1.4552   -9.1210    2.0691 H   0  0  0  0  0  0  0  0  0  0  0  0
   -0.1961  -10.1112    3.6827 H   0  0  0  0  0  0  0  0  0  0  0  0
   -1.4802   -8.7628    1.2115 H   0  0  0  0  0  0  0  0  0  0  0  0
   -2.1237  -10.2416    2.0872 H   0  0  0  0  0  0  0  0  0  0  0  0
   -2.3213   -8.8903    4.1937 H   0  0  0  0  0  0  0  0  0  0  0  0
   -1.6847   -7.4053    3.3102 H   0  0  0  0  0  0  0  0  0  0  0  0
    2.6323   -8.5847    5.4120 H   0  0  0  0  0  0  0  0  0  0  0  0
    2.3226   -9.8202    4.2297 H   0  0  0  0  0  0  0  0  0  0  0  0
    4.7195   -8.9536    4.4213 H   0  0  0  0  0  0  0  0  0  0  0  0
    4.0847   -9.0919    2.8585 H   0  0  0  0  0  0  0  0  0  0  0  0
    3.1288   -8.0658    1.2416 H   0  0  0  0  0  0  0  0  0  0  0  0
    2.3456   -6.6984    0.5634 H   0  0  0  0  0  0  0  0  0  0  0  0
    5.3196   -7.3315    0.8434 H   0  0  0  0  0  0  0  0  0  0  0  0
    4.4532   -6.9000   -0.5806 H   0  0  0  0  0  0  0  0  0  0  0  0
    5.3756   -5.1635   -1.4364 H   0  0  0  0  0  0  0  0  0  0  0  0
    4.0551   -4.2078   -0.8938 H   0  0  0  0  0  0  0  0  0  0  0  0
    6.9603   -3.4347   -0.2280 H   0  0  0  0  0  0  0  0  0  0  0  0
    4.5051   -1.8714    0.1676 H   0  0  0  0  0  0  0  0  0  0  0  0
    6.1668   -1.1848   -0.0297 H   0  0  0  0  0  0  0  0  0  0  0  0
    4.1795   -2.0618   -2.2200 H   0  0  0  0  0  0  0  0  0  0  0  0
    5.3644   -0.7019   -2.3037 H   0  0  0  0  0  0  0  0  0  0  0  0
    7.2553   -2.2819   -2.2677 H   0  0  0  0  0  0  0  0  0  0  0  0
    6.0612   -3.4340   -2.9674 H   0  0  0  0  0  0  0  0  0  0  0  0
    4.9061   -3.4409    1.6795 H   0  0  0  0  0  0  0  0  0  0  0  0
    2.8059   -4.7941    0.2552 H   0  0  0  0  0  0  0  0  0  0  0  0
    1.4373   -3.8211    3.1845 H   0  0  0  0  0  0  0  0  0  0  0  0
    2.8438   -3.7422    4.1764 H   0  0  0  0  0  0  0  0  0  0  0  0
    0.6773   -1.7841    2.1924 H   0  0  0  0  0  0  0  0  0  0  0  0
    1.1110    0.6320    1.7049 H   0  0  0  0  0  0  0  0  0  0  0  0
    3.4131    1.5404    2.0758 H   0  0  0  0  0  0  0  0  0  0  0  0
    4.8067   -2.0687    3.4503 H   0  0  0  0  0  0  0  0  0  0  0  0
    6.0977   -5.3990    0.8241 H   0  0  0  0  0  0  0  0  0  0  0  0
  1  2  1  0
  1 39  1  0
  2  9  1  0
  2  3  2  0
  3 19  1  0
  3  4  1  0
  4  5  1  0
  5 29  1  0
  5  6  1  0
  5 40  1  1
  6 19  1  0
  6  7  2  0
  7  8  1  0
  7 10  1  0
  8  9  2  0
  8 41  1  0
  9 42  1  0
 10 11  1  0
 11 20  1  0
 11 12  1  0
 11 43  1  6
 12 13  1  0
 12 17  1  0
 13 14  1  0
 13 44  1  0
 13 45  1  0
 14 16  1  0
 14 15  1  0
 14 46  1  0
 15 16  1  0
 15 47  1  0
 15 48  1  0
 16 49  1  0
 16 50  1  0
 17 18  1  0
 17 51  1  0
 17 52  1  0
 19 18  1  1
 18 53  1  0
 18 54  1  0
 19 20  1  0
 20 30  1  0
 20 21  1  6
 21 22  1  0
 21 55  1  0
 21 56  1  0
 22 23  1  0
 22 57  1  0
 22 58  1  0
 23 24  1  0
 23 29  1  0
 23 76  1  1
 24 25  1  0
 24 59  1  0
 24 60  1  0
 25 28  1  0
 25 26  1  0
 25 61  1  0
 26 27  1  0
 26 62  1  0
 26 63  1  0
 27 28  1  0
 27 64  1  0
 27 65  1  0
 28 66  1  0
 28 67  1  0
 29 30  1  0
 29 68  1  6
 30 31  1  6
 30 32  1  0
 31 69  1  0
 32 33  1  0
 32 70  1  0
 32 71  1  0
 33 38  1  0
 33 34  2  0
 34 35  1  0
 34 72  1  0
 35 36  2  0
 35 73  1  0
 36 37  1  0
 36 74  1  0
 37 38  2  0
 38 75  1  0
M  CHG  1  23   1
M  END
>  <i_m_ct_stereo_status>  (198) 
1

>  <s_m_source_file>  (198) 
/var/tmp/pbs.5076255.sched01/tmppnbbzaq8/41bb87crku.sdf

>  <i_m_source_file_index>  (198) 
38

>  <i_lp_mmshare_version>  (198) 
48012

>  <i_f3d_flags>  (198) 
0

>  <s_epik_input>  (198) 
W2NIXTFuW2NIXVtjSF1bY0hdYzFbQ0gyXVtDQEBdMihbT0hdKVtDQEhdKE4oW0NIMl1bQ0gyXTMpW0NIMl1bQ0hdNFtDSDJdW0NIMl1bQ0gyXTQpW0NASF0oT0M1PUMoW09IXSlbQ0hdPVtDSF02KUM3PUM2T1tDQEBIXShbQ0BdMjNbQ0BAXTU3OClOKFtDSDJdW0NIMl04KVtDSDJdW0NIXTlbQ0gyXVtDSDJdOQ==

>  <s_epik_cmdline>  (198) 
J2VwaWtfcHl0aG9uJywgJy1waHQnLCAnMi4wJywgJy1waCcsICc3LjAnLCAnLXRuJywgJzgnLCAnLW1hJywgJzIwMCcsICctaW1hZScsICc8aW5maWxlLm1hZT4nLCAnLW9tYWUnLCAnPG91dGZpbGUubWFlPic=

>  <r_epik_Ionization_Penalty>  (198) 
0.462818

>  <r_epik_Ionization_Penalty_Charging>  (198) 
0.44538

>  <r_epik_Ionization_Penalty_Neutral>  (198) 
0.0174382

>  <r_epik_State_Penalty>  (198) 
0.414712

>  <r_epik_Charging_Adjusted_Penalty>  (198) 
0.860092

>  <i_epik_Tot_Q>  (198) 
1

>  <i_epik_Tot_abs_Q>  (198) 
1

>  <s_epik_Chemistry_Notes>  (198) 
This compound contains an acetal/aminal-like group ( X-CH(R)-Y where X, Y are N, S, or O) that may be acid/base labile, releasing an aldehyde.

>  <s_lp_Force_Field>  (198) 
OPLS3e

>  <r_lp_Energy>  (198) 
309.329

>  <b_lp_Chiralities_Consistent>  (198) 
1

>  <s_lp_Variant>  (198) 
59:0-1

>  <s_i_glide_gridfile>  (198) 
pfpi4k_grid

>  <i_i_glide_lignum>  (198) 
38

>  <i_i_glide_rotatable_bonds>  (198) 
8

>  <r_i_docking_score>  (198) 
-2.0769

>  <r_i_glide_ligand_efficiency>  (198) 
-0.0546553

>  <r_i_glide_ligand_efficiency_sa>  (198) 
-0.18375

>  <r_i_glide_ligand_efficiency_ln>  (198) 
-0.447841

>  <r_i_glide_gscore>  (198) 
-2.0769

>  <r_i_glide_lipo>  (198) 
-0.653788

>  <r_i_glide_hbond>  (198) 
0

>  <r_i_glide_metal>  (198) 
-0

>  <r_i_glide_rewards>  (198) 
0

>  <r_i_glide_evdw>  (198) 
-27.9655

>  <r_i_glide_ecoul>  (198) 
-3.22581

>  <r_i_glide_erotb>  (198) 
0.461403

>  <r_i_glide_esite>  (198) 
-0.00237283

>  <r_i_glide_emodel>  (198) 
-34.3855

>  <r_i_glide_energy>  (198) 
-31.1913

>  <r_i_glide_einternal>  (198) 
1.46207

>  <r_i_glide_intrahb_reward>  (198) 
-0

>  <i_i_glide_confnum>  (198) 
8

>  <i_i_glide_posenum>  (198) 
1

>  <r_i_glide_eff_state_penalty>  (198) 
0

>  <ligand_id>  (198) 
59

>  <original_smiles>  (198) 
OC1=C2OC3C4=C(C=C1)OC1N(CC5CC5)CCC24C12CCN(CC1CCC1)C3C2(O)Cc1cccnc1

>  <smiles>  (198) 
[H]OC1=C2OC3([H])C4=C(OC5([H])N(C([H])([H])C6([H])C([H])([H])C6([H])[H])C([H])([H])C([H])([H])C24C52C([H])([H])C([H])([H])[N+]([H])(C([H])([H])C4([H])C([H])([H])C([H])([H])C4([H])[H])C3([H])C2(O[H])C([H])([H])c2c([H])nc([H])c([H])c2[H])C([H])=C1[H]

$$$$
59:0:2
     RDKit          3D

 76 84  0  0  1  0  0  0  0  0999 V2000
    5.1973   -5.6872    7.7859 O   0  0  0  0  0  0  0  0  0  0  0  0
    4.1150   -5.8637    7.0274 C   0  0  0  0  0  0  0  0  0  0  0  0
    4.2754   -6.3013    5.7255 C   0  0  0  0  0  0  0  0  0  0  0  0
    5.3741   -5.7915    5.1214 O   0  0  0  0  0  0  0  0  0  0  0  0
    4.7874   -4.7194    4.4183 C   0  0  2  0  0  0  0  0  0  0  0  0
    3.3067   -4.8691    4.7988 C   0  0  0  0  0  0  0  0  0  0  0  0
    2.2998   -4.1115    5.1959 C   0  0  0  0  0  0  0  0  0  0  0  0
    2.1071   -4.3070    6.6413 C   0  0  0  0  0  0  0  0  0  0  0  0
    2.9097   -5.0920    7.4342 C   0  0  0  0  0  0  0  0  0  0  0  0
    1.2061   -4.4124    4.3746 O   0  0  0  0  0  0  0  0  0  0  0  0
    1.2688   -5.4596    3.3360 C   0  0  2  0  0  0  0  0  0  0  0  0
    0.2422   -6.4112    3.6587 N   0  0  0  0  0  0  0  0  0  0  0  0
   -0.0404   -7.4242    2.6447 C   0  0  0  0  0  0  0  0  0  0  0  0
   -1.4643   -7.9131    2.7251 C   0  0  0  0  0  0  0  0  0  0  0  0
   -1.8062   -9.0552    3.6447 C   0  0  0  0  0  0  0  0  0  0  0  0
   -1.8038   -9.2742    2.1601 C   0  0  0  0  0  0  0  0  0  0  0  0
    0.4553   -6.9219    5.0119 C   0  0  0  0  0  0  0  0  0  0  0  0
    1.9354   -7.1915    5.3563 C   0  0  0  0  0  0  0  0  0  0  0  0
    3.0692   -6.2910    4.7362 C   0  0  2  0  0  0  0  0  0  0  0  0
    2.7716   -6.0209    3.1880 C   0  0  1  0  0  0  0  0  0  0  0  0
    3.1046   -7.3688    2.5076 C   0  0  0  0  0  0  0  0  0  0  0  0
    4.6216   -7.6448    2.7082 C   0  0  0  0  0  0  0  0  0  0  0  0
    5.5639   -6.4614    2.6184 N   0  0  1  0  0  0  0  0  0  0  0  0
    6.4378   -6.5417    1.3900 C   0  0  0  0  0  0  0  0  0  0  0  0
    7.8441   -5.9294    1.5279 C   0  0  0  0  0  0  0  0  0  0  0  0
    8.1243   -4.4047    1.4820 C   0  0  0  0  0  0  0  0  0  0  0  0
    8.3273   -4.5291   -0.0072 C   0  0  0  0  0  0  0  0  0  0  0  0
    8.7094   -5.9890    0.2481 C   0  0  0  0  0  0  0  0  0  0  0  0
    4.9615   -5.0871    2.8916 C   0  0  1  0  0  0  0  0  0  0  0  0
    3.5762   -4.9483    2.2693 C   0  0  1  0  0  0  0  0  0  0  0  0
    3.6713   -5.2985    0.8969 O   0  0  0  0  0  0  0  0  0  0  0  0
    3.0728   -3.4500    2.1115 C   0  0  0  0  0  0  0  0  0  0  0  0
    4.0453   -2.4483    1.4818 C   0  0  0  0  0  0  0  0  0  0  0  0
    3.8604   -1.9678    0.1666 C   0  0  0  0  0  0  0  0  0  0  0  0
    4.7767   -1.0377   -0.3482 C   0  0  0  0  0  0  0  0  0  0  0  0
    5.8492   -0.6244    0.4584 C   0  0  0  0  0  0  0  0  0  0  0  0
    6.0245   -1.0532    1.7212 N   0  0  0  0  0  0  0  0  0  0  0  0
    5.1237   -1.9080    2.2244 C   0  0  0  0  0  0  0  0  0  0  0  0
    5.9411   -5.9779    7.2809 H   0  0  0  0  0  0  0  0  0  0  0  0
    5.1796   -3.7479    4.7057 H   0  0  0  0  0  0  0  0  0  0  0  0
    1.2680   -3.8202    7.1213 H   0  0  0  0  0  0  0  0  0  0  0  0
    2.6555   -5.1621    8.4702 H   0  0  0  0  0  0  0  0  0  0  0  0
    0.9943   -4.9762    2.4129 H   0  0  0  0  0  0  0  0  0  0  0  0
    0.1161   -7.0216    1.6405 H   0  0  0  0  0  0  0  0  0  0  0  0
    0.5889   -8.3003    2.7816 H   0  0  0  0  0  0  0  0  0  0  0  0
   -2.2170   -7.1431    2.5877 H   0  0  0  0  0  0  0  0  0  0  0  0
   -0.9861   -9.4746    4.2265 H   0  0  0  0  0  0  0  0  0  0  0  0
   -2.7690   -9.0465    4.1408 H   0  0  0  0  0  0  0  0  0  0  0  0
   -2.7733   -9.4146    1.6895 H   0  0  0  0  0  0  0  0  0  0  0  0
   -1.0012   -9.9050    1.7844 H   0  0  0  0  0  0  0  0  0  0  0  0
    0.0907   -6.1589    5.6973 H   0  0  0  0  0  0  0  0  0  0  0  0
   -0.1368   -7.8074    5.2330 H   0  0  0  0  0  0  0  0  0  0  0  0
    2.0096   -7.2755    6.4379 H   0  0  0  0  0  0  0  0  0  0  0  0
    2.1555   -8.2024    5.0239 H   0  0  0  0  0  0  0  0  0  0  0  0
    2.6079   -8.2261    2.9490 H   0  0  0  0  0  0  0  0  0  0  0  0
    2.8330   -7.3980    1.4482 H   0  0  0  0  0  0  0  0  0  0  0  0
    4.7704   -8.0696    3.7024 H   0  0  0  0  0  0  0  0  0  0  0  0
    4.8908   -8.4581    2.0383 H   0  0  0  0  0  0  0  0  0  0  0  0
    6.6298   -7.5861    1.1255 H   0  0  0  0  0  0  0  0  0  0  0  0
    5.9324   -6.1492    0.5169 H   0  0  0  0  0  0  0  0  0  0  0  0
    8.4060   -6.4180    2.3239 H   0  0  0  0  0  0  0  0  0  0  0  0
    7.3233   -3.6840    1.6441 H   0  0  0  0  0  0  0  0  0  0  0  0
    9.0618   -4.1848    2.0119 H   0  0  0  0  0  0  0  0  0  0  0  0
    7.3638   -4.3785   -0.4959 H   0  0  0  0  0  0  0  0  0  0  0  0
    9.0915   -3.8616   -0.3953 H   0  0  0  0  0  0  0  0  0  0  0  0
    9.7715   -6.0869    0.4756 H   0  0  0  0  0  0  0  0  0  0  0  0
    8.4314   -6.7164   -0.5200 H   0  0  0  0  0  0  0  0  0  0  0  0
    5.6136   -4.3623    2.4593 H   0  0  0  0  0  0  0  0  0  0  0  0
    2.8422   -5.1626    0.4633 H   0  0  0  0  0  0  0  0  0  0  0  0
    2.1702   -3.4275    1.4998 H   0  0  0  0  0  0  0  0  0  0  0  0
    2.7959   -2.9692    3.0425 H   0  0  0  0  0  0  0  0  0  0  0  0
    3.0144   -2.2783   -0.4393 H   0  0  0  0  0  0  0  0  0  0  0  0
    4.6596   -0.6039   -1.3343 H   0  0  0  0  0  0  0  0  0  0  0  0
    6.5702    0.1007    0.1151 H   0  0  0  0  0  0  0  0  0  0  0  0
    5.3223   -2.1818    3.2444 H   0  0  0  0  0  0  0  0  0  0  0  0
    6.2097   -6.6095    3.3732 H   0  0  0  0  0  0  0  0  0  0  0  0
  1  2  1  0
  1 39  1  0
  2  9  1  0
  2  3  2  0
  3 19  1  0
  3  4  1  0
  4  5  1  0
  5 29  1  0
  5  6  1  0
  5 40  1  6
  6 19  1  0
  6  7  2  0
  7  8  1  0
  7 10  1  0
  8  9  2  0
  8 41  1  0
  9 42  1  0
 10 11  1  0
 11 20  1  0
 11 12  1  0
 11 43  1  6
 12 13  1  0
 12 17  1  0
 13 14  1  0
 13 44  1  0
 13 45  1  0
 14 16  1  0
 14 15  1  0
 14 46  1  0
 15 16  1  0
 15 47  1  0
 15 48  1  0
 16 49  1  0
 16 50  1  0
 17 18  1  0
 17 51  1  0
 17 52  1  0
 19 18  1  1
 18 53  1  0
 18 54  1  0
 19 20  1  0
 20 30  1  0
 20 21  1  6
 21 22  1  0
 21 55  1  0
 21 56  1  0
 22 23  1  0
 22 57  1  0
 22 58  1  0
 23 24  1  0
 23 29  1  0
 23 76  1  1
 24 25  1  0
 24 59  1  0
 24 60  1  0
 25 28  1  0
 25 26  1  0
 25 61  1  0
 26 27  1  0
 26 62  1  0
 26 63  1  0
 27 28  1  0
 27 64  1  0
 27 65  1  0
 28 66  1  0
 28 67  1  0
 29 30  1  0
 29 68  1  6
 30 31  1  6
 30 32  1  0
 31 69  1  0
 32 33  1  0
 32 70  1  0
 32 71  1  0
 33 38  1  0
 33 34  2  0
 34 35  1  0
 34 72  1  0
 35 36  2  0
 35 73  1  0
 36 37  1  0
 36 74  1  0
 37 38  2  0
 38 75  1  0
M  CHG  1  23   1
M  END
>  <i_m_ct_stereo_status>  (199) 
1

>  <s_m_source_file>  (199) 
/var/tmp/pbs.5076255.sched01/tmppnbbzaq8/41bb87crku.sdf

>  <i_m_source_file_index>  (199) 
38

>  <i_lp_mmshare_version>  (199) 
48012

>  <i_f3d_flags>  (199) 
0

>  <s_epik_input>  (199) 
W2NIXTFuW2NIXVtjSF1bY0hdYzFbQ0gyXVtDQEBdMihbT0hdKVtDQEhdKE4oW0NIMl1bQ0gyXTMpW0NIMl1bQ0hdNFtDSDJdW0NIMl1bQ0gyXTQpW0NASF0oT0M1PUMoW09IXSlbQ0hdPVtDSF02KUM3PUM2T1tDQEBIXShbQ0BdMjNbQ0BAXTU3OClOKFtDSDJdW0NIMl04KVtDSDJdW0NIXTlbQ0gyXVtDSDJdOQ==

>  <s_epik_cmdline>  (199) 
J2VwaWtfcHl0aG9uJywgJy1waHQnLCAnMi4wJywgJy1waCcsICc3LjAnLCAnLXRuJywgJzgnLCAnLW1hJywgJzIwMCcsICctaW1hZScsICc8aW5maWxlLm1hZT4nLCAnLW9tYWUnLCAnPG91dGZpbGUubWFlPic=

>  <r_epik_Ionization_Penalty>  (199) 
0.462818

>  <r_epik_Ionization_Penalty_Charging>  (199) 
0.44538

>  <r_epik_Ionization_Penalty_Neutral>  (199) 
0.0174382

>  <r_epik_State_Penalty>  (199) 
0.414712

>  <r_epik_Charging_Adjusted_Penalty>  (199) 
0.860092

>  <i_epik_Tot_Q>  (199) 
1

>  <i_epik_Tot_abs_Q>  (199) 
1

>  <s_epik_Chemistry_Notes>  (199) 
This compound contains an acetal/aminal-like group ( X-CH(R)-Y where X, Y are N, S, or O) that may be acid/base labile, releasing an aldehyde.

>  <s_lp_Force_Field>  (199) 
OPLS3e

>  <r_lp_Energy>  (199) 
309.329

>  <b_lp_Chiralities_Consistent>  (199) 
1

>  <s_lp_Variant>  (199) 
59:0-1

>  <s_i_glide_gridfile>  (199) 
pfpi4k_grid

>  <i_i_glide_lignum>  (199) 
38

>  <i_i_glide_rotatable_bonds>  (199) 
8

>  <r_i_docking_score>  (199) 
-1.80377

>  <r_i_glide_ligand_efficiency>  (199) 
-0.0474676

>  <r_i_glide_ligand_efficiency_sa>  (199) 
-0.159585

>  <r_i_glide_ligand_efficiency_ln>  (199) 
-0.388945

>  <r_i_glide_gscore>  (199) 
-1.80377

>  <r_i_glide_lipo>  (199) 
-0.722827

>  <r_i_glide_hbond>  (199) 
0

>  <r_i_glide_metal>  (199) 
-0

>  <r_i_glide_rewards>  (199) 
0

>  <r_i_glide_evdw>  (199) 
-25.3196

>  <r_i_glide_ecoul>  (199) 
-1.69228

>  <r_i_glide_erotb>  (199) 
0.461403

>  <r_i_glide_esite>  (199) 
-0.0225237

>  <r_i_glide_emodel>  (199) 
-27.718

>  <r_i_glide_energy>  (199) 
-27.0118

>  <r_i_glide_einternal>  (199) 
3.61182

>  <r_i_glide_intrahb_reward>  (199) 
-0

>  <i_i_glide_confnum>  (199) 
11

>  <i_i_glide_posenum>  (199) 
15

>  <r_i_glide_eff_state_penalty>  (199) 
0

>  <ligand_id>  (199) 
59

>  <original_smiles>  (199) 
OC1=C2OC3C4=C(C=C1)OC1N(CC5CC5)CCC24C12CCN(CC1CCC1)C3C2(O)Cc1cccnc1

>  <smiles>  (199) 
[H]OC1=C2OC3([H])C4=C(OC5([H])N(C([H])([H])C6([H])C([H])([H])C6([H])[H])C([H])([H])C([H])([H])C24C52C([H])([H])C([H])([H])[N+]([H])(C([H])([H])C4([H])C([H])([H])C([H])([H])C4([H])[H])C3([H])C2(O[H])C([H])([H])c2c([H])nc([H])c([H])c2[H])C([H])=C1[H]

$$$$
59:1:0
     RDKit          3D

 75 83  0  0  1  0  0  0  0  0999 V2000
    3.2521  -10.3223    4.4582 O   0  0  0  0  0  0  0  0  0  0  0  0
    3.0233   -9.2731    3.6680 C   0  0  0  0  0  0  0  0  0  0  0  0
    3.6291   -8.0609    3.9509 C   0  0  0  0  0  0  0  0  0  0  0  0
    3.7437   -7.8094    5.2774 O   0  0  0  0  0  0  0  0  0  0  0  0
    2.5663   -7.0581    5.4587 C   0  0  2  0  0  0  0  0  0  0  0  0
    2.0122   -6.9452    4.0054 C   0  0  0  0  0  0  0  0  0  0  0  0
    0.8771   -7.0750    3.3520 C   0  0  0  0  0  0  0  0  0  0  0  0
    0.8294   -8.3755    2.6746 C   0  0  0  0  0  0  0  0  0  0  0  0
    1.8004   -9.3530    2.8107 C   0  0  0  0  0  0  0  0  0  0  0  0
    0.7757   -5.9406    2.5124 O   0  0  0  0  0  0  0  0  0  0  0  0
    1.8386   -4.9228    2.4250 C   0  0  2  0  0  0  0  0  0  0  0  0
    2.2707   -4.9042    1.0533 N   0  0  0  0  0  0  0  0  0  0  0  0
    3.1850   -3.8252    0.6805 C   0  0  0  0  0  0  0  0  0  0  0  0
    2.9161   -3.2876   -0.7123 C   0  0  0  0  0  0  0  0  0  0  0  0
    3.9079   -3.4873   -1.8407 C   0  0  0  0  0  0  0  0  0  0  0  0
    3.7555   -2.1274   -1.2158 C   0  0  0  0  0  0  0  0  0  0  0  0
    2.6958   -6.2248    0.6295 C   0  0  0  0  0  0  0  0  0  0  0  0
    3.5072   -6.9857    1.6873 C   0  0  0  0  0  0  0  0  0  0  0  0
    3.2060   -6.7574    3.2205 C   0  0  2  0  0  0  0  0  0  0  0  0
    2.9585   -5.2032    3.5458 C   0  0  1  0  0  0  0  0  0  0  0  0
    4.3783   -4.6025    3.4468 C   0  0  0  0  0  0  0  0  0  0  0  0
    5.1976   -5.1720    4.6379 C   0  0  0  0  0  0  0  0  0  0  0  0
    4.4967   -5.2326    5.9479 N   0  0  0  0  0  0  0  0  0  0  0  0
    5.2610   -5.7108    7.0963 C   0  0  0  0  0  0  0  0  0  0  0  0
    6.5182   -4.8785    7.4020 C   0  0  0  0  0  0  0  0  0  0  0  0
    7.4483   -5.3090    8.5372 C   0  0  0  0  0  0  0  0  0  0  0  0
    6.7208   -4.3106    9.4394 C   0  0  0  0  0  0  0  0  0  0  0  0
    6.3330   -3.5541    8.1649 C   0  0  0  0  0  0  0  0  0  0  0  0
    3.0461   -5.6068    5.9325 C   0  0  1  0  0  0  0  0  0  0  0  0
    2.3678   -4.6268    4.9707 C   0  0  1  0  0  0  0  0  0  0  0  0
    2.7968   -3.2938    5.2727 O   0  0  0  0  0  0  0  0  0  0  0  0
    0.8135   -4.3869    5.1969 C   0  0  0  0  0  0  0  0  0  0  0  0
    0.3209   -4.3300    6.6535 C   0  0  0  0  0  0  0  0  0  0  0  0
    0.2298   -5.5061    7.4485 C   0  0  0  0  0  0  0  0  0  0  0  0
   -0.1759   -5.4128    8.7931 C   0  0  0  0  0  0  0  0  0  0  0  0
   -0.5866   -4.1652    9.2793 C   0  0  0  0  0  0  0  0  0  0  0  0
   -0.5715   -3.0592    8.5079 N   0  0  0  0  0  0  0  0  0  0  0  0
   -0.1072   -3.1283    7.2471 C   0  0  0  0  0  0  0  0  0  0  0  0
    2.5948  -10.9712    4.2633 H   0  0  0  0  0  0  0  0  0  0  0  0
    1.8764   -7.6264    6.0797 H   0  0  0  0  0  0  0  0  0  0  0  0
    0.0091   -8.5938    2.0037 H   0  0  0  0  0  0  0  0  0  0  0  0
    1.6497  -10.2531    2.2405 H   0  0  0  0  0  0  0  0  0  0  0  0
    1.3784   -3.9617    2.6380 H   0  0  0  0  0  0  0  0  0  0  0  0
    3.0755   -2.9948    1.3814 H   0  0  0  0  0  0  0  0  0  0  0  0
    4.2159   -4.1739    0.7125 H   0  0  0  0  0  0  0  0  0  0  0  0
    1.8635   -3.2217   -0.9790 H   0  0  0  0  0  0  0  0  0  0  0  0
    4.7981   -4.0694   -1.6126 H   0  0  0  0  0  0  0  0  0  0  0  0
    3.5014   -3.6303   -2.8391 H   0  0  0  0  0  0  0  0  0  0  0  0
    3.2633   -1.3629   -1.8144 H   0  0  0  0  0  0  0  0  0  0  0  0
    4.5595   -1.7728   -0.5746 H   0  0  0  0  0  0  0  0  0  0  0  0
    1.7837   -6.7902    0.4723 H   0  0  0  0  0  0  0  0  0  0  0  0
    3.2313   -6.1885   -0.3195 H   0  0  0  0  0  0  0  0  0  0  0  0
    3.5084   -8.0380    1.4123 H   0  0  0  0  0  0  0  0  0  0  0  0
    4.5480   -6.7050    1.5546 H   0  0  0  0  0  0  0  0  0  0  0  0
    4.9180   -4.8564    2.5394 H   0  0  0  0  0  0  0  0  0  0  0  0
    4.3765   -3.5150    3.4785 H   0  0  0  0  0  0  0  0  0  0  0  0
    5.6044   -6.1549    4.3988 H   0  0  0  0  0  0  0  0  0  0  0  0
    6.0477   -4.4926    4.6910 H   0  0  0  0  0  0  0  0  0  0  0  0
    4.6180   -5.6535    7.9767 H   0  0  0  0  0  0  0  0  0  0  0  0
    5.4954   -6.7693    6.9973 H   0  0  0  0  0  0  0  0  0  0  0  0
    7.1793   -4.7362    6.5482 H   0  0  0  0  0  0  0  0  0  0  0  0
    7.3563   -6.3622    8.8061 H   0  0  0  0  0  0  0  0  0  0  0  0
    8.4838   -5.0283    8.3313 H   0  0  0  0  0  0  0  0  0  0  0  0
    5.8621   -4.7672    9.9347 H   0  0  0  0  0  0  0  0  0  0  0  0
    7.3668   -3.7626   10.1250 H   0  0  0  0  0  0  0  0  0  0  0  0
    7.0569   -2.7913    7.8721 H   0  0  0  0  0  0  0  0  0  0  0  0
    5.3115   -3.1635    8.1513 H   0  0  0  0  0  0  0  0  0  0  0  0
    2.6960   -5.4340    6.9442 H   0  0  0  0  0  0  0  0  0  0  0  0
    2.5047   -2.7047    4.6009 H   0  0  0  0  0  0  0  0  0  0  0  0
    0.5007   -3.4777    4.6827 H   0  0  0  0  0  0  0  0  0  0  0  0
    0.1894   -5.1572    4.7604 H   0  0  0  0  0  0  0  0  0  0  0  0
    0.4807   -6.4947    7.0798 H   0  0  0  0  0  0  0  0  0  0  0  0
   -0.1547   -6.2963    9.4104 H   0  0  0  0  0  0  0  0  0  0  0  0
   -0.9460   -4.0761   10.2872 H   0  0  0  0  0  0  0  0  0  0  0  0
   -0.1219   -2.2172    6.6768 H   0  0  0  0  0  0  0  0  0  0  0  0
  1  2  1  0
  1 39  1  0
  2  9  1  0
  2  3  2  0
  3 19  1  0
  3  4  1  0
  4  5  1  0
  5 29  1  0
  5  6  1  0
  5 40  1  1
  6 19  1  0
  6  7  2  0
  7  8  1  0
  7 10  1  0
  8  9  2  0
  8 41  1  0
  9 42  1  0
 10 11  1  0
 11 20  1  0
 11 12  1  0
 11 43  1  1
 12 13  1  0
 12 17  1  0
 13 14  1  0
 13 44  1  0
 13 45  1  0
 14 16  1  0
 14 15  1  0
 14 46  1  0
 15 16  1  0
 15 47  1  0
 15 48  1  0
 16 49  1  0
 16 50  1  0
 17 18  1  0
 17 51  1  0
 17 52  1  0
 19 18  1  6
 18 53  1  0
 18 54  1  0
 19 20  1  0
 20 30  1  0
 20 21  1  6
 21 22  1  0
 21 55  1  0
 21 56  1  0
 22 23  1  0
 22 57  1  0
 22 58  1  0
 23 24  1  0
 23 29  1  0
 24 25  1  0
 24 59  1  0
 24 60  1  0
 25 28  1  0
 25 26  1  0
 25 61  1  0
 26 27  1  0
 26 62  1  0
 26 63  1  0
 27 28  1  0
 27 64  1  0
 27 65  1  0
 28 66  1  0
 28 67  1  0
 29 30  1  0
 29 68  1  1
 30 31  1  1
 30 32  1  0
 31 69  1  0
 32 33  1  0
 32 70  1  0
 32 71  1  0
 33 38  1  0
 33 34  2  0
 34 35  1  0
 34 72  1  0
 35 36  2  0
 35 73  1  0
 36 37  1  0
 36 74  1  0
 37 38  2  0
 38 75  1  0
M  END
>  <i_m_ct_stereo_status>  (200) 
1

>  <s_m_source_file>  (200) 
/var/tmp/pbs.5076255.sched01/tmppnbbzaq8/41bb87crku.sdf

>  <i_m_source_file_index>  (200) 
39

>  <i_lp_mmshare_version>  (200) 
48012

>  <i_f3d_flags>  (200) 
0

>  <s_epik_input>  (200) 
W2NIXTFuW2NIXVtjSF1bY0hdYzFbQ0gyXVtDQEBdMihbT0hdKVtDQEhdKE4oW0NIMl1bQ0gyXTMpW0NIMl1bQ0hdNFtDSDJdW0NIMl1bQ0gyXTQpW0NASF0oT0M1PUMoW09IXSlbQ0hdPVtDSF02KUM3PUM2T1tDQEBIXShbQ0BdMjNbQ0BAXTU3OClOKFtDSDJdW0NIMl04KVtDSDJdW0NIXTlbQ0gyXVtDSDJdOQ==

>  <s_epik_cmdline>  (200) 
J2VwaWtfcHl0aG9uJywgJy1waHQnLCAnMi4wJywgJy1waCcsICc3LjAnLCAnLXRuJywgJzgnLCAnLW1hJywgJzIwMCcsICctaW1hZScsICc8aW5maWxlLm1hZT4nLCAnLW9tYWUnLCAnPG91dGZpbGUubWFlPic=

>  <r_epik_Ionization_Penalty>  (200) 
0.419235

>  <r_epik_Ionization_Penalty_Charging>  (200) 
0

>  <r_epik_Ionization_Penalty_Neutral>  (200) 
0.419235

>  <r_epik_State_Penalty>  (200) 
0.450297

>  <r_epik_Charging_Adjusted_Penalty>  (200) 
0.450297

>  <i_epik_Tot_Q>  (200) 
0

>  <i_epik_Tot_abs_Q>  (200) 
0

>  <s_epik_Chemistry_Notes>  (200) 
This compound contains an acetal/aminal-like group ( X-CH(R)-Y where X, Y are N, S, or O) that may be acid/base labile, releasing an aldehyde.

>  <s_lp_Force_Field>  (200) 
OPLS3e

>  <r_lp_Energy>  (200) 
303.689

>  <b_lp_Chiralities_Consistent>  (200) 
1

>  <s_lp_Variant>  (200) 
59:0-2

>  <s_i_glide_gridfile>  (200) 
pfpi4k_grid

>  <i_i_glide_lignum>  (200) 
39

>  <i_i_glide_rotatable_bonds>  (200) 
8

>  <r_i_docking_score>  (200) 
-1.85425

>  <r_i_glide_ligand_efficiency>  (200) 
-0.048796

>  <r_i_glide_ligand_efficiency_sa>  (200) 
-0.164051

>  <r_i_glide_ligand_efficiency_ln>  (200) 
-0.399831

>  <r_i_glide_gscore>  (200) 
-1.85425

>  <r_i_glide_lipo>  (200) 
-0.0897489

>  <r_i_glide_hbond>  (200) 
-0.197822

>  <r_i_glide_metal>  (200) 
-0

>  <r_i_glide_rewards>  (200) 
0

>  <r_i_glide_evdw>  (200) 
-20.6212

>  <r_i_glide_ecoul>  (200) 
-6.51861

>  <r_i_glide_erotb>  (200) 
0.463062

>  <r_i_glide_esite>  (200) 
-0.0208901

>  <r_i_glide_emodel>  (200) 
-28.9769

>  <r_i_glide_energy>  (200) 
-27.1398

>  <r_i_glide_einternal>  (200) 
0.533283

>  <r_i_glide_intrahb_reward>  (200) 
-0

>  <i_i_glide_confnum>  (200) 
4

>  <i_i_glide_posenum>  (200) 
31

>  <r_i_glide_eff_state_penalty>  (200) 
0

>  <ligand_id>  (200) 
59

>  <original_smiles>  (200) 
OC1=C2OC3C4=C(C=C1)OC1N(CC5CC5)CCC24C12CCN(CC1CCC1)C3C2(O)Cc1cccnc1

>  <smiles>  (200) 
[H]OC1=C2OC3([H])C4=C(OC5([H])N(C([H])([H])C6([H])C([H])([H])C6([H])[H])C([H])([H])C([H])([H])C24C52C([H])([H])C([H])([H])N(C([H])([H])C4([H])C([H])([H])C([H])([H])C4([H])[H])C3([H])C2(O[H])C([H])([H])c2c([H])nc([H])c([H])c2[H])C([H])=C1[H]

$$$$
59:1:1
     RDKit          3D

 75 83  0  0  1  0  0  0  0  0999 V2000
    8.5488   -8.2469    3.2859 O   0  0  0  0  0  0  0  0  0  0  0  0
    7.2179   -8.3929    3.4147 C   0  0  0  0  0  0  0  0  0  0  0  0
    6.3790   -7.6829    2.5848 C   0  0  0  0  0  0  0  0  0  0  0  0
    6.8423   -6.4360    2.3182 O   0  0  0  0  0  0  0  0  0  0  0  0
    6.0783   -5.7002    3.2432 C   0  0  2  0  0  0  0  0  0  0  0  0
    5.2456   -6.8142    3.9268 C   0  0  0  0  0  0  0  0  0  0  0  0
    4.9113   -7.2340    5.1345 C   0  0  0  0  0  0  0  0  0  0  0  0
    5.7384   -8.3911    5.5104 C   0  0  0  0  0  0  0  0  0  0  0  0
    6.7579   -8.9047    4.7374 C   0  0  0  0  0  0  0  0  0  0  0  0
    3.5120   -7.4191    5.1436 O   0  0  0  0  0  0  0  0  0  0  0  0
    2.6944   -7.2364    3.9228 C   0  0  2  0  0  0  0  0  0  0  0  0
    2.0684   -8.5071    3.6720 N   0  0  0  0  0  0  0  0  0  0  0  0
    1.0420   -8.5504    2.6259 C   0  0  0  0  0  0  0  0  0  0  0  0
   -0.2512   -9.1838    3.1063 C   0  0  0  0  0  0  0  0  0  0  0  0
   -1.4848   -9.0311    2.2444 C   0  0  0  0  0  0  0  0  0  0  0  0
   -1.3946   -8.3073    3.5657 C   0  0  0  0  0  0  0  0  0  0  0  0
    3.0685   -9.5633    3.5692 C   0  0  0  0  0  0  0  0  0  0  0  0
    4.3202   -9.1367    2.7671 C   0  0  0  0  0  0  0  0  0  0  0  0
    4.8296   -7.6367    2.8152 C   0  0  2  0  0  0  0  0  0  0  0  0
    3.5893   -6.6146    2.7112 C   0  0  1  0  0  0  0  0  0  0  0  0
    3.1631   -6.7252    1.2198 C   0  0  0  0  0  0  0  0  0  0  0  0
    4.3234   -6.1232    0.3634 C   0  0  0  0  0  0  0  0  0  0  0  0
    4.9897   -4.9149    0.9268 N   0  0  0  0  0  0  0  0  0  0  0  0
    5.9782   -4.2394    0.0824 C   0  0  0  0  0  0  0  0  0  0  0  0
    5.4440   -3.7947   -1.2884 C   0  0  0  0  0  0  0  0  0  0  0  0
    6.3672   -2.9499   -2.1741 C   0  0  0  0  0  0  0  0  0  0  0  0
    5.6744   -1.7112   -1.6065 C   0  0  0  0  0  0  0  0  0  0  0  0
    4.4747   -2.6041   -1.3024 C   0  0  0  0  0  0  0  0  0  0  0  0
    5.1320   -4.7900    2.4024 C   0  0  1  0  0  0  0  0  0  0  0  0
    3.7202   -5.0001    2.9688 C   0  0  1  0  0  0  0  0  0  0  0  0
    2.7198   -4.2614    2.2564 O   0  0  0  0  0  0  0  0  0  0  0  0
    3.4619   -4.3578    4.3895 C   0  0  0  0  0  0  0  0  0  0  0  0
    3.9355   -2.9105    4.5957 C   0  0  0  0  0  0  0  0  0  0  0  0
    4.4457   -2.0882    3.5611 C   0  0  0  0  0  0  0  0  0  0  0  0
    4.9913   -0.8514    3.8601 C   0  0  0  0  0  0  0  0  0  0  0  0
    4.8648   -0.3610    5.1867 C   0  0  0  0  0  0  0  0  0  0  0  0
    4.2740   -1.0721    6.1764 N   0  0  0  0  0  0  0  0  0  0  0  0
    3.8606   -2.3302    5.8968 C   0  0  0  0  0  0  0  0  0  0  0  0
    8.7182   -7.7139    2.5207 H   0  0  0  0  0  0  0  0  0  0  0  0
    6.6556   -5.1328    3.9666 H   0  0  0  0  0  0  0  0  0  0  0  0
    5.5418   -8.8809    6.4522 H   0  0  0  0  0  0  0  0  0  0  0  0
    7.2818   -9.7520    5.1266 H   0  0  0  0  0  0  0  0  0  0  0  0
    1.8959   -6.5498    4.1952 H   0  0  0  0  0  0  0  0  0  0  0  0
    0.8045   -7.5363    2.3054 H   0  0  0  0  0  0  0  0  0  0  0  0
    1.4036   -9.0952    1.7494 H   0  0  0  0  0  0  0  0  0  0  0  0
   -0.1420  -10.1492    3.5955 H   0  0  0  0  0  0  0  0  0  0  0  0
   -1.3853   -8.4399    1.3368 H   0  0  0  0  0  0  0  0  0  0  0  0
   -2.1852   -9.8584    2.1831 H   0  0  0  0  0  0  0  0  0  0  0  0
   -2.0175   -8.6693    4.3808 H   0  0  0  0  0  0  0  0  0  0  0  0
   -1.2231   -7.2336    3.5500 H   0  0  0  0  0  0  0  0  0  0  0  0
    3.3961   -9.8079    4.5820 H   0  0  0  0  0  0  0  0  0  0  0  0
    2.6415  -10.4840    3.1622 H   0  0  0  0  0  0  0  0  0  0  0  0
    5.1073   -9.8519    2.9974 H   0  0  0  0  0  0  0  0  0  0  0  0
    4.1163   -9.3550    1.7209 H   0  0  0  0  0  0  0  0  0  0  0  0
    2.9985   -7.7417    0.8878 H   0  0  0  0  0  0  0  0  0  0  0  0
    2.2328   -6.2068    0.9995 H   0  0  0  0  0  0  0  0  0  0  0  0
    5.0817   -6.8828    0.1467 H   0  0  0  0  0  0  0  0  0  0  0  0
    3.8823   -5.8692   -0.6080 H   0  0  0  0  0  0  0  0  0  0  0  0
    6.2957   -3.3385    0.6018 H   0  0  0  0  0  0  0  0  0  0  0  0
    6.8801   -4.8452   -0.0165 H   0  0  0  0  0  0  0  0  0  0  0  0
    5.0514   -4.6228   -1.8724 H   0  0  0  0  0  0  0  0  0  0  0  0
    7.4249   -3.0501   -1.9319 H   0  0  0  0  0  0  0  0  0  0  0  0
    6.1872   -3.0907   -3.2388 H   0  0  0  0  0  0  0  0  0  0  0  0
    6.1543   -1.3377   -0.7032 H   0  0  0  0  0  0  0  0  0  0  0  0
    5.4725   -0.9180   -2.3207 H   0  0  0  0  0  0  0  0  0  0  0  0
    3.7476   -2.6383   -2.1121 H   0  0  0  0  0  0  0  0  0  0  0  0
    3.9920   -2.4128   -0.3441 H   0  0  0  0  0  0  0  0  0  0  0  0
    5.6205   -3.8427    2.5626 H   0  0  0  0  0  0  0  0  0  0  0  0
    2.9189   -3.3415    2.3085 H   0  0  0  0  0  0  0  0  0  0  0  0
    2.3955   -4.3969    4.6456 H   0  0  0  0  0  0  0  0  0  0  0  0
    3.9335   -4.9336    5.1837 H   0  0  0  0  0  0  0  0  0  0  0  0
    4.4645   -2.3855    2.5220 H   0  0  0  0  0  0  0  0  0  0  0  0
    5.4676   -0.2750    3.0811 H   0  0  0  0  0  0  0  0  0  0  0  0
    5.2019    0.6471    5.4074 H   0  0  0  0  0  0  0  0  0  0  0  0
    3.3960   -2.8695    6.7176 H   0  0  0  0  0  0  0  0  0  0  0  0
  1  2  1  0
  1 39  1  0
  2  9  1  0
  2  3  2  0
  3 19  1  0
  3  4  1  0
  4  5  1  0
  5 29  1  0
  5  6  1  0
  5 40  1  1
  6 19  1  0
  6  7  2  0
  7  8  1  0
  7 10  1  0
  8  9  2  0
  8 41  1  0
  9 42  1  0
 10 11  1  0
 11 20  1  0
 11 12  1  0
 11 43  1  1
 12 13  1  0
 12 17  1  0
 13 14  1  0
 13 44  1  0
 13 45  1  0
 14 16  1  0
 14 15  1  0
 14 46  1  0
 15 16  1  0
 15 47  1  0
 15 48  1  0
 16 49  1  0
 16 50  1  0
 17 18  1  0
 17 51  1  0
 17 52  1  0
 19 18  1  1
 18 53  1  0
 18 54  1  0
 19 20  1  0
 20 30  1  0
 20 21  1  6
 21 22  1  0
 21 55  1  0
 21 56  1  0
 22 23  1  0
 22 57  1  0
 22 58  1  0
 23 24  1  0
 23 29  1  0
 24 25  1  0
 24 59  1  0
 24 60  1  0
 25 28  1  0
 25 26  1  0
 25 61  1  0
 26 27  1  0
 26 62  1  0
 26 63  1  0
 27 28  1  0
 27 64  1  0
 27 65  1  0
 28 66  1  0
 28 67  1  0
 29 30  1  0
 29 68  1  6
 30 31  1  6
 30 32  1  0
 31 69  1  0
 32 33  1  0
 32 70  1  0
 32 71  1  0
 33 38  1  0
 33 34  2  0
 34 35  1  0
 34 72  1  0
 35 36  2  0
 35 73  1  0
 36 37  1  0
 36 74  1  0
 37 38  2  0
 38 75  1  0
M  END
>  <i_m_ct_stereo_status>  (201) 
1

>  <s_m_source_file>  (201) 
/var/tmp/pbs.5076255.sched01/tmppnbbzaq8/41bb87crku.sdf

>  <i_m_source_file_index>  (201) 
39

>  <i_lp_mmshare_version>  (201) 
48012

>  <i_f3d_flags>  (201) 
0

>  <s_epik_input>  (201) 
W2NIXTFuW2NIXVtjSF1bY0hdYzFbQ0gyXVtDQEBdMihbT0hdKVtDQEhdKE4oW0NIMl1bQ0gyXTMpW0NIMl1bQ0hdNFtDSDJdW0NIMl1bQ0gyXTQpW0NASF0oT0M1PUMoW09IXSlbQ0hdPVtDSF02KUM3PUM2T1tDQEBIXShbQ0BdMjNbQ0BAXTU3OClOKFtDSDJdW0NIMl04KVtDSDJdW0NIXTlbQ0gyXVtDSDJdOQ==

>  <s_epik_cmdline>  (201) 
J2VwaWtfcHl0aG9uJywgJy1waHQnLCAnMi4wJywgJy1waCcsICc3LjAnLCAnLXRuJywgJzgnLCAnLW1hJywgJzIwMCcsICctaW1hZScsICc8aW5maWxlLm1hZT4nLCAnLW9tYWUnLCAnPG91dGZpbGUubWFlPic=

>  <r_epik_Ionization_Penalty>  (201) 
0.419235

>  <r_epik_Ionization_Penalty_Charging>  (201) 
0

>  <r_epik_Ionization_Penalty_Neutral>  (201) 
0.419235

>  <r_epik_State_Penalty>  (201) 
0.450297

>  <r_epik_Charging_Adjusted_Penalty>  (201) 
0.450297

>  <i_epik_Tot_Q>  (201) 
0

>  <i_epik_Tot_abs_Q>  (201) 
0

>  <s_epik_Chemistry_Notes>  (201) 
This compound contains an acetal/aminal-like group ( X-CH(R)-Y where X, Y are N, S, or O) that may be acid/base labile, releasing an aldehyde.

>  <s_lp_Force_Field>  (201) 
OPLS3e

>  <r_lp_Energy>  (201) 
303.689

>  <b_lp_Chiralities_Consistent>  (201) 
1

>  <s_lp_Variant>  (201) 
59:0-2

>  <s_i_glide_gridfile>  (201) 
pfpi4k_grid

>  <i_i_glide_lignum>  (201) 
39

>  <i_i_glide_rotatable_bonds>  (201) 
8

>  <r_i_docking_score>  (201) 
-1.85126

>  <r_i_glide_ligand_efficiency>  (201) 
-0.0487172

>  <r_i_glide_ligand_efficiency_sa>  (201) 
-0.163786

>  <r_i_glide_ligand_efficiency_ln>  (201) 
-0.399185

>  <r_i_glide_gscore>  (201) 
-1.85126

>  <r_i_glide_lipo>  (201) 
-0.74195

>  <r_i_glide_hbond>  (201) 
0

>  <r_i_glide_metal>  (201) 
-0

>  <r_i_glide_rewards>  (201) 
0

>  <r_i_glide_evdw>  (201) 
-28.3146

>  <r_i_glide_ecoul>  (201) 
-1.04009

>  <r_i_glide_erotb>  (201) 
0.463062

>  <r_i_glide_esite>  (201) 
-0.000624936

>  <r_i_glide_emodel>  (201) 
-28.039

>  <r_i_glide_energy>  (201) 
-29.3547

>  <r_i_glide_einternal>  (201) 
4.58143

>  <r_i_glide_intrahb_reward>  (201) 
-0

>  <i_i_glide_confnum>  (201) 
4

>  <i_i_glide_posenum>  (201) 
23

>  <r_i_glide_eff_state_penalty>  (201) 
0

>  <ligand_id>  (201) 
59

>  <original_smiles>  (201) 
OC1=C2OC3C4=C(C=C1)OC1N(CC5CC5)CCC24C12CCN(CC1CCC1)C3C2(O)Cc1cccnc1

>  <smiles>  (201) 
[H]OC1=C2OC3([H])C4=C(OC5([H])N(C([H])([H])C6([H])C([H])([H])C6([H])[H])C([H])([H])C([H])([H])C24C52C([H])([H])C([H])([H])N(C([H])([H])C4([H])C([H])([H])C([H])([H])C4([H])[H])C3([H])C2(O[H])C([H])([H])c2c([H])nc([H])c([H])c2[H])C([H])=C1[H]

$$$$
59:1:2
     RDKit          3D

 75 83  0  0  1  0  0  0  0  0999 V2000
    4.3799   -9.6871    3.9096 O   0  0  0  0  0  0  0  0  0  0  0  0
    4.1574   -8.6504    3.0942 C   0  0  0  0  0  0  0  0  0  0  0  0
    4.5017   -7.3760    3.5109 C   0  0  0  0  0  0  0  0  0  0  0  0
    4.3104   -7.1522    4.8294 O   0  0  0  0  0  0  0  0  0  0  0  0
    3.0341   -6.5556    4.7904 C   0  0  2  0  0  0  0  0  0  0  0  0
    2.7625   -6.4955    3.2566 C   0  0  0  0  0  0  0  0  0  0  0  0
    1.8184   -6.7528    2.3835 C   0  0  0  0  0  0  0  0  0  0  0  0
    2.0814   -8.0393    1.7175 C   0  0  0  0  0  0  0  0  0  0  0  0
    3.1374   -8.8717    2.0256 C   0  0  0  0  0  0  0  0  0  0  0  0
    1.7142   -5.6288    1.5386 O   0  0  0  0  0  0  0  0  0  0  0  0
    2.6179   -4.4664    1.6656 C   0  0  2  0  0  0  0  0  0  0  0  0
    3.3025   -4.3472    0.3985 N   0  0  0  0  0  0  0  0  0  0  0  0
    4.1043   -3.1454    0.2079 C   0  0  0  0  0  0  0  0  0  0  0  0
    4.0428   -2.6150   -1.2149 C   0  0  0  0  0  0  0  0  0  0  0  0
    4.9071   -1.4259   -1.5856 C   0  0  0  0  0  0  0  0  0  0  0  0
    3.4165   -1.2684   -1.4930 C   0  0  0  0  0  0  0  0  0  0  0  0
    3.9820   -5.5844    0.0560 C   0  0  0  0  0  0  0  0  0  0  0  0
    4.6715   -6.2601    1.2551 C   0  0  0  0  0  0  0  0  0  0  0  0
    4.0571   -6.1156    2.7125 C   0  0  2  0  0  0  0  0  0  0  0  0
    3.5404   -4.6173    2.9751 C   0  0  1  0  0  0  0  0  0  0  0  0
    4.8622   -3.8289    3.1604 C   0  0  0  0  0  0  0  0  0  0  0  0
    5.5117   -4.3129    4.4915 C   0  0  0  0  0  0  0  0  0  0  0  0
    4.5874   -4.5218    5.6323 N   0  0  0  0  0  0  0  0  0  0  0  0
    5.1858   -4.9088    6.9053 C   0  0  0  0  0  0  0  0  0  0  0  0
    6.2513   -3.9261    7.4220 C   0  0  0  0  0  0  0  0  0  0  0  0
    7.0058   -4.2714    8.7108 C   0  0  0  0  0  0  0  0  0  0  0  0
    5.9963   -3.4092    9.4769 C   0  0  0  0  0  0  0  0  0  0  0  0
    5.7442   -2.6713    8.1579 C   0  0  0  0  0  0  0  0  0  0  0  0
    3.2239   -5.0749    5.3423 C   0  0  1  0  0  0  0  0  0  0  0  0
    2.6234   -4.1595    4.2663 C   0  0  1  0  0  0  0  0  0  0  0  0
    2.7982   -2.7929    4.6474 O   0  0  0  0  0  0  0  0  0  0  0  0
    1.0405   -4.1542    4.1863 C   0  0  0  0  0  0  0  0  0  0  0  0
    0.2970   -4.2173    5.5262 C   0  0  0  0  0  0  0  0  0  0  0  0
    0.1263   -5.4396    6.2067 C   0  0  0  0  0  0  0  0  0  0  0  0
   -0.5397   -5.4466    7.4427 C   0  0  0  0  0  0  0  0  0  0  0  0
   -1.0860   -4.2472    7.9177 C   0  0  0  0  0  0  0  0  0  0  0  0
   -0.9757   -3.0746    7.2524 N   0  0  0  0  0  0  0  0  0  0  0  0
   -0.2743   -3.0618    6.0919 C   0  0  0  0  0  0  0  0  0  0  0  0
    3.8809  -10.4212    3.5702 H   0  0  0  0  0  0  0  0  0  0  0  0
    2.2843   -7.1679    5.2960 H   0  0  0  0  0  0  0  0  0  0  0  0
    1.4284   -8.3369    0.9088 H   0  0  0  0  0  0  0  0  0  0  0  0
    3.2216   -9.7750    1.4383 H   0  0  0  0  0  0  0  0  0  0  0  0
    1.9918   -3.5845    1.7741 H   0  0  0  0  0  0  0  0  0  0  0  0
    3.7623   -2.3574    0.8829 H   0  0  0  0  0  0  0  0  0  0  0  0
    5.1522   -3.3479    0.4306 H   0  0  0  0  0  0  0  0  0  0  0  0
    3.9523   -3.3793   -1.9854 H   0  0  0  0  0  0  0  0  0  0  0  0
    5.5091   -0.9730   -0.7983 H   0  0  0  0  0  0  0  0  0  0  0  0
    5.3429   -1.3976   -2.5829 H   0  0  0  0  0  0  0  0  0  0  0  0
    2.8615   -1.1474   -2.4218 H   0  0  0  0  0  0  0  0  0  0  0  0
    3.0199   -0.7283   -0.6359 H   0  0  0  0  0  0  0  0  0  0  0  0
    3.2131   -6.2514   -0.3176 H   0  0  0  0  0  0  0  0  0  0  0  0
    4.6788   -5.4452   -0.7704 H   0  0  0  0  0  0  0  0  0  0  0  0
    4.8722   -7.2916    0.9822 H   0  0  0  0  0  0  0  0  0  0  0  0
    5.6702   -5.8397    1.3222 H   0  0  0  0  0  0  0  0  0  0  0  0
    5.5896   -3.9846    2.3669 H   0  0  0  0  0  0  0  0  0  0  0  0
    4.7019   -2.7534    3.1808 H   0  0  0  0  0  0  0  0  0  0  0  0
    6.0864   -5.2226    4.3186 H   0  0  0  0  0  0  0  0  0  0  0  0
    6.2222   -3.5366    4.7488 H   0  0  0  0  0  0  0  0  0  0  0  0
    4.3885   -4.9621    7.6488 H   0  0  0  0  0  0  0  0  0  0  0  0
    5.5736   -5.9241    6.8464 H   0  0  0  0  0  0  0  0  0  0  0  0
    6.9976   -3.6693    6.6715 H   0  0  0  0  0  0  0  0  0  0  0  0
    7.0105   -5.3353    8.9550 H   0  0  0  0  0  0  0  0  0  0  0  0
    8.0132   -3.8482    8.7085 H   0  0  0  0  0  0  0  0  0  0  0  0
    5.1320   -3.9923    9.8067 H   0  0  0  0  0  0  0  0  0  0  0  0
    6.4272   -2.8019   10.2764 H   0  0  0  0  0  0  0  0  0  0  0  0
    6.3941   -1.8054    8.0152 H   0  0  0  0  0  0  0  0  0  0  0  0
    4.6971   -2.4199    7.9651 H   0  0  0  0  0  0  0  0  0  0  0  0
    2.6523   -4.9785    6.2601 H   0  0  0  0  0  0  0  0  0  0  0  0
    2.5632   -2.2342    3.9178 H   0  0  0  0  0  0  0  0  0  0  0  0
    0.6939   -3.2780    3.6302 H   0  0  0  0  0  0  0  0  0  0  0  0
    0.6236   -4.9879    3.6388 H   0  0  0  0  0  0  0  0  0  0  0  0
    0.4923   -6.3762    5.8142 H   0  0  0  0  0  0  0  0  0  0  0  0
   -0.6360   -6.3651    8.0084 H   0  0  0  0  0  0  0  0  0  0  0  0
   -1.6416   -4.2242    8.8464 H   0  0  0  0  0  0  0  0  0  0  0  0
   -0.2181   -2.1042    5.5887 H   0  0  0  0  0  0  0  0  0  0  0  0
  1  2  1  0
  1 39  1  0
  2  9  1  0
  2  3  2  0
  3 19  1  0
  3  4  1  0
  4  5  1  0
  5 29  1  0
  5  6  1  0
  5 40  1  1
  6 19  1  0
  6  7  2  0
  7  8  1  0
  7 10  1  0
  8  9  2  0
  8 41  1  0
  9 42  1  0
 10 11  1  0
 11 20  1  0
 11 12  1  0
 11 43  1  1
 12 13  1  0
 12 17  1  0
 13 14  1  0
 13 44  1  0
 13 45  1  0
 14 16  1  0
 14 15  1  0
 14 46  1  0
 15 16  1  0
 15 47  1  0
 15 48  1  0
 16 49  1  0
 16 50  1  0
 17 18  1  0
 17 51  1  0
 17 52  1  0
 19 18  1  6
 18 53  1  0
 18 54  1  0
 19 20  1  0
 20 30  1  0
 20 21  1  6
 21 22  1  0
 21 55  1  0
 21 56  1  0
 22 23  1  0
 22 57  1  0
 22 58  1  0
 23 24  1  0
 23 29  1  0
 24 25  1  0
 24 59  1  0
 24 60  1  0
 25 28  1  0
 25 26  1  0
 25 61  1  0
 26 27  1  0
 26 62  1  0
 26 63  1  0
 27 28  1  0
 27 64  1  0
 27 65  1  0
 28 66  1  0
 28 67  1  0
 29 30  1  0
 29 68  1  1
 30 31  1  1
 30 32  1  0
 31 69  1  0
 32 33  1  0
 32 70  1  0
 32 71  1  0
 33 38  1  0
 33 34  2  0
 34 35  1  0
 34 72  1  0
 35 36  2  0
 35 73  1  0
 36 37  1  0
 36 74  1  0
 37 38  2  0
 38 75  1  0
M  END
>  <i_m_ct_stereo_status>  (202) 
1

>  <s_m_source_file>  (202) 
/var/tmp/pbs.5076255.sched01/tmppnbbzaq8/41bb87crku.sdf

>  <i_m_source_file_index>  (202) 
39

>  <i_lp_mmshare_version>  (202) 
48012

>  <i_f3d_flags>  (202) 
0

>  <s_epik_input>  (202) 
W2NIXTFuW2NIXVtjSF1bY0hdYzFbQ0gyXVtDQEBdMihbT0hdKVtDQEhdKE4oW0NIMl1bQ0gyXTMpW0NIMl1bQ0hdNFtDSDJdW0NIMl1bQ0gyXTQpW0NASF0oT0M1PUMoW09IXSlbQ0hdPVtDSF02KUM3PUM2T1tDQEBIXShbQ0BdMjNbQ0BAXTU3OClOKFtDSDJdW0NIMl04KVtDSDJdW0NIXTlbQ0gyXVtDSDJdOQ==

>  <s_epik_cmdline>  (202) 
J2VwaWtfcHl0aG9uJywgJy1waHQnLCAnMi4wJywgJy1waCcsICc3LjAnLCAnLXRuJywgJzgnLCAnLW1hJywgJzIwMCcsICctaW1hZScsICc8aW5maWxlLm1hZT4nLCAnLW9tYWUnLCAnPG91dGZpbGUubWFlPic=

>  <r_epik_Ionization_Penalty>  (202) 
0.419235

>  <r_epik_Ionization_Penalty_Charging>  (202) 
0

>  <r_epik_Ionization_Penalty_Neutral>  (202) 
0.419235

>  <r_epik_State_Penalty>  (202) 
0.450297

>  <r_epik_Charging_Adjusted_Penalty>  (202) 
0.450297

>  <i_epik_Tot_Q>  (202) 
0

>  <i_epik_Tot_abs_Q>  (202) 
0

>  <s_epik_Chemistry_Notes>  (202) 
This compound contains an acetal/aminal-like group ( X-CH(R)-Y where X, Y are N, S, or O) that may be acid/base labile, releasing an aldehyde.

>  <s_lp_Force_Field>  (202) 
OPLS3e

>  <r_lp_Energy>  (202) 
303.689

>  <b_lp_Chiralities_Consistent>  (202) 
1

>  <s_lp_Variant>  (202) 
59:0-2

>  <s_i_glide_gridfile>  (202) 
pfpi4k_grid

>  <i_i_glide_lignum>  (202) 
39

>  <i_i_glide_rotatable_bonds>  (202) 
8

>  <r_i_docking_score>  (202) 
-1.73442

>  <r_i_glide_ligand_efficiency>  (202) 
-0.0456427

>  <r_i_glide_ligand_efficiency_sa>  (202) 
-0.15345

>  <r_i_glide_ligand_efficiency_ln>  (202) 
-0.373993

>  <r_i_glide_gscore>  (202) 
-1.73442

>  <r_i_glide_lipo>  (202) 
-0.19584

>  <r_i_glide_hbond>  (202) 
-0.0881779

>  <r_i_glide_metal>  (202) 
-0

>  <r_i_glide_rewards>  (202) 
0

>  <r_i_glide_evdw>  (202) 
-22.9177

>  <r_i_glide_ecoul>  (202) 
-5.02248

>  <r_i_glide_erotb>  (202) 
0.463062

>  <r_i_glide_esite>  (202) 
-0.0142068

>  <r_i_glide_emodel>  (202) 
-30.0527

>  <r_i_glide_energy>  (202) 
-27.9402

>  <r_i_glide_einternal>  (202) 
0.526114

>  <r_i_glide_intrahb_reward>  (202) 
-0

>  <i_i_glide_confnum>  (202) 
4

>  <i_i_glide_posenum>  (202) 
16

>  <r_i_glide_eff_state_penalty>  (202) 
0

>  <ligand_id>  (202) 
59

>  <original_smiles>  (202) 
OC1=C2OC3C4=C(C=C1)OC1N(CC5CC5)CCC24C12CCN(CC1CCC1)C3C2(O)Cc1cccnc1

>  <smiles>  (202) 
[H]OC1=C2OC3([H])C4=C(OC5([H])N(C([H])([H])C6([H])C([H])([H])C6([H])[H])C([H])([H])C([H])([H])C24C52C([H])([H])C([H])([H])N(C([H])([H])C4([H])C([H])([H])C([H])([H])C4([H])[H])C3([H])C2(O[H])C([H])([H])c2c([H])nc([H])c([H])c2[H])C([H])=C1[H]

$$$$
59:2:0
     RDKit          3D

 76 84  0  0  1  0  0  0  0  0999 V2000
    6.7849   -4.9061    0.5235 O   0  0  0  0  0  0  0  0  0  0  0  0
    5.6322   -4.5377    1.0973 C   0  0  0  0  0  0  0  0  0  0  0  0
    5.4623   -4.7484    2.4448 C   0  0  0  0  0  0  0  0  0  0  0  0
    6.0108   -5.9093    2.8668 O   0  0  0  0  0  0  0  0  0  0  0  0
    4.8811   -6.7524    2.8771 C   0  0  2  0  0  0  0  0  0  0  0  0
    3.7858   -5.7727    2.3913 C   0  0  0  0  0  0  0  0  0  0  0  0
    2.8057   -5.7355    1.5213 C   0  0  0  0  0  0  0  0  0  0  0  0
    3.2177   -4.9394    0.3498 C   0  0  0  0  0  0  0  0  0  0  0  0
    4.4722   -4.4020    0.1762 C   0  0  0  0  0  0  0  0  0  0  0  0
    1.6737   -5.2737    2.2144 O   0  0  0  0  0  0  0  0  0  0  0  0
    1.7232   -4.8532    3.6295 C   0  0  2  0  0  0  0  0  0  0  0  0
    1.3055   -3.4742    3.6558 N   0  0  0  0  0  0  0  0  0  0  0  0
    1.0675   -2.9002    4.9760 C   0  0  0  0  0  0  0  0  0  0  0  0
   -0.0771   -1.9044    4.9820 C   0  0  0  0  0  0  0  0  0  0  0  0
   -0.4223   -1.2079    6.2840 C   0  0  0  0  0  0  0  0  0  0  0  0
   -1.3700   -2.2170    5.7028 C   0  0  0  0  0  0  0  0  0  0  0  0
    2.1366   -2.6618    2.7775 C   0  0  0  0  0  0  0  0  0  0  0  0
    3.6290   -3.0412    2.8398 C   0  0  0  0  0  0  0  0  0  0  0  0
    4.0662   -4.5448    3.1126 C   0  0  2  0  0  0  0  0  0  0  0  0
    3.1638   -5.2016    4.2614 C   0  0  1  0  0  0  0  0  0  0  0  0
    3.6870   -4.5309    5.5598 C   0  0  0  0  0  0  0  0  0  0  0  0
    5.1424   -5.0438    5.7970 C   0  0  0  0  0  0  0  0  0  0  0  0
    5.3865   -6.4719    5.4943 N   0  0  0  0  0  0  0  0  0  0  0  0
    6.6830   -7.0214    5.8757 C   0  0  0  0  0  0  0  0  0  0  0  0
    7.8955   -6.6423    5.0229 C   0  0  0  0  0  0  0  0  0  0  0  0
    8.2097   -7.4892    3.7789 C   0  0  0  0  0  0  0  0  0  0  0  0
    9.1638   -8.3139    4.6354 C   0  0  0  0  0  0  0  0  0  0  0  0
    9.2730   -7.0870    5.5430 C   0  0  0  0  0  0  0  0  0  0  0  0
    4.6201   -7.1360    4.3945 C   0  0  1  0  0  0  0  0  0  0  0  0
    3.1455   -6.8002    4.6270 C   0  0  1  0  0  0  0  0  0  0  0  0
    2.7648   -7.0409    5.9773 O   0  0  0  0  0  0  0  0  0  0  0  0
    2.1304   -7.7974    3.9435 C   0  0  0  0  0  0  0  0  0  0  0  0
    2.4597   -9.2784    4.0900 C   0  0  0  0  0  0  0  0  0  0  0  0
    3.2513   -9.9465    3.1250 C   0  0  0  0  0  0  0  0  0  0  0  0
    3.5297  -11.3180    3.2858 C   0  0  0  0  0  0  0  0  0  0  0  0
    3.0045  -12.0039    4.3940 C   0  0  0  0  0  0  0  0  0  0  0  0
    2.2264  -11.3406    5.2815 N   0  0  0  0  0  0  0  0  0  0  0  0
    1.9376  -10.0249    5.1685 C   0  0  0  0  0  0  0  0  0  0  0  0
    7.3093   -5.2887    1.2074 H   0  0  0  0  0  0  0  0  0  0  0  0
    4.9759   -7.6078    2.2109 H   0  0  0  0  0  0  0  0  0  0  0  0
    2.4985   -4.7544   -0.4373 H   0  0  0  0  0  0  0  0  0  0  0  0
    4.6419   -3.8514   -0.7366 H   0  0  0  0  0  0  0  0  0  0  0  0
    0.9622   -5.4300    4.1447 H   0  0  0  0  0  0  0  0  0  0  0  0
    0.8308   -3.6997    5.6823 H   0  0  0  0  0  0  0  0  0  0  0  0
    1.9530   -2.3751    5.3277 H   0  0  0  0  0  0  0  0  0  0  0  0
   -0.1359   -1.2654    4.1016 H   0  0  0  0  0  0  0  0  0  0  0  0
    0.1470   -1.4929    7.1667 H   0  0  0  0  0  0  0  0  0  0  0  0
   -0.7259   -0.1610    6.2450 H   0  0  0  0  0  0  0  0  0  0  0  0
   -2.2984   -1.8341    5.2812 H   0  0  0  0  0  0  0  0  0  0  0  0
   -1.4380   -3.1921    6.1786 H   0  0  0  0  0  0  0  0  0  0  0  0
    1.7964   -2.8361    1.7601 H   0  0  0  0  0  0  0  0  0  0  0  0
    1.9939   -1.5971    2.9600 H   0  0  0  0  0  0  0  0  0  0  0  0
    4.1077   -2.6166    1.9648 H   0  0  0  0  0  0  0  0  0  0  0  0
    4.0631   -2.4627    3.6467 H   0  0  0  0  0  0  0  0  0  0  0  0
    3.7370   -3.4462    5.5100 H   0  0  0  0  0  0  0  0  0  0  0  0
    3.0518   -4.7400    6.4243 H   0  0  0  0  0  0  0  0  0  0  0  0
    5.8358   -4.4269    5.2312 H   0  0  0  0  0  0  0  0  0  0  0  0
    5.3870   -4.8606    6.8434 H   0  0  0  0  0  0  0  0  0  0  0  0
    6.8825   -6.7279    6.9049 H   0  0  0  0  0  0  0  0  0  0  0  0
    6.6026   -8.1069    5.9039 H   0  0  0  0  0  0  0  0  0  0  0  0
    7.9362   -5.5784    4.7920 H   0  0  0  0  0  0  0  0  0  0  0  0
    7.3594   -8.0521    3.3965 H   0  0  0  0  0  0  0  0  0  0  0  0
    8.7101   -6.9203    2.9926 H   0  0  0  0  0  0  0  0  0  0  0  0
    8.6617   -9.1539    5.1155 H   0  0  0  0  0  0  0  0  0  0  0  0
   10.0821   -8.6099    4.1267 H   0  0  0  0  0  0  0  0  0  0  0  0
   10.0842   -6.4164    5.2529 H   0  0  0  0  0  0  0  0  0  0  0  0
    9.3037   -7.3164    6.6098 H   0  0  0  0  0  0  0  0  0  0  0  0
    4.7911   -8.2032    4.4953 H   0  0  0  0  0  0  0  0  0  0  0  0
    2.9645   -7.9435    6.1790 H   0  0  0  0  0  0  0  0  0  0  0  0
    1.1228   -7.6251    4.3285 H   0  0  0  0  0  0  0  0  0  0  0  0
    2.0418   -7.6606    2.8752 H   0  0  0  0  0  0  0  0  0  0  0  0
    3.6383   -9.4232    2.2631 H   0  0  0  0  0  0  0  0  0  0  0  0
    4.1256  -11.8391    2.5433 H   0  0  0  0  0  0  0  0  0  0  0  0
    3.1622  -13.0558    4.6018 H   0  0  0  0  0  0  0  0  0  0  0  0
    1.3139   -9.6313    5.9618 H   0  0  0  0  0  0  0  0  0  0  0  0
    1.8765  -11.8370    6.1256 H   0  0  0  0  0  0  0  0  0  0  0  0
  1  2  1  0
  1 39  1  0
  2  9  1  0
  2  3  2  0
  3 19  1  0
  3  4  1  0
  4  5  1  0
  5 29  1  0
  5  6  1  0
  5 40  1  6
  6 19  1  0
  6  7  2  0
  7  8  1  0
  7 10  1  0
  8  9  2  0
  8 41  1  0
  9 42  1  0
 10 11  1  0
 11 20  1  0
 11 12  1  0
 11 43  1  1
 12 13  1  0
 12 17  1  0
 13 14  1  0
 13 44  1  0
 13 45  1  0
 14 16  1  0
 14 15  1  0
 14 46  1  0
 15 16  1  0
 15 47  1  0
 15 48  1  0
 16 49  1  0
 16 50  1  0
 17 18  1  0
 17 51  1  0
 17 52  1  0
 19 18  1  6
 18 53  1  0
 18 54  1  0
 19 20  1  0
 20 30  1  0
 20 21  1  1
 21 22  1  0
 21 55  1  0
 21 56  1  0
 22 23  1  0
 22 57  1  0
 22 58  1  0
 23 24  1  0
 23 29  1  0
 24 25  1  0
 24 59  1  0
 24 60  1  0
 25 28  1  0
 25 26  1  0
 25 61  1  0
 26 27  1  0
 26 62  1  0
 26 63  1  0
 27 28  1  0
 27 64  1  0
 27 65  1  0
 28 66  1  0
 28 67  1  0
 29 30  1  0
 29 68  1  6
 30 31  1  1
 30 32  1  0
 31 69  1  0
 32 33  1  0
 32 70  1  0
 32 71  1  0
 33 38  1  0
 33 34  2  0
 34 35  1  0
 34 72  1  0
 35 36  2  0
 35 73  1  0
 36 37  1  0
 36 74  1  0
 37 38  2  0
 37 76  1  0
 38 75  1  0
M  CHG  1  37   1
M  END
>  <i_m_ct_stereo_status>  (203) 
1

>  <s_m_source_file>  (203) 
/var/tmp/pbs.5076255.sched01/tmppnbbzaq8/41bb87crku.sdf

>  <i_m_source_file_index>  (203) 
40

>  <i_lp_mmshare_version>  (203) 
48012

>  <i_f3d_flags>  (203) 
0

>  <s_epik_input>  (203) 
W2NIXTFuW2NIXVtjSF1bY0hdYzFbQ0gyXVtDQEBdMihbT0hdKVtDQEhdKE4oW0NIMl1bQ0gyXTMpW0NIMl1bQ0hdNFtDSDJdW0NIMl1bQ0gyXTQpW0NASF0oT0M1PUMoW09IXSlbQ0hdPVtDSF02KUM3PUM2T1tDQEBIXShbQ0BdMjNbQ0BAXTU3OClOKFtDSDJdW0NIMl04KVtDSDJdW0NIXTlbQ0gyXVtDSDJdOQ==

>  <s_epik_cmdline>  (203) 
J2VwaWtfcHl0aG9uJywgJy1waHQnLCAnMi4wJywgJy1waCcsICc3LjAnLCAnLXRuJywgJzgnLCAnLW1hJywgJzIwMCcsICctaW1hZScsICc8aW5maWxlLm1hZT4nLCAnLW9tYWUnLCAnPG91dGZpbGUubWFlPic=

>  <r_epik_Ionization_Penalty>  (203) 
1.91496

>  <r_epik_Ionization_Penalty_Charging>  (203) 
1.60953

>  <r_epik_Ionization_Penalty_Neutral>  (203) 
0.305432

>  <r_epik_State_Penalty>  (203) 
2.23215

>  <r_epik_Charging_Adjusted_Penalty>  (203) 
3.84167

>  <i_epik_Tot_Q>  (203) 
1

>  <i_epik_Tot_abs_Q>  (203) 
1

>  <s_epik_Chemistry_Notes>  (203) 
This compound contains an acetal/aminal-like group ( X-CH(R)-Y where X, Y are N, S, or O) that may be acid/base labile, releasing an aldehyde.

>  <s_lp_Force_Field>  (203) 
OPLS3e

>  <r_lp_Energy>  (203) 
306.088

>  <b_lp_Chiralities_Consistent>  (203) 
1

>  <s_lp_Variant>  (203) 
59:0-3

>  <s_i_glide_gridfile>  (203) 
pfpi4k_grid

>  <i_i_glide_lignum>  (203) 
40

>  <i_i_glide_rotatable_bonds>  (203) 
8

>  <r_i_docking_score>  (203) 
-2.6851

>  <r_i_glide_ligand_efficiency>  (203) 
-0.0706605

>  <r_i_glide_ligand_efficiency_sa>  (203) 
-0.237559

>  <r_i_glide_ligand_efficiency_ln>  (203) 
-0.578986

>  <r_i_glide_gscore>  (203) 
-2.6851

>  <r_i_glide_lipo>  (203) 
-0.134338

>  <r_i_glide_hbond>  (203) 
-0.210712

>  <r_i_glide_metal>  (203) 
-0

>  <r_i_glide_rewards>  (203) 
-0.53

>  <r_i_glide_evdw>  (203) 
-22.1939

>  <r_i_glide_ecoul>  (203) 
-6.11592

>  <r_i_glide_erotb>  (203) 
0.322982

>  <r_i_glide_esite>  (203) 
-0.105947

>  <r_i_glide_emodel>  (203) 
-35.1036

>  <r_i_glide_energy>  (203) 
-28.3098

>  <r_i_glide_einternal>  (203) 
1.17025

>  <r_i_glide_intrahb_reward>  (203) 
-0

>  <i_i_glide_confnum>  (203) 
4

>  <i_i_glide_posenum>  (203) 
13

>  <r_i_glide_eff_state_penalty>  (203) 
0

>  <ligand_id>  (203) 
59

>  <original_smiles>  (203) 
OC1=C2OC3C4=C(C=C1)OC1N(CC5CC5)CCC24C12CCN(CC1CCC1)C3C2(O)Cc1cccnc1

>  <smiles>  (203) 
[H]OC1=C2OC3([H])C4=C(OC5([H])N(C([H])([H])C6([H])C([H])([H])C6([H])[H])C([H])([H])C([H])([H])C24C52C([H])([H])C([H])([H])N(C([H])([H])C4([H])C([H])([H])C([H])([H])C4([H])[H])C3([H])C2(O[H])C([H])([H])c2c([H])c([H])c([H])[n+]([H])c2[H])C([H])=C1[H]

$$$$
59:2:1
     RDKit          3D

 76 84  0  0  1  0  0  0  0  0999 V2000
    8.5910   -6.2528    0.7861 O   0  0  0  0  0  0  0  0  0  0  0  0
    7.3946   -6.5799    1.2846 C   0  0  0  0  0  0  0  0  0  0  0  0
    6.2500   -5.9520    0.8214 C   0  0  0  0  0  0  0  0  0  0  0  0
    6.4256   -4.6259    0.5899 O   0  0  0  0  0  0  0  0  0  0  0  0
    5.9108   -4.1155    1.7886 C   0  0  2  0  0  0  0  0  0  0  0  0
    5.4644   -5.4062    2.5263 C   0  0  0  0  0  0  0  0  0  0  0  0
    5.5699   -5.9521    3.7139 C   0  0  0  0  0  0  0  0  0  0  0  0
    6.6007   -7.0031    3.6908 C   0  0  0  0  0  0  0  0  0  0  0  0
    7.4014   -7.2874    2.5988 C   0  0  0  0  0  0  0  0  0  0  0  0
    4.2687   -6.3637    4.0838 O   0  0  0  0  0  0  0  0  0  0  0  0
    3.1138   -6.2333    3.1819 C   0  0  2  0  0  0  0  0  0  0  0  0
    2.6094   -7.5596    2.9570 N   0  0  0  0  0  0  0  0  0  0  0  0
    1.3274   -7.6556    2.2600 C   0  0  0  0  0  0  0  0  0  0  0  0
    0.4311   -8.7344    2.8371 C   0  0  0  0  0  0  0  0  0  0  0  0
   -0.9981   -8.8439    2.3390 C   0  0  0  0  0  0  0  0  0  0  0  0
   -0.7288   -8.3748    3.7432 C   0  0  0  0  0  0  0  0  0  0  0  0
    3.6488   -8.4375    2.4452 C   0  0  0  0  0  0  0  0  0  0  0  0
    4.5553   -7.7562    1.3960 C   0  0  0  0  0  0  0  0  0  0  0  0
    4.8626   -6.2005    1.4857 C   0  0  2  0  0  0  0  0  0  0  0  0
    3.5398   -5.3823    1.8753 C   0  0  1  0  0  0  0  0  0  0  0  0
    2.7102   -5.4218    0.5600 C   0  0  0  0  0  0  0  0  0  0  0  0
    3.4616   -4.5329   -0.4791 C   0  0  0  0  0  0  0  0  0  0  0  0
    4.0530   -3.2688    0.0201 N   0  0  0  0  0  0  0  0  0  0  0  0
    4.7088   -2.4311   -0.9708 C   0  0  0  0  0  0  0  0  0  0  0  0
    3.7143   -1.7442   -1.9094 C   0  0  0  0  0  0  0  0  0  0  0  0
    3.2095   -2.4764   -3.1675 C   0  0  0  0  0  0  0  0  0  0  0  0
    4.2858   -1.7360   -3.9464 C   0  0  0  0  0  0  0  0  0  0  0  0
    4.2310   -0.6572   -2.8647 C   0  0  0  0  0  0  0  0  0  0  0  0
    4.6369   -3.2760    1.3911 C   0  0  1  0  0  0  0  0  0  0  0  0
    3.5084   -3.8041    2.3030 C   0  0  1  0  0  0  0  0  0  0  0  0
    2.2098   -3.2602    2.0438 O   0  0  0  0  0  0  0  0  0  0  0  0
    3.6229   -3.3163    3.7937 C   0  0  0  0  0  0  0  0  0  0  0  0
    3.7525   -1.8010    4.0401 C   0  0  0  0  0  0  0  0  0  0  0  0
    4.0081   -1.3622    5.3625 C   0  0  0  0  0  0  0  0  0  0  0  0
    4.1556    0.0247    5.6237 C   0  0  0  0  0  0  0  0  0  0  0  0
    4.0564    0.9417    4.5579 C   0  0  0  0  0  0  0  0  0  0  0  0
    3.7969    0.4941    3.3176 N   0  0  0  0  0  0  0  0  0  0  0  0
    3.6134   -0.8101    3.0304 C   0  0  0  0  0  0  0  0  0  0  0  0
    9.2368   -6.8063    1.2133 H   0  0  0  0  0  0  0  0  0  0  0  0
    6.5979   -3.5342    2.3917 H   0  0  0  0  0  0  0  0  0  0  0  0
    6.7304   -7.6124    4.5690 H   0  0  0  0  0  0  0  0  0  0  0  0
    8.1050   -8.0997    2.7107 H   0  0  0  0  0  0  0  0  0  0  0  0
    2.3464   -5.6853    3.7241 H   0  0  0  0  0  0  0  0  0  0  0  0
    0.7994   -6.7029    2.3305 H   0  0  0  0  0  0  0  0  0  0  0  0
    1.4810   -7.8836    1.2061 H   0  0  0  0  0  0  0  0  0  0  0  0
    0.9252   -9.6897    3.0139 H   0  0  0  0  0  0  0  0  0  0  0  0
   -1.3274   -8.1077    1.6079 H   0  0  0  0  0  0  0  0  0  0  0  0
   -1.4235   -9.8396    2.2211 H   0  0  0  0  0  0  0  0  0  0  0  0
   -0.9746   -9.0604    4.5503 H   0  0  0  0  0  0  0  0  0  0  0  0
   -0.8722   -7.3213    3.9722 H   0  0  0  0  0  0  0  0  0  0  0  0
    4.2673   -8.7158    3.2949 H   0  0  0  0  0  0  0  0  0  0  0  0
    3.2312   -9.3681    2.0627 H   0  0  0  0  0  0  0  0  0  0  0  0
    5.4550   -8.3562    1.3028 H   0  0  0  0  0  0  0  0  0  0  0  0
    4.0735   -7.9032    0.4348 H   0  0  0  0  0  0  0  0  0  0  0  0
    2.5853   -6.4110    0.1343 H   0  0  0  0  0  0  0  0  0  0  0  0
    1.6851   -5.0783    0.6896 H   0  0  0  0  0  0  0  0  0  0  0  0
    4.2368   -5.1198   -0.9681 H   0  0  0  0  0  0  0  0  0  0  0  0
    2.7135   -4.2969   -1.2336 H   0  0  0  0  0  0  0  0  0  0  0  0
    5.2813   -1.6507   -0.4632 H   0  0  0  0  0  0  0  0  0  0  0  0
    5.4424   -3.0111   -1.5357 H   0  0  0  0  0  0  0  0  0  0  0  0
    2.8772   -1.3243   -1.3469 H   0  0  0  0  0  0  0  0  0  0  0  0
    3.3471   -3.5614   -3.1717 H   0  0  0  0  0  0  0  0  0  0  0  0
    2.1930   -2.1918   -3.4445 H   0  0  0  0  0  0  0  0  0  0  0  0
    5.2174   -2.2988   -3.9097 H   0  0  0  0  0  0  0  0  0  0  0  0
    3.9869   -1.4135   -4.9439 H   0  0  0  0  0  0  0  0  0  0  0  0
    3.4939    0.1177   -3.0859 H   0  0  0  0  0  0  0  0  0  0  0  0
    5.1935   -0.2362   -2.5698 H   0  0  0  0  0  0  0  0  0  0  0  0
    4.9760   -2.2664    1.6061 H   0  0  0  0  0  0  0  0  0  0  0  0
    2.2897   -2.3301    1.9311 H   0  0  0  0  0  0  0  0  0  0  0  0
    2.7535   -3.6605    4.3544 H   0  0  0  0  0  0  0  0  0  0  0  0
    4.4724   -3.7607    4.3000 H   0  0  0  0  0  0  0  0  0  0  0  0
    4.0865   -2.0710    6.1719 H   0  0  0  0  0  0  0  0  0  0  0  0
    4.3355    0.3755    6.6280 H   0  0  0  0  0  0  0  0  0  0  0  0
    4.1657    2.0167    4.6473 H   0  0  0  0  0  0  0  0  0  0  0  0
    3.3861   -0.9709    1.9819 H   0  0  0  0  0  0  0  0  0  0  0  0
    3.7349    1.1736    2.5521 H   0  0  0  0  0  0  0  0  0  0  0  0
  1  2  1  0
  1 39  1  0
  2  9  1  0
  2  3  2  0
  3 19  1  0
  3  4  1  0
  4  5  1  0
  5 29  1  0
  5  6  1  0
  5 40  1  1
  6 19  1  0
  6  7  2  0
  7  8  1  0
  7 10  1  0
  8  9  2  0
  8 41  1  0
  9 42  1  0
 10 11  1  0
 11 20  1  0
 11 12  1  0
 11 43  1  1
 12 13  1  0
 12 17  1  0
 13 14  1  0
 13 44  1  0
 13 45  1  0
 14 16  1  0
 14 15  1  0
 14 46  1  0
 15 16  1  0
 15 47  1  0
 15 48  1  0
 16 49  1  0
 16 50  1  0
 17 18  1  0
 17 51  1  0
 17 52  1  0
 19 18  1  1
 18 53  1  0
 18 54  1  0
 19 20  1  0
 20 30  1  0
 20 21  1  6
 21 22  1  0
 21 55  1  0
 21 56  1  0
 22 23  1  0
 22 57  1  0
 22 58  1  0
 23 24  1  0
 23 29  1  0
 24 25  1  0
 24 59  1  0
 24 60  1  0
 25 28  1  0
 25 26  1  0
 25 61  1  0
 26 27  1  0
 26 62  1  0
 26 63  1  0
 27 28  1  0
 27 64  1  0
 27 65  1  0
 28 66  1  0
 28 67  1  0
 29 30  1  0
 29 68  1  1
 30 31  1  6
 30 32  1  0
 31 69  1  0
 32 33  1  0
 32 70  1  0
 32 71  1  0
 33 38  1  0
 33 34  2  0
 34 35  1  0
 34 72  1  0
 35 36  2  0
 35 73  1  0
 36 37  1  0
 36 74  1  0
 37 38  2  0
 37 76  1  0
 38 75  1  0
M  CHG  1  37   1
M  END
>  <i_m_ct_stereo_status>  (204) 
1

>  <s_m_source_file>  (204) 
/var/tmp/pbs.5076255.sched01/tmppnbbzaq8/41bb87crku.sdf

>  <i_m_source_file_index>  (204) 
40

>  <i_lp_mmshare_version>  (204) 
48012

>  <i_f3d_flags>  (204) 
0

>  <s_epik_input>  (204) 
W2NIXTFuW2NIXVtjSF1bY0hdYzFbQ0gyXVtDQEBdMihbT0hdKVtDQEhdKE4oW0NIMl1bQ0gyXTMpW0NIMl1bQ0hdNFtDSDJdW0NIMl1bQ0gyXTQpW0NASF0oT0M1PUMoW09IXSlbQ0hdPVtDSF02KUM3PUM2T1tDQEBIXShbQ0BdMjNbQ0BAXTU3OClOKFtDSDJdW0NIMl04KVtDSDJdW0NIXTlbQ0gyXVtDSDJdOQ==

>  <s_epik_cmdline>  (204) 
J2VwaWtfcHl0aG9uJywgJy1waHQnLCAnMi4wJywgJy1waCcsICc3LjAnLCAnLXRuJywgJzgnLCAnLW1hJywgJzIwMCcsICctaW1hZScsICc8aW5maWxlLm1hZT4nLCAnLW9tYWUnLCAnPG91dGZpbGUubWFlPic=

>  <r_epik_Ionization_Penalty>  (204) 
1.91496

>  <r_epik_Ionization_Penalty_Charging>  (204) 
1.60953

>  <r_epik_Ionization_Penalty_Neutral>  (204) 
0.305432

>  <r_epik_State_Penalty>  (204) 
2.23215

>  <r_epik_Charging_Adjusted_Penalty>  (204) 
3.84167

>  <i_epik_Tot_Q>  (204) 
1

>  <i_epik_Tot_abs_Q>  (204) 
1

>  <s_epik_Chemistry_Notes>  (204) 
This compound contains an acetal/aminal-like group ( X-CH(R)-Y where X, Y are N, S, or O) that may be acid/base labile, releasing an aldehyde.

>  <s_lp_Force_Field>  (204) 
OPLS3e

>  <r_lp_Energy>  (204) 
306.088

>  <b_lp_Chiralities_Consistent>  (204) 
1

>  <s_lp_Variant>  (204) 
59:0-3

>  <s_i_glide_gridfile>  (204) 
pfpi4k_grid

>  <i_i_glide_lignum>  (204) 
40

>  <i_i_glide_rotatable_bonds>  (204) 
8

>  <r_i_docking_score>  (204) 
-2.23175

>  <r_i_glide_ligand_efficiency>  (204) 
-0.0587302

>  <r_i_glide_ligand_efficiency_sa>  (204) 
-0.19745

>  <r_i_glide_ligand_efficiency_ln>  (204) 
-0.481231

>  <r_i_glide_gscore>  (204) 
-2.23175

>  <r_i_glide_lipo>  (204) 
-0.607589

>  <r_i_glide_hbond>  (204) 
0

>  <r_i_glide_metal>  (204) 
-0

>  <r_i_glide_rewards>  (204) 
0

>  <r_i_glide_evdw>  (204) 
-29.5706

>  <r_i_glide_ecoul>  (204) 
-4.0052

>  <r_i_glide_erotb>  (204) 
0.461403

>  <r_i_glide_esite>  (204) 
-0.00625209

>  <r_i_glide_emodel>  (204) 
-36.3983

>  <r_i_glide_energy>  (204) 
-33.5758

>  <r_i_glide_einternal>  (204) 
5.01529

>  <r_i_glide_intrahb_reward>  (204) 
-0

>  <i_i_glide_confnum>  (204) 
4

>  <i_i_glide_posenum>  (204) 
38

>  <r_i_glide_eff_state_penalty>  (204) 
0

>  <ligand_id>  (204) 
59

>  <original_smiles>  (204) 
OC1=C2OC3C4=C(C=C1)OC1N(CC5CC5)CCC24C12CCN(CC1CCC1)C3C2(O)Cc1cccnc1

>  <smiles>  (204) 
[H]OC1=C2OC3([H])C4=C(OC5([H])N(C([H])([H])C6([H])C([H])([H])C6([H])[H])C([H])([H])C([H])([H])C24C52C([H])([H])C([H])([H])N(C([H])([H])C4([H])C([H])([H])C([H])([H])C4([H])[H])C3([H])C2(O[H])C([H])([H])c2c([H])c([H])c([H])[n+]([H])c2[H])C([H])=C1[H]

$$$$
59:2:2
     RDKit          3D

 76 84  0  0  1  0  0  0  0  0999 V2000
    7.0939   -5.1478    0.5343 O   0  0  0  0  0  0  0  0  0  0  0  0
    5.9413   -4.6833    1.0270 C   0  0  0  0  0  0  0  0  0  0  0  0
    5.6704   -4.8519    2.3717 C   0  0  0  0  0  0  0  0  0  0  0  0
    6.1176   -6.0252    2.8809 O   0  0  0  0  0  0  0  0  0  0  0  0
    4.9238   -6.7813    2.8254 C   0  0  2  0  0  0  0  0  0  0  0  0
    3.9290   -5.7375    2.2371 C   0  0  0  0  0  0  0  0  0  0  0  0
    3.0102   -5.6487    1.3060 C   0  0  0  0  0  0  0  0  0  0  0  0
    3.5477   -4.9167    0.1427 C   0  0  0  0  0  0  0  0  0  0  0  0
    4.8471   -4.4853    0.0373 C   0  0  0  0  0  0  0  0  0  0  0  0
    1.8751   -5.0734    1.9021 O   0  0  0  0  0  0  0  0  0  0  0  0
    1.8645   -4.6276    3.3098 C   0  0  2  0  0  0  0  0  0  0  0  0
    1.5549   -3.2204    3.2835 N   0  0  0  0  0  0  0  0  0  0  0  0
    1.2867   -2.5988    4.5766 C   0  0  0  0  0  0  0  0  0  0  0  0
    0.2132   -1.5299    4.4968 C   0  0  0  0  0  0  0  0  0  0  0  0
   -0.1447   -0.7632    5.7570 C   0  0  0  0  0  0  0  0  0  0  0  0
   -1.1311   -1.7287    5.1672 C   0  0  0  0  0  0  0  0  0  0  0  0
    2.5011   -2.4983    2.4425 C   0  0  0  0  0  0  0  0  0  0  0  0
    3.9526   -2.9941    2.6049 C   0  0  0  0  0  0  0  0  0  0  0  0
    4.2557   -4.5178    2.9408 C   0  0  2  0  0  0  0  0  0  0  0  0
    3.2268   -5.0754    4.0363 C   0  0  1  0  0  0  0  0  0  0  0  0
    3.7156   -4.4111    5.3452 C   0  0  0  0  0  0  0  0  0  0  0  0
    5.0975   -5.0379    5.6831 C   0  0  0  0  0  0  0  0  0  0  0  0
    5.2253   -6.5091    5.4906 N   0  0  0  0  0  0  0  0  0  0  0  0
    6.5032   -7.1134    5.8511 C   0  0  0  0  0  0  0  0  0  0  0  0
    6.9767   -6.7484    7.2633 C   0  0  0  0  0  0  0  0  0  0  0  0
    7.7808   -5.4488    7.4662 C   0  0  0  0  0  0  0  0  0  0  0  0
    9.0485   -6.2878    7.3756 C   0  0  0  0  0  0  0  0  0  0  0  0
    8.2024   -7.4772    7.8347 C   0  0  0  0  0  0  0  0  0  0  0  0
    4.5119   -7.1167    4.3255 C   0  0  1  0  0  0  0  0  0  0  0  0
    3.0524   -6.6597    4.4398 C   0  0  1  0  0  0  0  0  0  0  0  0
    2.5685   -6.8306    5.7691 O   0  0  0  0  0  0  0  0  0  0  0  0
    2.0033   -7.5931    3.7144 C   0  0  0  0  0  0  0  0  0  0  0  0
    2.3661   -9.0704    3.6652 C   0  0  0  0  0  0  0  0  0  0  0  0
    2.0140   -9.9521    4.7105 C   0  0  0  0  0  0  0  0  0  0  0  0
    2.3536  -11.3158    4.6168 C   0  0  0  0  0  0  0  0  0  0  0  0
    3.0384  -11.7821    3.4723 C   0  0  0  0  0  0  0  0  0  0  0  0
    3.3551  -10.9190    2.4882 N   0  0  0  0  0  0  0  0  0  0  0  0
    3.0350   -9.6047    2.5311 C   0  0  0  0  0  0  0  0  0  0  0  0
    7.5534   -5.5373    1.2581 H   0  0  0  0  0  0  0  0  0  0  0  0
    5.0007   -7.6547    2.1722 H   0  0  0  0  0  0  0  0  0  0  0  0
    2.8810   -4.6824   -0.6819 H   0  0  0  0  0  0  0  0  0  0  0  0
    5.1094   -3.9661   -0.8718 H   0  0  0  0  0  0  0  0  0  0  0  0
    1.0361   -5.1394    3.7908 H   0  0  0  0  0  0  0  0  0  0  0  0
    0.9597   -3.3604    5.2879 H   0  0  0  0  0  0  0  0  0  0  0  0
    2.1835   -2.1226    4.9619 H   0  0  0  0  0  0  0  0  0  0  0  0
    0.2362   -0.9204    3.5927 H   0  0  0  0  0  0  0  0  0  0  0  0
    0.3640   -1.0500    6.6758 H   0  0  0  0  0  0  0  0  0  0  0  0
   -0.3781    0.2992    5.6669 H   0  0  0  0  0  0  0  0  0  0  0  0
   -2.0075   -1.3055    4.6750 H   0  0  0  0  0  0  0  0  0  0  0  0
   -1.2888   -2.6758    5.6785 H   0  0  0  0  0  0  0  0  0  0  0  0
    2.1978   -2.6692    1.4117 H   0  0  0  0  0  0  0  0  0  0  0  0
    2.4271   -1.4219    2.5951 H   0  0  0  0  0  0  0  0  0  0  0  0
    4.5133   -2.6278    1.7536 H   0  0  0  0  0  0  0  0  0  0  0  0
    4.3788   -2.4271    3.4245 H   0  0  0  0  0  0  0  0  0  0  0  0
    3.8599   -3.3331    5.2819 H   0  0  0  0  0  0  0  0  0  0  0  0
    3.0187   -4.5471    6.1768 H   0  0  0  0  0  0  0  0  0  0  0  0
    5.8764   -4.5235    5.1269 H   0  0  0  0  0  0  0  0  0  0  0  0
    5.2591   -4.7869    6.7275 H   0  0  0  0  0  0  0  0  0  0  0  0
    6.3942   -8.1971    5.8123 H   0  0  0  0  0  0  0  0  0  0  0  0
    7.2636   -6.8643    5.1146 H   0  0  0  0  0  0  0  0  0  0  0  0
    6.1625   -6.8094    7.9868 H   0  0  0  0  0  0  0  0  0  0  0  0
    7.6777   -4.7153    6.6666 H   0  0  0  0  0  0  0  0  0  0  0  0
    7.6158   -5.0007    8.4514 H   0  0  0  0  0  0  0  0  0  0  0  0
    9.3909   -6.3908    6.3489 H   0  0  0  0  0  0  0  0  0  0  0  0
    9.8406   -5.9812    8.0572 H   0  0  0  0  0  0  0  0  0  0  0  0
    8.1685   -7.5795    8.9248 H   0  0  0  0  0  0  0  0  0  0  0  0
    8.4294   -8.4263    7.3457 H   0  0  0  0  0  0  0  0  0  0  0  0
    4.5964   -8.1940    4.4347 H   0  0  0  0  0  0  0  0  0  0  0  0
    2.6631   -7.7439    5.9887 H   0  0  0  0  0  0  0  0  0  0  0  0
    1.0198   -7.4773    4.1719 H   0  0  0  0  0  0  0  0  0  0  0  0
    1.8265   -7.3311    2.6823 H   0  0  0  0  0  0  0  0  0  0  0  0
    1.4793   -9.5994    5.5861 H   0  0  0  0  0  0  0  0  0  0  0  0
    2.0769  -12.0067    5.3975 H   0  0  0  0  0  0  0  0  0  0  0  0
    3.3097  -12.8061    3.2904 H   0  0  0  0  0  0  0  0  0  0  0  0
    3.3048   -9.0320    1.6538 H   0  0  0  0  0  0  0  0  0  0  0  0
    3.7799  -11.3085    1.6159 H   0  0  0  0  0  0  0  0  0  0  0  0
  1  2  1  0
  1 39  1  0
  2  9  1  0
  2  3  2  0
  3 19  1  0
  3  4  1  0
  4  5  1  0
  5 29  1  0
  5  6  1  0
  5 40  1  6
  6 19  1  0
  6  7  2  0
  7  8  1  0
  7 10  1  0
  8  9  2  0
  8 41  1  0
  9 42  1  0
 10 11  1  0
 11 20  1  0
 11 12  1  0
 11 43  1  1
 12 13  1  0
 12 17  1  0
 13 14  1  0
 13 44  1  0
 13 45  1  0
 14 16  1  0
 14 15  1  0
 14 46  1  0
 15 16  1  0
 15 47  1  0
 15 48  1  0
 16 49  1  0
 16 50  1  0
 17 18  1  0
 17 51  1  0
 17 52  1  0
 19 18  1  6
 18 53  1  0
 18 54  1  0
 19 20  1  0
 20 30  1  0
 20 21  1  1
 21 22  1  0
 21 55  1  0
 21 56  1  0
 22 23  1  0
 22 57  1  0
 22 58  1  0
 23 24  1  0
 23 29  1  0
 24 25  1  0
 24 59  1  0
 24 60  1  0
 25 28  1  0
 25 26  1  0
 25 61  1  0
 26 27  1  0
 26 62  1  0
 26 63  1  0
 27 28  1  0
 27 64  1  0
 27 65  1  0
 28 66  1  0
 28 67  1  0
 29 30  1  0
 29 68  1  1
 30 31  1  1
 30 32  1  0
 31 69  1  0
 32 33  1  0
 32 70  1  0
 32 71  1  0
 33 38  1  0
 33 34  2  0
 34 35  1  0
 34 72  1  0
 35 36  2  0
 35 73  1  0
 36 37  1  0
 36 74  1  0
 37 38  2  0
 37 76  1  0
 38 75  1  0
M  CHG  1  37   1
M  END
>  <i_m_ct_stereo_status>  (205) 
1

>  <s_m_source_file>  (205) 
/var/tmp/pbs.5076255.sched01/tmppnbbzaq8/41bb87crku.sdf

>  <i_m_source_file_index>  (205) 
40

>  <i_lp_mmshare_version>  (205) 
48012

>  <i_f3d_flags>  (205) 
0

>  <s_epik_input>  (205) 
W2NIXTFuW2NIXVtjSF1bY0hdYzFbQ0gyXVtDQEBdMihbT0hdKVtDQEhdKE4oW0NIMl1bQ0gyXTMpW0NIMl1bQ0hdNFtDSDJdW0NIMl1bQ0gyXTQpW0NASF0oT0M1PUMoW09IXSlbQ0hdPVtDSF02KUM3PUM2T1tDQEBIXShbQ0BdMjNbQ0BAXTU3OClOKFtDSDJdW0NIMl04KVtDSDJdW0NIXTlbQ0gyXVtDSDJdOQ==

>  <s_epik_cmdline>  (205) 
J2VwaWtfcHl0aG9uJywgJy1waHQnLCAnMi4wJywgJy1waCcsICc3LjAnLCAnLXRuJywgJzgnLCAnLW1hJywgJzIwMCcsICctaW1hZScsICc8aW5maWxlLm1hZT4nLCAnLW9tYWUnLCAnPG91dGZpbGUubWFlPic=

>  <r_epik_Ionization_Penalty>  (205) 
1.91496

>  <r_epik_Ionization_Penalty_Charging>  (205) 
1.60953

>  <r_epik_Ionization_Penalty_Neutral>  (205) 
0.305432

>  <r_epik_State_Penalty>  (205) 
2.23215

>  <r_epik_Charging_Adjusted_Penalty>  (205) 
3.84167

>  <i_epik_Tot_Q>  (205) 
1

>  <i_epik_Tot_abs_Q>  (205) 
1

>  <s_epik_Chemistry_Notes>  (205) 
This compound contains an acetal/aminal-like group ( X-CH(R)-Y where X, Y are N, S, or O) that may be acid/base labile, releasing an aldehyde.

>  <s_lp_Force_Field>  (205) 
OPLS3e

>  <r_lp_Energy>  (205) 
306.088

>  <b_lp_Chiralities_Consistent>  (205) 
1

>  <s_lp_Variant>  (205) 
59:0-3

>  <s_i_glide_gridfile>  (205) 
pfpi4k_grid

>  <i_i_glide_lignum>  (205) 
40

>  <i_i_glide_rotatable_bonds>  (205) 
8

>  <r_i_docking_score>  (205) 
-2.20292

>  <r_i_glide_ligand_efficiency>  (205) 
-0.0579715

>  <r_i_glide_ligand_efficiency_sa>  (205) 
-0.194899

>  <r_i_glide_ligand_efficiency_ln>  (205) 
-0.475014

>  <r_i_glide_gscore>  (205) 
-2.20292

>  <r_i_glide_lipo>  (205) 
-0.157531

>  <r_i_glide_hbond>  (205) 
-0.218295

>  <r_i_glide_metal>  (205) 
-0

>  <r_i_glide_rewards>  (205) 
0

>  <r_i_glide_evdw>  (205) 
-20.6998

>  <r_i_glide_ecoul>  (205) 
-7.69986

>  <r_i_glide_erotb>  (205) 
0.461403

>  <r_i_glide_esite>  (205) 
-0.0985217

>  <r_i_glide_emodel>  (205) 
-33.7218

>  <r_i_glide_energy>  (205) 
-28.3997

>  <r_i_glide_einternal>  (205) 
0.691206

>  <r_i_glide_intrahb_reward>  (205) 
-0

>  <i_i_glide_confnum>  (205) 
4

>  <i_i_glide_posenum>  (205) 
14

>  <r_i_glide_eff_state_penalty>  (205) 
0

>  <ligand_id>  (205) 
59

>  <original_smiles>  (205) 
OC1=C2OC3C4=C(C=C1)OC1N(CC5CC5)CCC24C12CCN(CC1CCC1)C3C2(O)Cc1cccnc1

>  <smiles>  (205) 
[H]OC1=C2OC3([H])C4=C(OC5([H])N(C([H])([H])C6([H])C([H])([H])C6([H])[H])C([H])([H])C([H])([H])C24C52C([H])([H])C([H])([H])N(C([H])([H])C4([H])C([H])([H])C([H])([H])C4([H])[H])C3([H])C2(O[H])C([H])([H])c2c([H])c([H])c([H])[n+]([H])c2[H])C([H])=C1[H]

$$$$
59:3:0
     RDKit          3D

 77 85  0  0  1  0  0  0  0  0999 V2000
    7.2566   -6.7591    5.4154 O   0  0  0  0  0  0  0  0  0  0  0  0
    6.7960   -6.4140    4.2166 C   0  0  0  0  0  0  0  0  0  0  0  0
    5.5283   -5.8582    4.1124 C   0  0  0  0  0  0  0  0  0  0  0  0
    4.6295   -6.4123    4.9603 O   0  0  0  0  0  0  0  0  0  0  0  0
    4.0020   -7.3248    4.0900 C   0  0  2  0  0  0  0  0  0  0  0  0
    4.7501   -7.0533    2.7746 C   0  0  0  0  0  0  0  0  0  0  0  0
    5.3584   -7.7147    1.8022 C   0  0  0  0  0  0  0  0  0  0  0  0
    6.8163   -7.6679    1.9930 C   0  0  0  0  0  0  0  0  0  0  0  0
    7.4501   -7.0777    3.0558 C   0  0  0  0  0  0  0  0  0  0  0  0
    4.8889   -7.1891    0.5874 O   0  0  0  0  0  0  0  0  0  0  0  0
    3.9415   -6.0618    0.5217 C   0  0  2  0  0  0  0  0  0  0  0  0
    4.6020   -5.0299   -0.2275 N   0  0  0  0  0  0  0  0  0  0  0  0
    3.7983   -3.8713   -0.6338 C   0  0  0  0  0  0  0  0  0  0  0  0
    4.0805   -3.4197   -2.0552 C   0  0  0  0  0  0  0  0  0  0  0  0
    3.6978   -2.0122   -2.4548 C   0  0  0  0  0  0  0  0  0  0  0  0
    2.9226   -3.1837   -2.9987 C   0  0  0  0  0  0  0  0  0  0  0  0
    5.8929   -4.7048    0.3579 C   0  0  0  0  0  0  0  0  0  0  0  0
    5.8532   -4.6494    1.9039 C   0  0  0  0  0  0  0  0  0  0  0  0
    4.8774   -5.6108    2.7224 C   0  0  2  0  0  0  0  0  0  0  0  0
    3.4418   -5.6815    2.0090 C   0  0  1  0  0  0  0  0  0  0  0  0
    2.8577   -4.3119    2.3225 C   0  0  0  0  0  0  0  0  0  0  0  0
    2.7214   -4.2189    3.8480 C   0  0  0  0  0  0  0  0  0  0  0  0
    2.2444   -5.4495    4.6069 N   0  0  1  0  0  0  0  0  0  0  0  0
    0.8439   -5.2558    5.1460 C   0  0  0  0  0  0  0  0  0  0  0  0
    0.7341   -4.2638    6.3432 C   0  0  0  0  0  0  0  0  0  0  0  0
   -0.7001   -3.9455    6.8511 C   0  0  0  0  0  0  0  0  0  0  0  0
   -0.6445   -2.6910    5.9684 C   0  0  0  0  0  0  0  0  0  0  0  0
    0.8760   -2.7270    6.1356 C   0  0  0  0  0  0  0  0  0  0  0  0
    2.5117   -6.8146    3.9554 C   0  0  1  0  0  0  0  0  0  0  0  0
    2.2462   -6.7055    2.4433 C   0  0  1  0  0  0  0  0  0  0  0  0
    0.9180   -6.2023    2.2470 O   0  0  0  0  0  0  0  0  0  0  0  0
    2.0759   -8.0867    1.7062 C   0  0  0  0  0  0  0  0  0  0  0  0
    1.7545   -9.2946    2.5731 C   0  0  0  0  0  0  0  0  0  0  0  0
    2.7289  -10.2912    2.8023 C   0  0  0  0  0  0  0  0  0  0  0  0
    2.4075  -11.3934    3.6145 C   0  0  0  0  0  0  0  0  0  0  0  0
    1.1224  -11.4858    4.1796 C   0  0  0  0  0  0  0  0  0  0  0  0
    0.1789  -10.5171    3.9311 N   0  0  0  0  0  0  0  0  0  0  0  0
    0.4651   -9.4529    3.1490 C   0  0  0  0  0  0  0  0  0  0  0  0
    6.5889   -6.5684    6.0570 H   0  0  0  0  0  0  0  0  0  0  0  0
    4.0789   -8.3415    4.4226 H   0  0  0  0  0  0  0  0  0  0  0  0
    7.4534   -8.1285    1.2497 H   0  0  0  0  0  0  0  0  0  0  0  0
    8.5280   -7.1267    3.0763 H   0  0  0  0  0  0  0  0  0  0  0  0
    3.0892   -6.3693   -0.0733 H   0  0  0  0  0  0  0  0  0  0  0  0
    2.7375   -4.1228   -0.5684 H   0  0  0  0  0  0  0  0  0  0  0  0
    3.9866   -3.0276    0.0338 H   0  0  0  0  0  0  0  0  0  0  0  0
    4.9977   -3.8007   -2.4939 H   0  0  0  0  0  0  0  0  0  0  0  0
    3.2060   -1.3949   -1.7059 H   0  0  0  0  0  0  0  0  0  0  0  0
    4.3361   -1.4760   -3.1517 H   0  0  0  0  0  0  0  0  0  0  0  0
    3.0560   -3.4367   -4.0464 H   0  0  0  0  0  0  0  0  0  0  0  0
    1.9227   -3.3566   -2.6075 H   0  0  0  0  0  0  0  0  0  0  0  0
    6.5839   -5.5026    0.0831 H   0  0  0  0  0  0  0  0  0  0  0  0
    6.3013   -3.7820   -0.0595 H   0  0  0  0  0  0  0  0  0  0  0  0
    6.8835   -4.7063    2.2510 H   0  0  0  0  0  0  0  0  0  0  0  0
    5.5776   -3.6303    2.1731 H   0  0  0  0  0  0  0  0  0  0  0  0
    3.4592   -3.4729    2.0293 H   0  0  0  0  0  0  0  0  0  0  0  0
    1.9026   -4.1140    1.8511 H   0  0  0  0  0  0  0  0  0  0  0  0
    3.6338   -3.8732    4.3423 H   0  0  0  0  0  0  0  0  0  0  0  0
    1.9916   -3.4441    3.8465 H   0  0  0  0  0  0  0  0  0  0  0  0
    0.2037   -4.8938    4.3361 H   0  0  0  0  0  0  0  0  0  0  0  0
    0.3912   -6.2195    5.4292 H   0  0  0  0  0  0  0  0  0  0  0  0
    1.3256   -4.6170    7.1980 H   0  0  0  0  0  0  0  0  0  0  0  0
   -1.5026   -4.6394    6.5764 H   0  0  0  0  0  0  0  0  0  0  0  0
   -0.7661   -3.6479    7.8959 H   0  0  0  0  0  0  0  0  0  0  0  0
   -0.9552   -2.8785    4.9334 H   0  0  0  0  0  0  0  0  0  0  0  0
   -1.0704   -1.7519    6.3390 H   0  0  0  0  0  0  0  0  0  0  0  0
    1.2507   -2.2217    7.0401 H   0  0  0  0  0  0  0  0  0  0  0  0
    1.3382   -2.3141    5.2473 H   0  0  0  0  0  0  0  0  0  0  0  0
    1.8503   -7.5250    4.4691 H   0  0  0  0  0  0  0  0  0  0  0  0
    0.2926   -6.8935    2.3911 H   0  0  0  0  0  0  0  0  0  0  0  0
    1.3388   -8.0364    0.9029 H   0  0  0  0  0  0  0  0  0  0  0  0
    2.9652   -8.3723    1.1641 H   0  0  0  0  0  0  0  0  0  0  0  0
    3.7245  -10.2204    2.3531 H   0  0  0  0  0  0  0  0  0  0  0  0
    3.1331  -12.1795    3.7935 H   0  0  0  0  0  0  0  0  0  0  0  0
    0.7855  -12.2980    4.7984 H   0  0  0  0  0  0  0  0  0  0  0  0
   -0.3510   -8.7557    3.0190 H   0  0  0  0  0  0  0  0  0  0  0  0
    2.7954   -5.4942    5.4653 H   0  0  0  0  0  0  0  0  0  0  0  0
   -0.7355  -10.6354    4.3532 H   0  0  0  0  0  0  0  0  0  0  0  0
  1  2  1  0
  1 39  1  0
  2  9  1  0
  2  3  2  0
  3 19  1  0
  3  4  1  0
  4  5  1  0
  5 29  1  0
  5  6  1  0
  5 40  1  1
  6 19  1  0
  6  7  2  0
  7  8  1  0
  7 10  1  0
  8  9  2  0
  8 41  1  0
  9 42  1  0
 10 11  1  0
 11 20  1  0
 11 12  1  0
 11 43  1  6
 12 13  1  0
 12 17  1  0
 13 14  1  0
 13 44  1  0
 13 45  1  0
 14 16  1  0
 14 15  1  0
 14 46  1  0
 15 16  1  0
 15 47  1  0
 15 48  1  0
 16 49  1  0
 16 50  1  0
 17 18  1  0
 17 51  1  0
 17 52  1  0
 19 18  1  6
 18 53  1  0
 18 54  1  0
 19 20  1  0
 20 30  1  0
 20 21  1  6
 21 22  1  0
 21 55  1  0
 21 56  1  0
 22 23  1  0
 22 57  1  0
 22 58  1  0
 23 24  1  0
 23 29  1  0
 23 76  1  1
 24 25  1  0
 24 59  1  0
 24 60  1  0
 25 28  1  0
 25 26  1  0
 25 61  1  0
 26 27  1  0
 26 62  1  0
 26 63  1  0
 27 28  1  0
 27 64  1  0
 27 65  1  0
 28 66  1  0
 28 67  1  0
 29 30  1  0
 29 68  1  1
 30 31  1  1
 30 32  1  0
 31 69  1  0
 32 33  1  0
 32 70  1  0
 32 71  1  0
 33 38  1  0
 33 34  2  0
 34 35  1  0
 34 72  1  0
 35 36  2  0
 35 73  1  0
 36 37  1  0
 36 74  1  0
 37 38  2  0
 37 77  1  0
 38 75  1  0
M  CHG  2  23   1  37   1
M  END
>  <i_m_ct_stereo_status>  (206) 
1

>  <s_m_source_file>  (206) 
/var/tmp/pbs.5076255.sched01/tmppnbbzaq8/41bb87crku.sdf

>  <i_m_source_file_index>  (206) 
41

>  <i_lp_mmshare_version>  (206) 
48012

>  <i_f3d_flags>  (206) 
0

>  <s_epik_input>  (206) 
W2NIXTFuW2NIXVtjSF1bY0hdYzFbQ0gyXVtDQEBdMihbT0hdKVtDQEhdKE4oW0NIMl1bQ0gyXTMpW0NIMl1bQ0hdNFtDSDJdW0NIMl1bQ0gyXTQpW0NASF0oT0M1PUMoW09IXSlbQ0hdPVtDSF02KUM3PUM2T1tDQEBIXShbQ0BdMjNbQ0BAXTU3OClOKFtDSDJdW0NIMl04KVtDSDJdW0NIXTlbQ0gyXVtDSDJdOQ==

>  <s_epik_cmdline>  (206) 
J2VwaWtfcHl0aG9uJywgJy1waHQnLCAnMi4wJywgJy1waCcsICc3LjAnLCAnLXRuJywgJzgnLCAnLW1hJywgJzIwMCcsICctaW1hZScsICc8aW5maWxlLm1hZT4nLCAnLW9tYWUnLCAnPG91dGZpbGUubWFlPic=

>  <r_epik_Ionization_Penalty>  (206) 
2.69765

>  <r_epik_Ionization_Penalty_Charging>  (206) 
2.69563

>  <r_epik_Ionization_Penalty_Neutral>  (206) 
0.00201271

>  <r_epik_State_Penalty>  (206) 
2.59067

>  <r_epik_Charging_Adjusted_Penalty>  (206) 
5.28631

>  <i_epik_Tot_Q>  (206) 
2

>  <i_epik_Tot_abs_Q>  (206) 
2

>  <s_epik_Chemistry_Notes>  (206) 
This compound contains an acetal/aminal-like group ( X-CH(R)-Y where X, Y are N, S, or O) that may be acid/base labile, releasing an aldehyde.

>  <s_lp_Force_Field>  (206) 
OPLS3e

>  <r_lp_Energy>  (206) 
316.011

>  <b_lp_Chiralities_Consistent>  (206) 
1

>  <s_lp_Variant>  (206) 
59:0-4

>  <s_i_glide_gridfile>  (206) 
pfpi4k_grid

>  <i_i_glide_lignum>  (206) 
41

>  <i_i_glide_rotatable_bonds>  (206) 
8

>  <r_i_docking_score>  (206) 
-3.17241

>  <r_i_glide_ligand_efficiency>  (206) 
-0.0834845

>  <r_i_glide_ligand_efficiency_sa>  (206) 
-0.280673

>  <r_i_glide_ligand_efficiency_ln>  (206) 
-0.684065

>  <r_i_glide_gscore>  (206) 
-3.17241

>  <r_i_glide_lipo>  (206) 
-0.535147

>  <r_i_glide_hbond>  (206) 
-0.21518

>  <r_i_glide_metal>  (206) 
-0

>  <r_i_glide_rewards>  (206) 
-0.110231

>  <r_i_glide_evdw>  (206) 
-30.8104

>  <r_i_glide_ecoul>  (206) 
-7.77535

>  <r_i_glide_erotb>  (206) 
0.459753

>  <r_i_glide_esite>  (206) 
-0.0647842

>  <r_i_glide_emodel>  (206) 
-45.6487

>  <r_i_glide_energy>  (206) 
-38.5858

>  <r_i_glide_einternal>  (206) 
3.63254

>  <r_i_glide_intrahb_reward>  (206) 
-0

>  <i_i_glide_confnum>  (206) 
1

>  <i_i_glide_posenum>  (206) 
25

>  <r_i_glide_eff_state_penalty>  (206) 
0

>  <ligand_id>  (206) 
59

>  <original_smiles>  (206) 
OC1=C2OC3C4=C(C=C1)OC1N(CC5CC5)CCC24C12CCN(CC1CCC1)C3C2(O)Cc1cccnc1

>  <smiles>  (206) 
[H]OC1=C2OC3([H])C4=C(OC5([H])N(C([H])([H])C6([H])C([H])([H])C6([H])[H])C([H])([H])C([H])([H])C24C52C([H])([H])C([H])([H])[N+]([H])(C([H])([H])C4([H])C([H])([H])C([H])([H])C4([H])[H])C3([H])C2(O[H])C([H])([H])c2c([H])c([H])c([H])[n+]([H])c2[H])C([H])=C1[H]

$$$$
59:3:1
     RDKit          3D

 77 85  0  0  1  0  0  0  0  0999 V2000
    6.1855   -2.7415    7.2191 O   0  0  0  0  0  0  0  0  0  0  0  0
    5.0725   -3.3175    6.7535 C   0  0  0  0  0  0  0  0  0  0  0  0
    4.9096   -3.4584    5.3832 C   0  0  0  0  0  0  0  0  0  0  0  0
    5.4173   -2.4503    4.6456 O   0  0  0  0  0  0  0  0  0  0  0  0
    4.2621   -1.6598    4.4990 C   0  0  2  0  0  0  0  0  0  0  0  0
    3.1886   -2.5662    5.1719 C   0  0  0  0  0  0  0  0  0  0  0  0
    2.1795   -2.5012    6.0206 C   0  0  0  0  0  0  0  0  0  0  0  0
    2.6076   -2.9587    7.3525 C   0  0  0  0  0  0  0  0  0  0  0  0
    3.8951   -3.3269    7.6723 C   0  0  0  0  0  0  0  0  0  0  0  0
    1.0893   -3.1935    5.4517 O   0  0  0  0  0  0  0  0  0  0  0  0
    1.1971   -3.8912    4.1526 C   0  0  2  0  0  0  0  0  0  0  0  0
    0.8982   -5.2698    4.4145 N   0  0  0  0  0  0  0  0  0  0  0  0
    0.7349   -6.1574    3.2588 C   0  0  0  0  0  0  0  0  0  0  0  0
   -0.4441   -7.1014    3.4138 C   0  0  0  0  0  0  0  0  0  0  0  0
   -0.2167   -8.5962    3.4116 C   0  0  0  0  0  0  0  0  0  0  0  0
   -0.8562   -7.9330    2.2188 C   0  0  0  0  0  0  0  0  0  0  0  0
    1.7724   -5.8017    5.4546 C   0  0  0  0  0  0  0  0  0  0  0  0
    3.2383   -5.3297    5.3215 C   0  0  0  0  0  0  0  0  0  0  0  0
    3.5598   -3.8934    4.7425 C   0  0  2  0  0  0  0  0  0  0  0  0
    2.6289   -3.5748    3.4693 C   0  0  1  0  0  0  0  0  0  0  0  0
    3.2421   -4.4665    2.3609 C   0  0  0  0  0  0  0  0  0  0  0  0
    4.7075   -3.9826    2.1163 C   0  0  0  0  0  0  0  0  0  0  0  0
    4.9020   -2.4770    2.0952 N   0  0  1  0  0  0  0  0  0  0  0  0
    5.2713   -1.9286    0.7382 C   0  0  0  0  0  0  0  0  0  0  0  0
    4.3796   -2.4061   -0.4444 C   0  0  0  0  0  0  0  0  0  0  0  0
    4.7313   -3.7021   -1.2029 C   0  0  0  0  0  0  0  0  0  0  0  0
    5.3960   -2.8180   -2.2549 C   0  0  0  0  0  0  0  0  0  0  0  0
    4.5238   -1.6614   -1.7703 C   0  0  0  0  0  0  0  0  0  0  0  0
    3.9580   -1.6113    2.9312 C   0  0  1  0  0  0  0  0  0  0  0  0
    2.4987   -2.1149    2.7625 C   0  0  1  0  0  0  0  0  0  0  0  0
    2.0891   -2.2295    1.4435 O   0  0  0  0  0  0  0  0  0  0  0  0
    1.3759   -1.0674    3.1854 C   0  0  0  0  0  0  0  0  0  0  0  0
    1.7172    0.4150    3.0585 C   0  0  0  0  0  0  0  0  0  0  0  0
    2.6272    1.0084    3.9797 C   0  0  0  0  0  0  0  0  0  0  0  0
    2.9938    2.3608    3.8259 C   0  0  0  0  0  0  0  0  0  0  0  0
    2.3329    3.1374    2.8548 C   0  0  0  0  0  0  0  0  0  0  0  0
    1.4074    2.5397    2.0567 N   0  0  0  0  0  0  0  0  0  0  0  0
    1.0901    1.2337    2.0830 C   0  0  0  0  0  0  0  0  0  0  0  0
    6.0285   -2.5112    8.1213 H   0  0  0  0  0  0  0  0  0  0  0  0
    4.4619   -0.7265    5.0087 H   0  0  0  0  0  0  0  0  0  0  0  0
    1.8690   -3.0209    8.1415 H   0  0  0  0  0  0  0  0  0  0  0  0
    4.0716   -3.6532    8.6816 H   0  0  0  0  0  0  0  0  0  0  0  0
    0.3977   -3.5117    3.5213 H   0  0  0  0  0  0  0  0  0  0  0  0
    0.5765   -5.5646    2.3575 H   0  0  0  0  0  0  0  0  0  0  0  0
    1.6332   -6.7547    3.0984 H   0  0  0  0  0  0  0  0  0  0  0  0
   -1.2652   -6.7289    4.0226 H   0  0  0  0  0  0  0  0  0  0  0  0
    0.8117   -8.9388    3.3138 H   0  0  0  0  0  0  0  0  0  0  0  0
   -0.8527   -9.2111    4.0456 H   0  0  0  0  0  0  0  0  0  0  0  0
   -1.9124   -8.1345    2.0597 H   0  0  0  0  0  0  0  0  0  0  0  0
   -0.2575   -7.8514    1.3136 H   0  0  0  0  0  0  0  0  0  0  0  0
    1.4034   -5.4305    6.4110 H   0  0  0  0  0  0  0  0  0  0  0  0
    1.7233   -6.8898    5.5085 H   0  0  0  0  0  0  0  0  0  0  0  0
    3.7280   -5.5064    6.2787 H   0  0  0  0  0  0  0  0  0  0  0  0
    3.7483   -6.0388    4.6680 H   0  0  0  0  0  0  0  0  0  0  0  0
    3.3042   -5.5086    2.6307 H   0  0  0  0  0  0  0  0  0  0  0  0
    2.6822   -4.4697    1.4310 H   0  0  0  0  0  0  0  0  0  0  0  0
    5.3727   -4.3869    2.8905 H   0  0  0  0  0  0  0  0  0  0  0  0
    5.1021   -4.4541    1.2202 H   0  0  0  0  0  0  0  0  0  0  0  0
    5.2931   -0.8307    0.7860 H   0  0  0  0  0  0  0  0  0  0  0  0
    6.3217   -2.1938    0.5429 H   0  0  0  0  0  0  0  0  0  0  0  0
    3.3399   -2.3874   -0.2605 H   0  0  0  0  0  0  0  0  0  0  0  0
    5.4261   -4.4048   -0.7354 H   0  0  0  0  0  0  0  0  0  0  0  0
    3.8121   -4.1936   -1.5324 H   0  0  0  0  0  0  0  0  0  0  0  0
    6.4502   -2.6651   -2.0089 H   0  0  0  0  0  0  0  0  0  0  0  0
    5.2179   -3.1591   -3.2775 H   0  0  0  0  0  0  0  0  0  0  0  0
    3.5644   -1.6113   -2.2818 H   0  0  0  0  0  0  0  0  0  0  0  0
    5.0018   -0.6822   -1.6980 H   0  0  0  0  0  0  0  0  0  0  0  0
    4.1110   -0.5938    2.5630 H   0  0  0  0  0  0  0  0  0  0  0  0
    1.9878   -1.3619    1.0474 H   0  0  0  0  0  0  0  0  0  0  0  0
    0.4402   -1.2283    2.6383 H   0  0  0  0  0  0  0  0  0  0  0  0
    1.0435   -1.1947    4.2022 H   0  0  0  0  0  0  0  0  0  0  0  0
    3.0251    0.4673    4.7912 H   0  0  0  0  0  0  0  0  0  0  0  0
    3.7316    2.7819    4.4839 H   0  0  0  0  0  0  0  0  0  0  0  0
    2.4909    4.1997    2.7199 H   0  0  0  0  0  0  0  0  0  0  0  0
    0.3029    0.9075    1.3891 H   0  0  0  0  0  0  0  0  0  0  0  0
    5.7855   -2.3664    2.5984 H   0  0  0  0  0  0  0  0  0  0  0  0
    0.8873    3.1773    1.4058 H   0  0  0  0  0  0  0  0  0  0  0  0
  1  2  1  0
  1 39  1  0
  2  9  1  0
  2  3  2  0
  3 19  1  0
  3  4  1  0
  4  5  1  0
  5 29  1  0
  5  6  1  0
  5 40  1  1
  6 19  1  0
  6  7  2  0
  7  8  1  0
  7 10  1  0
  8  9  2  0
  8 41  1  0
  9 42  1  0
 10 11  1  0
 11 20  1  0
 11 12  1  0
 11 43  1  6
 12 13  1  0
 12 17  1  0
 13 14  1  0
 13 44  1  0
 13 45  1  0
 14 16  1  0
 14 15  1  0
 14 46  1  0
 15 16  1  0
 15 47  1  0
 15 48  1  0
 16 49  1  0
 16 50  1  0
 17 18  1  0
 17 51  1  0
 17 52  1  0
 19 18  1  1
 18 53  1  0
 18 54  1  0
 19 20  1  0
 20 30  1  0
 20 21  1  6
 21 22  1  0
 21 55  1  0
 21 56  1  0
 22 23  1  0
 22 57  1  0
 22 58  1  0
 23 24  1  0
 23 29  1  0
 23 76  1  1
 24 25  1  0
 24 59  1  0
 24 60  1  0
 25 28  1  0
 25 26  1  0
 25 61  1  0
 26 27  1  0
 26 62  1  0
 26 63  1  0
 27 28  1  0
 27 64  1  0
 27 65  1  0
 28 66  1  0
 28 67  1  0
 29 30  1  0
 29 68  1  6
 30 31  1  6
 30 32  1  0
 31 69  1  0
 32 33  1  0
 32 70  1  0
 32 71  1  0
 33 38  1  0
 33 34  2  0
 34 35  1  0
 34 72  1  0
 35 36  2  0
 35 73  1  0
 36 37  1  0
 36 74  1  0
 37 38  2  0
 37 77  1  0
 38 75  1  0
M  CHG  2  23   1  37   1
M  END
>  <i_m_ct_stereo_status>  (207) 
1

>  <s_m_source_file>  (207) 
/var/tmp/pbs.5076255.sched01/tmppnbbzaq8/41bb87crku.sdf

>  <i_m_source_file_index>  (207) 
41

>  <i_lp_mmshare_version>  (207) 
48012

>  <i_f3d_flags>  (207) 
0

>  <s_epik_input>  (207) 
W2NIXTFuW2NIXVtjSF1bY0hdYzFbQ0gyXVtDQEBdMihbT0hdKVtDQEhdKE4oW0NIMl1bQ0gyXTMpW0NIMl1bQ0hdNFtDSDJdW0NIMl1bQ0gyXTQpW0NASF0oT0M1PUMoW09IXSlbQ0hdPVtDSF02KUM3PUM2T1tDQEBIXShbQ0BdMjNbQ0BAXTU3OClOKFtDSDJdW0NIMl04KVtDSDJdW0NIXTlbQ0gyXVtDSDJdOQ==

>  <s_epik_cmdline>  (207) 
J2VwaWtfcHl0aG9uJywgJy1waHQnLCAnMi4wJywgJy1waCcsICc3LjAnLCAnLXRuJywgJzgnLCAnLW1hJywgJzIwMCcsICctaW1hZScsICc8aW5maWxlLm1hZT4nLCAnLW9tYWUnLCAnPG91dGZpbGUubWFlPic=

>  <r_epik_Ionization_Penalty>  (207) 
2.69765

>  <r_epik_Ionization_Penalty_Charging>  (207) 
2.69563

>  <r_epik_Ionization_Penalty_Neutral>  (207) 
0.00201271

>  <r_epik_State_Penalty>  (207) 
2.59067

>  <r_epik_Charging_Adjusted_Penalty>  (207) 
5.28631

>  <i_epik_Tot_Q>  (207) 
2

>  <i_epik_Tot_abs_Q>  (207) 
2

>  <s_epik_Chemistry_Notes>  (207) 
This compound contains an acetal/aminal-like group ( X-CH(R)-Y where X, Y are N, S, or O) that may be acid/base labile, releasing an aldehyde.

>  <s_lp_Force_Field>  (207) 
OPLS3e

>  <r_lp_Energy>  (207) 
316.011

>  <b_lp_Chiralities_Consistent>  (207) 
1

>  <s_lp_Variant>  (207) 
59:0-4

>  <s_i_glide_gridfile>  (207) 
pfpi4k_grid

>  <i_i_glide_lignum>  (207) 
41

>  <i_i_glide_rotatable_bonds>  (207) 
8

>  <r_i_docking_score>  (207) 
-2.82987

>  <r_i_glide_ligand_efficiency>  (207) 
-0.0744702

>  <r_i_glide_ligand_efficiency_sa>  (207) 
-0.250367

>  <r_i_glide_ligand_efficiency_ln>  (207) 
-0.610202

>  <r_i_glide_gscore>  (207) 
-2.82987

>  <r_i_glide_lipo>  (207) 
-0.211313

>  <r_i_glide_hbond>  (207) 
-0.231804

>  <r_i_glide_metal>  (207) 
-0

>  <r_i_glide_rewards>  (207) 
-0.0147043

>  <r_i_glide_evdw>  (207) 
-23.8662

>  <r_i_glide_ecoul>  (207) 
-10.2893

>  <r_i_glide_erotb>  (207) 
0.459753

>  <r_i_glide_esite>  (207) 
-0.09509

>  <r_i_glide_emodel>  (207) 
-37.4719

>  <r_i_glide_energy>  (207) 
-34.1555

>  <r_i_glide_einternal>  (207) 
5.37704

>  <r_i_glide_intrahb_reward>  (207) 
-0

>  <i_i_glide_confnum>  (207) 
1

>  <i_i_glide_posenum>  (207) 
26

>  <r_i_glide_eff_state_penalty>  (207) 
0

>  <ligand_id>  (207) 
59

>  <original_smiles>  (207) 
OC1=C2OC3C4=C(C=C1)OC1N(CC5CC5)CCC24C12CCN(CC1CCC1)C3C2(O)Cc1cccnc1

>  <smiles>  (207) 
[H]OC1=C2OC3([H])C4=C(OC5([H])N(C([H])([H])C6([H])C([H])([H])C6([H])[H])C([H])([H])C([H])([H])C24C52C([H])([H])C([H])([H])[N+]([H])(C([H])([H])C4([H])C([H])([H])C([H])([H])C4([H])[H])C3([H])C2(O[H])C([H])([H])c2c([H])c([H])c([H])[n+]([H])c2[H])C([H])=C1[H]

$$$$
59:3:2
     RDKit          3D

 77 85  0  0  1  0  0  0  0  0999 V2000
    6.0732   -2.4501    7.2300 O   0  0  0  0  0  0  0  0  0  0  0  0
    5.0718   -3.1697    6.7058 C   0  0  0  0  0  0  0  0  0  0  0  0
    5.0294   -3.3869    5.3365 C   0  0  0  0  0  0  0  0  0  0  0  0
    5.4607   -2.3641    4.5871 O   0  0  0  0  0  0  0  0  0  0  0  0
    4.2439   -1.7253    4.3398 C   0  0  2  0  0  0  0  0  0  0  0  0
    3.2291   -2.7130    4.9813 C   0  0  0  0  0  0  0  0  0  0  0  0
    2.1740   -2.7288    5.7585 C   0  0  0  0  0  0  0  0  0  0  0  0
    2.5636   -3.0881    7.1383 C   0  0  0  0  0  0  0  0  0  0  0  0
    3.8544   -3.2896    7.5502 C   0  0  0  0  0  0  0  0  0  0  0  0
    1.2204   -3.5784    5.1606 O   0  0  0  0  0  0  0  0  0  0  0  0
    1.4883   -4.3012    3.9001 C   0  0  2  0  0  0  0  0  0  0  0  0
    1.3425   -5.7018    4.2054 N   0  0  0  0  0  0  0  0  0  0  0  0
    1.3530   -6.6374    3.0809 C   0  0  0  0  0  0  0  0  0  0  0  0
    0.4176   -7.8098    3.3131 C   0  0  0  0  0  0  0  0  0  0  0  0
   -0.2528   -8.4383    2.1153 C   0  0  0  0  0  0  0  0  0  0  0  0
   -1.0677   -7.6544    3.1113 C   0  0  0  0  0  0  0  0  0  0  0  0
    2.1987   -6.0761    5.3204 C   0  0  0  0  0  0  0  0  0  0  0  0
    3.5994   -5.4413    5.2570 C   0  0  0  0  0  0  0  0  0  0  0  0
    3.7780   -4.0005    4.6365 C   0  0  2  0  0  0  0  0  0  0  0  0
    2.9100   -3.8349    3.2946 C   0  0  1  0  0  0  0  0  0  0  0  0
    3.6952   -4.6796    2.2661 C   0  0  0  0  0  0  0  0  0  0  0  0
    5.0991   -4.0237    2.1098 C   0  0  0  0  0  0  0  0  0  0  0  0
    5.1271   -2.5235    2.0205 N   0  0  1  0  0  0  0  0  0  0  0  0
    5.5029   -1.9813    0.6623 C   0  0  0  0  0  0  0  0  0  0  0  0
    4.8281   -2.6479   -0.5595 C   0  0  0  0  0  0  0  0  0  0  0  0
    5.3834   -3.9256   -1.1937 C   0  0  0  0  0  0  0  0  0  0  0  0
    6.0234   -3.0257   -2.2363 C   0  0  0  0  0  0  0  0  0  0  0  0
    4.9652   -1.9747   -1.9128 C   0  0  0  0  0  0  0  0  0  0  0  0
    4.0431   -1.7564    2.7487 C   0  0  1  0  0  0  0  0  0  0  0  0
    2.6627   -2.4181    2.5236 C   0  0  1  0  0  0  0  0  0  0  0  0
    2.3156   -2.6220    1.1839 O   0  0  0  0  0  0  0  0  0  0  0  0
    1.4084   -1.5085    2.8259 C   0  0  0  0  0  0  0  0  0  0  0  0
    1.5883    0.0186    2.7844 C   0  0  0  0  0  0  0  0  0  0  0  0
    2.3684    0.6403    3.7808 C   0  0  0  0  0  0  0  0  0  0  0  0
    2.6558    2.0204    3.7042 C   0  0  0  0  0  0  0  0  0  0  0  0
    1.9693    2.7866    2.7616 C   0  0  0  0  0  0  0  0  0  0  0  0
    1.1069    2.1691    1.9100 N   0  0  0  0  0  0  0  0  0  0  0  0
    0.9186    0.8470    1.8472 C   0  0  0  0  0  0  0  0  0  0  0  0
    6.6268   -2.1438    6.5273 H   0  0  0  0  0  0  0  0  0  0  0  0
    4.4322   -0.7823    4.8434 H   0  0  0  0  0  0  0  0  0  0  0  0
    1.7914   -3.2054    7.8849 H   0  0  0  0  0  0  0  0  0  0  0  0
    4.0147   -3.5421    8.5829 H   0  0  0  0  0  0  0  0  0  0  0  0
    0.6845   -4.0485    3.2118 H   0  0  0  0  0  0  0  0  0  0  0  0
    1.0233   -6.1248    2.1766 H   0  0  0  0  0  0  0  0  0  0  0  0
    2.3511   -7.0387    2.8950 H   0  0  0  0  0  0  0  0  0  0  0  0
    0.7368   -8.5056    4.0853 H   0  0  0  0  0  0  0  0  0  0  0  0
   -0.0725   -7.9749    1.1492 H   0  0  0  0  0  0  0  0  0  0  0  0
   -0.3949   -9.5167    2.0944 H   0  0  0  0  0  0  0  0  0  0  0  0
   -1.7297   -8.2127    3.7695 H   0  0  0  0  0  0  0  0  0  0  0  0
   -1.4139   -6.6673    2.8221 H   0  0  0  0  0  0  0  0  0  0  0  0
    1.7279   -5.7154    6.2345 H   0  0  0  0  0  0  0  0  0  0  0  0
    2.2810   -7.1574    5.4218 H   0  0  0  0  0  0  0  0  0  0  0  0
    4.0461   -5.5123    6.2453 H   0  0  0  0  0  0  0  0  0  0  0  0
    4.2363   -6.0983    4.6646 H   0  0  0  0  0  0  0  0  0  0  0  0
    3.8830   -5.6880    2.5834 H   0  0  0  0  0  0  0  0  0  0  0  0
    3.2070   -4.7905    1.3031 H   0  0  0  0  0  0  0  0  0  0  0  0
    5.7716   -4.3298    2.9272 H   0  0  0  0  0  0  0  0  0  0  0  0
    5.6049   -4.5019    1.3092 H   0  0  0  0  0  0  0  0  0  0  0  0
    5.3580   -0.8907    0.6437 H   0  0  0  0  0  0  0  0  0  0  0  0
    6.6044   -2.0848    0.5480 H   0  0  0  0  0  0  0  0  0  0  0  0
    3.7806   -2.7707   -0.4783 H   0  0  0  0  0  0  0  0  0  0  0  0
    6.1487   -4.4940   -0.6730 H   0  0  0  0  0  0  0  0  0  0  0  0
    4.5755   -4.5688   -1.5514 H   0  0  0  0  0  0  0  0  0  0  0  0
    7.0194   -2.7178   -1.9054 H   0  0  0  0  0  0  0  0  0  0  0  0
    5.9928   -3.4569   -3.2341 H   0  0  0  0  0  0  0  0  0  0  0  0
    4.0648   -2.0917   -2.5123 H   0  0  0  0  0  0  0  0  0  0  0  0
    5.3047   -0.9389   -1.8716 H   0  0  0  0  0  0  0  0  0  0  0  0
    4.0927   -0.7329    2.3490 H   0  0  0  0  0  0  0  0  0  0  0  0
    2.1754   -1.7828    0.7422 H   0  0  0  0  0  0  0  0  0  0  0  0
    0.5743   -1.7232    2.1468 H   0  0  0  0  0  0  0  0  0  0  0  0
    0.9476   -1.7200    3.7741 H   0  0  0  0  0  0  0  0  0  0  0  0
    2.6936    0.1177    4.6112 H   0  0  0  0  0  0  0  0  0  0  0  0
    3.3402    2.4467    4.4183 H   0  0  0  0  0  0  0  0  0  0  0  0
    2.0312    3.8651    2.6932 H   0  0  0  0  0  0  0  0  0  0  0  0
    0.1839    0.4610    1.0968 H   0  0  0  0  0  0  0  0  0  0  0  0
    5.9567   -2.2803    2.5608 H   0  0  0  0  0  0  0  0  0  0  0  0
    0.5797    2.8068    1.2499 H   0  0  0  0  0  0  0  0  0  0  0  0
  1  2  1  0
  1 39  1  0
  2  9  1  0
  2  3  2  0
  3 19  1  0
  3  4  1  0
  4  5  1  0
  5 29  1  0
  5  6  1  0
  5 40  1  1
  6 19  1  0
  6  7  2  0
  7  8  1  0
  7 10  1  0
  8  9  2  0
  8 41  1  0
  9 42  1  0
 10 11  1  0
 11 20  1  0
 11 12  1  0
 11 43  1  6
 12 13  1  0
 12 17  1  0
 13 14  1  0
 13 44  1  0
 13 45  1  0
 14 16  1  0
 14 15  1  0
 14 46  1  0
 15 16  1  0
 15 47  1  0
 15 48  1  0
 16 49  1  0
 16 50  1  0
 17 18  1  0
 17 51  1  0
 17 52  1  0
 19 18  1  1
 18 53  1  0
 18 54  1  0
 19 20  1  0
 20 30  1  0
 20 21  1  6
 21 22  1  0
 21 55  1  0
 21 56  1  0
 22 23  1  0
 22 57  1  0
 22 58  1  0
 23 24  1  0
 23 29  1  0
 23 76  1  1
 24 25  1  0
 24 59  1  0
 24 60  1  0
 25 28  1  0
 25 26  1  0
 25 61  1  0
 26 27  1  0
 26 62  1  0
 26 63  1  0
 27 28  1  0
 27 64  1  0
 27 65  1  0
 28 66  1  0
 28 67  1  0
 29 30  1  0
 29 68  1  6
 30 31  1  6
 30 32  1  0
 31 69  1  0
 32 33  1  0
 32 70  1  0
 32 71  1  0
 33 38  1  0
 33 34  2  0
 34 35  1  0
 34 72  1  0
 35 36  2  0
 35 73  1  0
 36 37  1  0
 36 74  1  0
 37 38  2  0
 37 77  1  0
 38 75  1  0
M  CHG  2  23   1  37   1
M  END
>  <i_m_ct_stereo_status>  (208) 
1

>  <s_m_source_file>  (208) 
/var/tmp/pbs.5076255.sched01/tmppnbbzaq8/41bb87crku.sdf

>  <i_m_source_file_index>  (208) 
41

>  <i_lp_mmshare_version>  (208) 
48012

>  <i_f3d_flags>  (208) 
0

>  <s_epik_input>  (208) 
W2NIXTFuW2NIXVtjSF1bY0hdYzFbQ0gyXVtDQEBdMihbT0hdKVtDQEhdKE4oW0NIMl1bQ0gyXTMpW0NIMl1bQ0hdNFtDSDJdW0NIMl1bQ0gyXTQpW0NASF0oT0M1PUMoW09IXSlbQ0hdPVtDSF02KUM3PUM2T1tDQEBIXShbQ0BdMjNbQ0BAXTU3OClOKFtDSDJdW0NIMl04KVtDSDJdW0NIXTlbQ0gyXVtDSDJdOQ==

>  <s_epik_cmdline>  (208) 
J2VwaWtfcHl0aG9uJywgJy1waHQnLCAnMi4wJywgJy1waCcsICc3LjAnLCAnLXRuJywgJzgnLCAnLW1hJywgJzIwMCcsICctaW1hZScsICc8aW5maWxlLm1hZT4nLCAnLW9tYWUnLCAnPG91dGZpbGUubWFlPic=

>  <r_epik_Ionization_Penalty>  (208) 
2.69765

>  <r_epik_Ionization_Penalty_Charging>  (208) 
2.69563

>  <r_epik_Ionization_Penalty_Neutral>  (208) 
0.00201271

>  <r_epik_State_Penalty>  (208) 
2.59067

>  <r_epik_Charging_Adjusted_Penalty>  (208) 
5.28631

>  <i_epik_Tot_Q>  (208) 
2

>  <i_epik_Tot_abs_Q>  (208) 
2

>  <s_epik_Chemistry_Notes>  (208) 
This compound contains an acetal/aminal-like group ( X-CH(R)-Y where X, Y are N, S, or O) that may be acid/base labile, releasing an aldehyde.

>  <s_lp_Force_Field>  (208) 
OPLS3e

>  <r_lp_Energy>  (208) 
316.011

>  <b_lp_Chiralities_Consistent>  (208) 
1

>  <s_lp_Variant>  (208) 
59:0-4

>  <s_i_glide_gridfile>  (208) 
pfpi4k_grid

>  <i_i_glide_lignum>  (208) 
41

>  <i_i_glide_rotatable_bonds>  (208) 
8

>  <r_i_docking_score>  (208) 
-2.76317

>  <r_i_glide_ligand_efficiency>  (208) 
-0.072715

>  <r_i_glide_ligand_efficiency_sa>  (208) 
-0.244466

>  <r_i_glide_ligand_efficiency_ln>  (208) 
-0.595821

>  <r_i_glide_gscore>  (208) 
-2.76317

>  <r_i_glide_lipo>  (208) 
-0.297938

>  <r_i_glide_hbond>  (208) 
-0.250093

>  <r_i_glide_metal>  (208) 
-0

>  <r_i_glide_rewards>  (208) 
0

>  <r_i_glide_evdw>  (208) 
-23.0094

>  <r_i_glide_ecoul>  (208) 
-9.52548

>  <r_i_glide_erotb>  (208) 
0.459753

>  <r_i_glide_esite>  (208) 
-0.0956003

>  <r_i_glide_emodel>  (208) 
-34.642

>  <r_i_glide_energy>  (208) 
-32.5349

>  <r_i_glide_einternal>  (208) 
6.71288

>  <r_i_glide_intrahb_reward>  (208) 
-0

>  <i_i_glide_confnum>  (208) 
1

>  <i_i_glide_posenum>  (208) 
12

>  <r_i_glide_eff_state_penalty>  (208) 
0

>  <ligand_id>  (208) 
59

>  <original_smiles>  (208) 
OC1=C2OC3C4=C(C=C1)OC1N(CC5CC5)CCC24C12CCN(CC1CCC1)C3C2(O)Cc1cccnc1

>  <smiles>  (208) 
[H]OC1=C2OC3([H])C4=C(OC5([H])N(C([H])([H])C6([H])C([H])([H])C6([H])[H])C([H])([H])C([H])([H])C24C52C([H])([H])C([H])([H])[N+]([H])(C([H])([H])C4([H])C([H])([H])C([H])([H])C4([H])[H])C3([H])C2(O[H])C([H])([H])c2c([H])c([H])c([H])[n+]([H])c2[H])C([H])=C1[H]

$$$$
60:0:0
     RDKit          3D

 39 43  0  0  1  0  0  0  0  0999 V2000
    4.0003   -0.4669   -2.8117 C   0  0  0  0  0  0  0  0  0  0  0  0
    3.3961   -1.4503   -3.6175 C   0  0  0  0  0  0  0  0  0  0  0  0
    2.9955   -2.6731   -3.0446 C   0  0  0  0  0  0  0  0  0  0  0  0
    3.1856   -2.8678   -1.6677 C   0  0  0  0  0  0  0  0  0  0  0  0
    2.9012   -3.8875   -0.7880 N   0  0  0  0  0  0  0  0  0  0  0  0
    3.3742   -3.5354    0.4229 C   0  0  0  0  0  0  0  0  0  0  0  0
    3.3327   -4.4803    1.5980 C   0  0  2  0  0  0  0  0  0  0  0  0
    4.5518   -4.2884    2.5449 C   0  0  2  0  0  0  0  0  0  0  0  0
    5.8698   -4.6175    1.7991 C   0  0  0  0  0  0  0  0  0  0  0  0
    5.8387   -6.0880    1.3331 C   0  0  1  0  0  0  0  0  0  0  0  0
    5.7145   -7.0020    2.5680 C   0  0  0  0  0  0  0  0  0  0  0  0
    4.4044   -6.6815    3.3207 C   0  0  1  0  0  0  0  0  0  0  0  0
    4.4224   -5.2108    3.7811 C   0  0  0  0  0  0  0  0  0  0  0  0
    3.1981   -6.8995    2.3870 C   0  0  0  0  0  0  0  0  0  0  0  0
    3.3237   -5.9727    1.1568 C   0  0  2  0  0  0  0  0  0  0  0  0
    4.6340   -6.3112    0.3960 C   0  0  0  0  0  0  0  0  0  0  0  0
    3.8684   -2.3007    0.4813 N   0  0  0  0  0  0  0  0  0  0  0  0
    3.7936   -1.8991   -0.8390 C   0  0  0  0  0  0  0  0  0  0  0  0
    4.2172   -0.7091   -1.4361 C   0  0  0  0  0  0  0  0  0  0  0  0
    2.5911   -4.8155   -1.0412 H   0  0  0  0  0  0  0  0  0  0  0  0
    4.2179    0.5089   -3.2267 H   0  0  0  0  0  0  0  0  0  0  0  0
    3.1808   -1.2381   -4.6565 H   0  0  0  0  0  0  0  0  0  0  0  0
    2.5201   -3.4350   -3.6353 H   0  0  0  0  0  0  0  0  0  0  0  0
    2.4163   -4.2546    2.1435 H   0  0  0  0  0  0  0  0  0  0  0  0
    4.5847   -3.2554    2.9013 H   0  0  0  0  0  0  0  0  0  0  0  0
    6.0162   -3.9541    0.9467 H   0  0  0  0  0  0  0  0  0  0  0  0
    6.7227   -4.4482    2.4558 H   0  0  0  0  0  0  0  0  0  0  0  0
    6.7600   -6.3107    0.7950 H   0  0  0  0  0  0  0  0  0  0  0  0
    5.7356   -8.0482    2.2653 H   0  0  0  0  0  0  0  0  0  0  0  0
    6.5713   -6.8479    3.2264 H   0  0  0  0  0  0  0  0  0  0  0  0
    4.3172   -7.3336    4.1877 H   0  0  0  0  0  0  0  0  0  0  0  0
    5.2570   -5.0393    4.4655 H   0  0  0  0  0  0  0  0  0  0  0  0
    3.5156   -4.9720    4.3417 H   0  0  0  0  0  0  0  0  0  0  0  0
    3.1558   -7.9437    2.0660 H   0  0  0  0  0  0  0  0  0  0  0  0
    2.2651   -6.7045    2.9187 H   0  0  0  0  0  0  0  0  0  0  0  0
    2.4637   -6.1660    0.5130 H   0  0  0  0  0  0  0  0  0  0  0  0
    4.7612   -5.6848   -0.4881 H   0  0  0  0  0  0  0  0  0  0  0  0
    4.6094   -7.3373    0.0222 H   0  0  0  0  0  0  0  0  0  0  0  0
    4.6104    0.0274   -0.7676 H   0  0  0  0  0  0  0  0  0  0  0  0
  1 19  1  0
  1  2  2  0
  1 21  1  0
  2  3  1  0
  2 22  1  0
  3  4  2  0
  3 23  1  0
  4 18  1  0
  4  5  1  0
  5 20  1  0
  5  6  1  0
  6  7  1  0
  6 17  2  0
  7 15  1  0
  7  8  1  0
  7 24  1  1
  8 13  1  0
  8  9  1  0
  8 25  1  1
  9 10  1  0
  9 26  1  0
  9 27  1  0
 10 16  1  0
 10 11  1  0
 10 28  1  6
 11 12  1  0
 11 29  1  0
 11 30  1  0
 12 13  1  0
 12 14  1  0
 12 31  1  1
 13 32  1  0
 13 33  1  0
 14 15  1  0
 14 34  1  0
 14 35  1  0
 15 16  1  0
 15 36  1  6
 16 37  1  0
 16 38  1  0
 17 18  1  0
 18 19  2  0
 19 39  1  0
M  END
>  <i_m_ct_stereo_status>  (209) 
1

>  <s_m_source_file>  (209) 
/var/tmp/pbs.5076255.sched01/tmpq3cms3f1/82_sdm1vz9.sdf

>  <i_m_source_file_index>  (209) 
1

>  <i_lp_mmshare_version>  (209) 
48012

>  <i_f3d_flags>  (209) 
0

>  <s_epik_input>  (209) 
W2NIXTFbY0hdW2NIXVtjSF1jKGMxMiluYyhbbkhdMilbQ0BIXShbQ0BIXTM0KVtDQEBIXTVbQ0gyXVtDQEhdKFtDSDJdNClbQ0gyXVtDQEhdKFtDSDJdMylbQ0gyXTU=

>  <s_epik_cmdline>  (209) 
J2VwaWtfcHl0aG9uJywgJy1waHQnLCAnMi4wJywgJy1waCcsICc3LjAnLCAnLXRuJywgJzgnLCAnLW1hJywgJzIwMCcsICctaW1hZScsICc8aW5maWxlLm1hZT4nLCAnLW9tYWUnLCAnPG91dGZpbGUubWFlPic=

>  <r_epik_Ionization_Penalty>  (209) 
0.0628616

>  <r_epik_Ionization_Penalty_Charging>  (209) 
0

>  <r_epik_Ionization_Penalty_Neutral>  (209) 
0.0628616

>  <r_epik_State_Penalty>  (209) 
0.0546566

>  <r_epik_Charging_Adjusted_Penalty>  (209) 
0.0546566

>  <i_epik_Tot_Q>  (209) 
0

>  <i_epik_Tot_abs_Q>  (209) 
0

>  <s_lp_Force_Field>  (209) 
OPLS3e

>  <r_lp_Energy>  (209) 
11.9618

>  <b_lp_Chiralities_Consistent>  (209) 
1

>  <s_lp_Variant>  (209) 
60:0-1

>  <s_i_glide_gridfile>  (209) 
pfpi4k_grid

>  <i_i_glide_lignum>  (209) 
1

>  <i_i_glide_rotatable_bonds>  (209) 
1

>  <r_i_docking_score>  (209) 
-3.81437

>  <r_i_glide_ligand_efficiency>  (209) 
-0.200757

>  <r_i_glide_ligand_efficiency_sa>  (209) 
-0.535699

>  <r_i_glide_ligand_efficiency_ln>  (209) 
-0.967026

>  <r_i_glide_gscore>  (209) 
-3.81437

>  <r_i_glide_lipo>  (209) 
-0.777648

>  <r_i_glide_hbond>  (209) 
-0.217041

>  <r_i_glide_metal>  (209) 
-0

>  <r_i_glide_rewards>  (209) 
-1.68849

>  <r_i_glide_evdw>  (209) 
-18.9008

>  <r_i_glide_ecoul>  (209) 
-2.88868

>  <r_i_glide_erotb>  (209) 
0.275535

>  <r_i_glide_esite>  (209) 
-0.0283815

>  <r_i_glide_emodel>  (209) 
-26.3358

>  <r_i_glide_energy>  (209) 
-21.7895

>  <r_i_glide_einternal>  (209) 
0.595038

>  <r_i_glide_intrahb_reward>  (209) 
-0

>  <i_i_glide_confnum>  (209) 
5

>  <i_i_glide_posenum>  (209) 
2

>  <r_i_glide_eff_state_penalty>  (209) 
0

>  <ligand_id>  (209) 
60

>  <original_smiles>  (209) 
c1ccc2[nH]c(C3C4CC5CC(C4)CC3C5)nc2c1

>  <smiles>  (209) 
[H]c1c([H])c([H])c2c(nc(C3([H])C4([H])C([H])([H])C5([H])C([H])([H])C([H])(C4([H])[H])C([H])([H])C3([H])C5([H])[H])n2[H])c1[H]

$$$$
60:0:1
     RDKit          3D

 39 43  0  0  1  0  0  0  0  0999 V2000
    3.2623   -1.5412   -3.3403 C   0  0  0  0  0  0  0  0  0  0  0  0
    4.2078   -0.7467   -2.6599 C   0  0  0  0  0  0  0  0  0  0  0  0
    4.5921   -1.0737   -1.3453 C   0  0  0  0  0  0  0  0  0  0  0  0
    3.9895   -2.1713   -0.7204 C   0  0  0  0  0  0  0  0  0  0  0  0
    4.1105   -2.7454    0.5266 N   0  0  0  0  0  0  0  0  0  0  0  0
    3.3016   -3.8179    0.5577 C   0  0  0  0  0  0  0  0  0  0  0  0
    3.2426   -4.7370    1.7557 C   0  0  2  0  0  0  0  0  0  0  0  0
    4.5077   -4.6215    2.6605 C   0  0  2  0  0  0  0  0  0  0  0  0
    5.7760   -5.0816    1.8855 C   0  0  0  0  0  0  0  0  0  0  0  0
    5.6024   -6.5524    1.4550 C   0  0  1  0  0  0  0  0  0  0  0  0
    5.4447   -7.4196    2.7190 C   0  0  0  0  0  0  0  0  0  0  0  0
    4.1902   -6.9749    3.5020 C   0  0  1  0  0  0  0  0  0  0  0  0
    4.3376   -5.4985    3.9216 C   0  0  0  0  0  0  0  0  0  0  0  0
    2.9439   -7.1225    2.6121 C   0  0  0  0  0  0  0  0  0  0  0  0
    3.1023   -6.2375    1.3509 C   0  0  2  0  0  0  0  0  0  0  0  0
    4.3537   -6.6936    0.5577 C   0  0  0  0  0  0  0  0  0  0  0  0
    2.5383   -3.9620   -0.5253 N   0  0  0  0  0  0  0  0  0  0  0  0
    3.0100   -2.9710   -1.3677 C   0  0  0  0  0  0  0  0  0  0  0  0
    2.6774   -2.6602   -2.7040 C   0  0  0  0  0  0  0  0  0  0  0  0
    4.7342   -2.4842    1.2727 H   0  0  0  0  0  0  0  0  0  0  0  0
    2.9342   -1.2657   -4.3331 H   0  0  0  0  0  0  0  0  0  0  0  0
    4.6041    0.1438   -3.1206 H   0  0  0  0  0  0  0  0  0  0  0  0
    5.2974   -0.4780   -0.7997 H   0  0  0  0  0  0  0  0  0  0  0  0
    2.3604   -4.4392    2.3262 H   0  0  0  0  0  0  0  0  0  0  0  0
    4.6288   -3.5890    3.0001 H   0  0  0  0  0  0  0  0  0  0  0  0
    5.9640   -4.4792    0.9969 H   0  0  0  0  0  0  0  0  0  0  0  0
    6.6631   -4.9663    2.5123 H   0  0  0  0  0  0  0  0  0  0  0  0
    6.4828   -6.8659    0.8932 H   0  0  0  0  0  0  0  0  0  0  0  0
    5.3728   -8.4732    2.4470 H   0  0  0  0  0  0  0  0  0  0  0  0
    6.3325   -7.3141    3.3442 H   0  0  0  0  0  0  0  0  0  0  0  0
    4.0808   -7.5963    4.3879 H   0  0  0  0  0  0  0  0  0  0  0  0
    5.2001   -5.3749    4.5757 H   0  0  0  0  0  0  0  0  0  0  0  0
    3.4690   -5.1751    4.4976 H   0  0  0  0  0  0  0  0  0  0  0  0
    2.8119   -8.1676    2.3201 H   0  0  0  0  0  0  0  0  0  0  0  0
    2.0447   -6.8412    3.1635 H   0  0  0  0  0  0  0  0  0  0  0  0
    2.2131   -6.3681    0.7305 H   0  0  0  0  0  0  0  0  0  0  0  0
    4.4703   -6.0980   -0.3496 H   0  0  0  0  0  0  0  0  0  0  0  0
    4.2328   -7.7253    0.2220 H   0  0  0  0  0  0  0  0  0  0  0  0
    1.9353   -3.2612   -3.2072 H   0  0  0  0  0  0  0  0  0  0  0  0
  1 19  1  0
  1  2  2  0
  1 21  1  0
  2  3  1  0
  2 22  1  0
  3  4  2  0
  3 23  1  0
  4 18  1  0
  4  5  1  0
  5 20  1  0
  5  6  1  0
  6  7  1  0
  6 17  2  0
  7 15  1  0
  7  8  1  0
  7 24  1  1
  8 13  1  0
  8  9  1  0
  8 25  1  1
  9 10  1  0
  9 26  1  0
  9 27  1  0
 10 16  1  0
 10 11  1  0
 10 28  1  6
 11 12  1  0
 11 29  1  0
 11 30  1  0
 12 13  1  0
 12 14  1  0
 12 31  1  1
 13 32  1  0
 13 33  1  0
 14 15  1  0
 14 34  1  0
 14 35  1  0
 15 16  1  0
 15 36  1  6
 16 37  1  0
 16 38  1  0
 17 18  1  0
 18 19  2  0
 19 39  1  0
M  END
>  <i_m_ct_stereo_status>  (210) 
1

>  <s_m_source_file>  (210) 
/var/tmp/pbs.5076255.sched01/tmpq3cms3f1/82_sdm1vz9.sdf

>  <i_m_source_file_index>  (210) 
1

>  <i_lp_mmshare_version>  (210) 
48012

>  <i_f3d_flags>  (210) 
0

>  <s_epik_input>  (210) 
W2NIXTFbY0hdW2NIXVtjSF1jKGMxMiluYyhbbkhdMilbQ0BIXShbQ0BIXTM0KVtDQEBIXTVbQ0gyXVtDQEhdKFtDSDJdNClbQ0gyXVtDQEhdKFtDSDJdMylbQ0gyXTU=

>  <s_epik_cmdline>  (210) 
J2VwaWtfcHl0aG9uJywgJy1waHQnLCAnMi4wJywgJy1waCcsICc3LjAnLCAnLXRuJywgJzgnLCAnLW1hJywgJzIwMCcsICctaW1hZScsICc8aW5maWxlLm1hZT4nLCAnLW9tYWUnLCAnPG91dGZpbGUubWFlPic=

>  <r_epik_Ionization_Penalty>  (210) 
0.0628616

>  <r_epik_Ionization_Penalty_Charging>  (210) 
0

>  <r_epik_Ionization_Penalty_Neutral>  (210) 
0.0628616

>  <r_epik_State_Penalty>  (210) 
0.0546566

>  <r_epik_Charging_Adjusted_Penalty>  (210) 
0.0546566

>  <i_epik_Tot_Q>  (210) 
0

>  <i_epik_Tot_abs_Q>  (210) 
0

>  <s_lp_Force_Field>  (210) 
OPLS3e

>  <r_lp_Energy>  (210) 
11.9618

>  <b_lp_Chiralities_Consistent>  (210) 
1

>  <s_lp_Variant>  (210) 
60:0-1

>  <s_i_glide_gridfile>  (210) 
pfpi4k_grid

>  <i_i_glide_lignum>  (210) 
1

>  <i_i_glide_rotatable_bonds>  (210) 
1

>  <r_i_docking_score>  (210) 
-3.04359

>  <r_i_glide_ligand_efficiency>  (210) 
-0.160189

>  <r_i_glide_ligand_efficiency_sa>  (210) 
-0.427448

>  <r_i_glide_ligand_efficiency_ln>  (210) 
-0.771614

>  <r_i_glide_gscore>  (210) 
-3.04359

>  <r_i_glide_lipo>  (210) 
-0.515545

>  <r_i_glide_hbond>  (210) 
0

>  <r_i_glide_metal>  (210) 
-0

>  <r_i_glide_rewards>  (210) 
-1.68849

>  <r_i_glide_evdw>  (210) 
-22.5998

>  <r_i_glide_ecoul>  (210) 
0.160506

>  <r_i_glide_erotb>  (210) 
0.275535

>  <r_i_glide_esite>  (210) 
-0.00916738

>  <r_i_glide_emodel>  (210) 
-26.2979

>  <r_i_glide_energy>  (210) 
-22.4393

>  <r_i_glide_einternal>  (210) 
0.0896038

>  <r_i_glide_intrahb_reward>  (210) 
-0

>  <i_i_glide_confnum>  (210) 
5

>  <i_i_glide_posenum>  (210) 
8

>  <r_i_glide_eff_state_penalty>  (210) 
0

>  <ligand_id>  (210) 
60

>  <original_smiles>  (210) 
c1ccc2[nH]c(C3C4CC5CC(C4)CC3C5)nc2c1

>  <smiles>  (210) 
[H]c1c([H])c([H])c2c(nc(C3([H])C4([H])C([H])([H])C5([H])C([H])([H])C([H])(C4([H])[H])C([H])([H])C3([H])C5([H])[H])n2[H])c1[H]

$$$$
60:0:2
     RDKit          3D

 39 43  0  0  1  0  0  0  0  0999 V2000
    8.1362   -7.9104    3.1551 C   0  0  0  0  0  0  0  0  0  0  0  0
    7.1793   -8.8027    2.6282 C   0  0  0  0  0  0  0  0  0  0  0  0
    6.0507   -8.3143    1.9373 C   0  0  0  0  0  0  0  0  0  0  0  0
    5.8782   -6.9274    1.8216 C   0  0  0  0  0  0  0  0  0  0  0  0
    4.9168   -6.1147    1.2478 N   0  0  0  0  0  0  0  0  0  0  0  0
    5.3046   -4.8390    1.4373 C   0  0  0  0  0  0  0  0  0  0  0  0
    4.5147   -3.6677    0.9083 C   0  0  2  0  0  0  0  0  0  0  0  0
    3.8956   -3.9641   -0.4850 C   0  0  2  0  0  0  0  0  0  0  0  0
    5.0197   -4.1989   -1.5189 C   0  0  0  0  0  0  0  0  0  0  0  0
    5.8958   -2.9331   -1.6400 C   0  0  1  0  0  0  0  0  0  0  0  0
    5.0087   -1.7619   -2.1059 C   0  0  0  0  0  0  0  0  0  0  0  0
    3.8864   -1.5233   -1.0733 C   0  0  1  0  0  0  0  0  0  0  0  0
    3.0191   -2.7907   -0.9441 C   0  0  0  0  0  0  0  0  0  0  0  0
    4.5046   -1.1916    0.2984 C   0  0  0  0  0  0  0  0  0  0  0  0
    5.3832   -2.3775    0.7617 C   0  0  2  0  0  0  0  0  0  0  0  0
    6.5226   -2.5995   -0.2729 C   0  0  0  0  0  0  0  0  0  0  0  0
    6.4232   -4.7075    2.1465 N   0  0  0  0  0  0  0  0  0  0  0  0
    6.8150   -6.0108    2.3650 C   0  0  0  0  0  0  0  0  0  0  0  0
    7.9585   -6.5175    3.0184 C   0  0  0  0  0  0  0  0  0  0  0  0
    4.0987   -6.3880    0.7290 H   0  0  0  0  0  0  0  0  0  0  0  0
    9.0125   -8.2862    3.6673 H   0  0  0  0  0  0  0  0  0  0  0  0
    7.3104   -9.8701    2.7473 H   0  0  0  0  0  0  0  0  0  0  0  0
    5.3225   -8.9883    1.5203 H   0  0  0  0  0  0  0  0  0  0  0  0
    3.7148   -3.4813    1.6282 H   0  0  0  0  0  0  0  0  0  0  0  0
    3.2591   -4.8504   -0.4311 H   0  0  0  0  0  0  0  0  0  0  0  0
    5.6219   -5.0482   -1.2013 H   0  0  0  0  0  0  0  0  0  0  0  0
    4.6118   -4.4625   -2.4954 H   0  0  0  0  0  0  0  0  0  0  0  0
    6.6918   -3.1133   -2.3634 H   0  0  0  0  0  0  0  0  0  0  0  0
    5.6020   -0.8557   -2.2299 H   0  0  0  0  0  0  0  0  0  0  0  0
    4.5746   -1.9973   -3.0795 H   0  0  0  0  0  0  0  0  0  0  0  0
    3.2684   -0.6940   -1.4037 H   0  0  0  0  0  0  0  0  0  0  0  0
    2.5488   -3.0250   -1.8995 H   0  0  0  0  0  0  0  0  0  0  0  0
    2.2109   -2.6450   -0.2254 H   0  0  0  0  0  0  0  0  0  0  0  0
    5.1062   -0.2818    0.2346 H   0  0  0  0  0  0  0  0  0  0  0  0
    3.7184   -0.9902    1.0293 H   0  0  0  0  0  0  0  0  0  0  0  0
    5.8147   -2.1155    1.7328 H   0  0  0  0  0  0  0  0  0  0  0  0
    7.1817   -3.4175    0.0163 H   0  0  0  0  0  0  0  0  0  0  0  0
    7.1604   -1.7158   -0.3269 H   0  0  0  0  0  0  0  0  0  0  0  0
    8.6921   -5.8339    3.4172 H   0  0  0  0  0  0  0  0  0  0  0  0
  1 19  1  0
  1  2  2  0
  1 21  1  0
  2  3  1  0
  2 22  1  0
  3  4  2  0
  3 23  1  0
  4 18  1  0
  4  5  1  0
  5 20  1  0
  5  6  1  0
  6  7  1  0
  6 17  2  0
  7 15  1  0
  7  8  1  0
  7 24  1  1
  8 13  1  0
  8  9  1  0
  8 25  1  1
  9 10  1  0
  9 26  1  0
  9 27  1  0
 10 16  1  0
 10 11  1  0
 10 28  1  6
 11 12  1  0
 11 29  1  0
 11 30  1  0
 12 13  1  0
 12 14  1  0
 12 31  1  6
 13 32  1  0
 13 33  1  0
 14 15  1  0
 14 34  1  0
 14 35  1  0
 15 16  1  0
 15 36  1  1
 16 37  1  0
 16 38  1  0
 17 18  1  0
 18 19  2  0
 19 39  1  0
M  END
>  <i_m_ct_stereo_status>  (211) 
1

>  <s_m_source_file>  (211) 
/var/tmp/pbs.5076255.sched01/tmpq3cms3f1/82_sdm1vz9.sdf

>  <i_m_source_file_index>  (211) 
1

>  <i_lp_mmshare_version>  (211) 
48012

>  <i_f3d_flags>  (211) 
0

>  <s_epik_input>  (211) 
W2NIXTFbY0hdW2NIXVtjSF1jKGMxMiluYyhbbkhdMilbQ0BIXShbQ0BIXTM0KVtDQEBIXTVbQ0gyXVtDQEhdKFtDSDJdNClbQ0gyXVtDQEhdKFtDSDJdMylbQ0gyXTU=

>  <s_epik_cmdline>  (211) 
J2VwaWtfcHl0aG9uJywgJy1waHQnLCAnMi4wJywgJy1waCcsICc3LjAnLCAnLXRuJywgJzgnLCAnLW1hJywgJzIwMCcsICctaW1hZScsICc8aW5maWxlLm1hZT4nLCAnLW9tYWUnLCAnPG91dGZpbGUubWFlPic=

>  <r_epik_Ionization_Penalty>  (211) 
0.0628616

>  <r_epik_Ionization_Penalty_Charging>  (211) 
0

>  <r_epik_Ionization_Penalty_Neutral>  (211) 
0.0628616

>  <r_epik_State_Penalty>  (211) 
0.0546566

>  <r_epik_Charging_Adjusted_Penalty>  (211) 
0.0546566

>  <i_epik_Tot_Q>  (211) 
0

>  <i_epik_Tot_abs_Q>  (211) 
0

>  <s_lp_Force_Field>  (211) 
OPLS3e

>  <r_lp_Energy>  (211) 
11.9618

>  <b_lp_Chiralities_Consistent>  (211) 
1

>  <s_lp_Variant>  (211) 
60:0-1

>  <s_i_glide_gridfile>  (211) 
pfpi4k_grid

>  <i_i_glide_lignum>  (211) 
1

>  <i_i_glide_rotatable_bonds>  (211) 
1

>  <r_i_docking_score>  (211) 
-3.00554

>  <r_i_glide_ligand_efficiency>  (211) 
-0.158186

>  <r_i_glide_ligand_efficiency_sa>  (211) 
-0.422104

>  <r_i_glide_ligand_efficiency_ln>  (211) 
-0.761968

>  <r_i_glide_gscore>  (211) 
-3.00554

>  <r_i_glide_lipo>  (211) 
-0.338346

>  <r_i_glide_hbond>  (211) 
0

>  <r_i_glide_metal>  (211) 
-0

>  <r_i_glide_rewards>  (211) 
-1.75108

>  <r_i_glide_evdw>  (211) 
-20.8595

>  <r_i_glide_ecoul>  (211) 
-0.991141

>  <r_i_glide_erotb>  (211) 
0.275535

>  <r_i_glide_esite>  (211) 
0

>  <r_i_glide_emodel>  (211) 
-25.4968

>  <r_i_glide_energy>  (211) 
-21.8506

>  <r_i_glide_einternal>  (211) 
0.436679

>  <r_i_glide_intrahb_reward>  (211) 
-0

>  <i_i_glide_confnum>  (211) 
2

>  <i_i_glide_posenum>  (211) 
14

>  <r_i_glide_eff_state_penalty>  (211) 
0

>  <ligand_id>  (211) 
60

>  <original_smiles>  (211) 
c1ccc2[nH]c(C3C4CC5CC(C4)CC3C5)nc2c1

>  <smiles>  (211) 
[H]c1c([H])c([H])c2c(nc(C3([H])C4([H])C([H])([H])C5([H])C([H])([H])C([H])(C4([H])[H])C([H])([H])C3([H])C5([H])[H])n2[H])c1[H]

$$$$
60:1:0
     RDKit          3D

 40 44  0  0  1  0  0  0  0  0999 V2000
    2.8488   -0.9887   -4.0861 C   0  0  0  0  0  0  0  0  0  0  0  0
    3.8146   -0.1297   -3.5439 C   0  0  0  0  0  0  0  0  0  0  0  0
    4.6256   -0.5629   -2.4984 C   0  0  0  0  0  0  0  0  0  0  0  0
    4.4569   -1.8477   -2.0234 C   0  0  0  0  0  0  0  0  0  0  0  0
    5.1502   -2.5546   -1.0563 N   0  0  0  0  0  0  0  0  0  0  0  0
    4.5842   -3.7759   -0.8985 C   0  0  0  0  0  0  0  0  0  0  0  0
    4.9679   -4.8302    0.0958 C   0  0  2  0  0  0  0  0  0  0  0  0
    3.7212   -5.4417    0.7992 C   0  0  1  0  0  0  0  0  0  0  0  0
    4.1587   -6.5693    1.7619 C   0  0  0  0  0  0  0  0  0  0  0  0
    5.0857   -5.9882    2.8413 C   0  0  2  0  0  0  0  0  0  0  0  0
    4.3615   -4.8741    3.6344 C   0  0  0  0  0  0  0  0  0  0  0  0
    3.9278   -3.7594    2.6731 C   0  0  2  0  0  0  0  0  0  0  0  0
    2.9801   -4.3445    1.6000 C   0  0  0  0  0  0  0  0  0  0  0  0
    5.1885   -3.1574    2.0281 C   0  0  0  0  0  0  0  0  0  0  0  0
    5.9138   -4.2639    1.1996 C   0  0  1  0  0  0  0  0  0  0  0  0
    6.3343   -5.4137    2.1536 C   0  0  0  0  0  0  0  0  0  0  0  0
    3.5720   -3.8552   -1.7988 N   0  0  0  0  0  0  0  0  0  0  0  0
    3.4609   -2.6901   -2.5290 C   0  0  0  0  0  0  0  0  0  0  0  0
    2.6330   -2.2883   -3.5696 C   0  0  0  0  0  0  0  0  0  0  0  0
    5.8830   -2.1982   -0.4667 H   0  0  0  0  0  0  0  0  0  0  0  0
    2.2240   -0.5940   -4.8627 H   0  0  0  0  0  0  0  0  0  0  0  0
    3.9115    0.8822   -3.9246 H   0  0  0  0  0  0  0  0  0  0  0  0
    5.3926    0.0693   -2.1168 H   0  0  0  0  0  0  0  0  0  0  0  0
    5.4806   -5.6181   -0.4601 H   0  0  0  0  0  0  0  0  0  0  0  0
    3.0517   -5.8761    0.0594 H   0  0  0  0  0  0  0  0  0  0  0  0
    3.2898   -7.0332    2.2253 H   0  0  0  0  0  0  0  0  0  0  0  0
    4.6779   -7.3544    1.2141 H   0  0  0  0  0  0  0  0  0  0  0  0
    5.3844   -6.7723    3.5352 H   0  0  0  0  0  0  0  0  0  0  0  0
    3.4911   -5.2697    4.1616 H   0  0  0  0  0  0  0  0  0  0  0  0
    5.0268   -4.4566    4.3919 H   0  0  0  0  0  0  0  0  0  0  0  0
    3.4044   -2.9729    3.2152 H   0  0  0  0  0  0  0  0  0  0  0  0
    2.6214   -3.5524    0.9409 H   0  0  0  0  0  0  0  0  0  0  0  0
    2.0868   -4.7584    2.0666 H   0  0  0  0  0  0  0  0  0  0  0  0
    4.8694   -2.2926    1.4484 H   0  0  0  0  0  0  0  0  0  0  0  0
    5.8670   -2.7417    2.7707 H   0  0  0  0  0  0  0  0  0  0  0  0
    6.8203   -3.8692    0.7340 H   0  0  0  0  0  0  0  0  0  0  0  0
    7.0155   -5.0472    2.9110 H   0  0  0  0  0  0  0  0  0  0  0  0
    6.8793   -6.1931    1.6212 H   0  0  0  0  0  0  0  0  0  0  0  0
    1.8518   -2.9368   -3.9490 H   0  0  0  0  0  0  0  0  0  0  0  0
    3.1048   -4.7730   -1.9919 H   0  0  0  0  0  0  0  0  0  0  0  0
  1 19  1  0
  1  2  2  0
  1 21  1  0
  2  3  1  0
  2 22  1  0
  3  4  2  0
  3 23  1  0
  4 18  1  0
  4  5  1  0
  5 20  1  0
  5  6  1  0
  6  7  1  0
  6 17  2  0
  7 15  1  0
  7  8  1  0
  7 24  1  6
  8 13  1  0
  8  9  1  0
  8 25  1  6
  9 10  1  0
  9 26  1  0
  9 27  1  0
 10 16  1  0
 10 11  1  0
 10 28  1  1
 11 12  1  0
 11 29  1  0
 11 30  1  0
 12 13  1  0
 12 14  1  0
 12 31  1  1
 13 32  1  0
 13 33  1  0
 14 15  1  0
 14 34  1  0
 14 35  1  0
 15 16  1  0
 15 36  1  6
 16 37  1  0
 16 38  1  0
 17 18  1  0
 17 40  1  0
 18 19  2  0
 19 39  1  0
M  CHG  1  17   1
M  END
>  <i_m_ct_stereo_status>  (212) 
1

>  <s_m_source_file>  (212) 
/var/tmp/pbs.5076255.sched01/tmpq3cms3f1/82_sdm1vz9.sdf

>  <i_m_source_file_index>  (212) 
2

>  <i_lp_mmshare_version>  (212) 
48012

>  <i_f3d_flags>  (212) 
0

>  <s_epik_input>  (212) 
W2NIXTFbY0hdW2NIXVtjSF1jKGMxMiluYyhbbkhdMilbQ0BIXShbQ0BIXTM0KVtDQEBIXTVbQ0gyXVtDQEhdKFtDSDJdNClbQ0gyXVtDQEhdKFtDSDJdMylbQ0gyXTU=

>  <s_epik_cmdline>  (212) 
J2VwaWtfcHl0aG9uJywgJy1waHQnLCAnMi4wJywgJy1waCcsICc3LjAnLCAnLXRuJywgJzgnLCAnLW1hJywgJzIwMCcsICctaW1hZScsICc8aW5maWxlLm1hZT4nLCAnLW9tYWUnLCAnPG91dGZpbGUubWFlPic=

>  <r_epik_Ionization_Penalty>  (212) 
1.36033

>  <r_epik_Ionization_Penalty_Charging>  (212) 
1.36033

>  <r_epik_Ionization_Penalty_Neutral>  (212) 
5.67016e-14

>  <r_epik_State_Penalty>  (212) 
1.43916

>  <r_epik_Charging_Adjusted_Penalty>  (212) 
2.7995

>  <i_epik_Tot_Q>  (212) 
1

>  <i_epik_Tot_abs_Q>  (212) 
1

>  <s_lp_Force_Field>  (212) 
OPLS3e

>  <r_lp_Energy>  (212) 
15.4554

>  <b_lp_Chiralities_Consistent>  (212) 
1

>  <s_lp_Variant>  (212) 
60:0-2

>  <s_i_glide_gridfile>  (212) 
pfpi4k_grid

>  <i_i_glide_lignum>  (212) 
2

>  <i_i_glide_rotatable_bonds>  (212) 
1

>  <r_i_docking_score>  (212) 
-4.45957

>  <r_i_glide_ligand_efficiency>  (212) 
-0.234714

>  <r_i_glide_ligand_efficiency_sa>  (212) 
-0.626312

>  <r_i_glide_ligand_efficiency_ln>  (212) 
-1.1306

>  <r_i_glide_gscore>  (212) 
-4.45957

>  <r_i_glide_lipo>  (212) 
-0.75025

>  <r_i_glide_hbond>  (212) 
0

>  <r_i_glide_metal>  (212) 
-0

>  <r_i_glide_rewards>  (212) 
-1.68162

>  <r_i_glide_evdw>  (212) 
-14.6658

>  <r_i_glide_ecoul>  (212) 
-10.2547

>  <r_i_glide_erotb>  (212) 
0.273656

>  <r_i_glide_esite>  (212) 
-0.0298544

>  <r_i_glide_emodel>  (212) 
-29.9897

>  <r_i_glide_energy>  (212) 
-24.9206

>  <r_i_glide_einternal>  (212) 
1.88548

>  <r_i_glide_intrahb_reward>  (212) 
-0

>  <i_i_glide_confnum>  (212) 
3

>  <i_i_glide_posenum>  (212) 
6

>  <r_i_glide_eff_state_penalty>  (212) 
0

>  <ligand_id>  (212) 
60

>  <original_smiles>  (212) 
c1ccc2[nH]c(C3C4CC5CC(C4)CC3C5)nc2c1

>  <smiles>  (212) 
[H]c1c([H])c([H])c2c(c1[H])n([H])c(C1([H])C3([H])C([H])([H])C4([H])C([H])([H])C([H])(C3([H])[H])C([H])([H])C1([H])C4([H])[H])[n+]2[H]

$$$$
60:1:1
     RDKit          3D

 40 44  0  0  1  0  0  0  0  0999 V2000
    6.6100   -9.0251    2.5420 C   0  0  0  0  0  0  0  0  0  0  0  0
    5.5467   -9.6825    1.8978 C   0  0  0  0  0  0  0  0  0  0  0  0
    4.6403   -8.9897    1.0498 C   0  0  0  0  0  0  0  0  0  0  0  0
    4.8685   -7.6215    0.8849 C   0  0  0  0  0  0  0  0  0  0  0  0
    4.2140   -6.6377    0.1279 N   0  0  0  0  0  0  0  0  0  0  0  0
    4.8408   -5.4378    0.2986 C   0  0  0  0  0  0  0  0  0  0  0  0
    4.4525   -4.1038   -0.2935 C   0  0  2  0  0  0  0  0  0  0  0  0
    5.6415   -3.4107   -1.0301 C   0  0  1  0  0  0  0  0  0  0  0  0
    5.1335   -2.1102   -1.6945 C   0  0  0  0  0  0  0  0  0  0  0  0
    4.6114   -1.1492   -0.6059 C   0  0  2  0  0  0  0  0  0  0  0  0
    5.7169   -0.8218    0.4281 C   0  0  0  0  0  0  0  0  0  0  0  0
    6.2044   -2.1331    1.0684 C   0  0  2  0  0  0  0  0  0  0  0  0
    6.7949   -3.0413   -0.0505 C   0  0  0  0  0  0  0  0  0  0  0  0
    4.9996   -2.7736    1.8211 C   0  0  0  0  0  0  0  0  0  0  0  0
    3.8975   -3.1285    0.7867 C   0  0  1  0  0  0  0  0  0  0  0  0
    3.4239   -1.8201    0.1102 C   0  0  0  0  0  0  0  0  0  0  0  0
    5.8890   -5.6502    1.1546 N   0  0  0  0  0  0  0  0  0  0  0  0
    5.9381   -6.9839    1.5299 C   0  0  0  0  0  0  0  0  0  0  0  0
    6.8262   -7.6369    2.3656 C   0  0  0  0  0  0  0  0  0  0  0  0
    3.4087   -6.7694   -0.4784 H   0  0  0  0  0  0  0  0  0  0  0  0
    7.2853   -9.5845    3.1872 H   0  0  0  0  0  0  0  0  0  0  0  0
    5.4063  -10.7442    2.0491 H   0  0  0  0  0  0  0  0  0  0  0  0
    3.8226   -9.4952    0.5480 H   0  0  0  0  0  0  0  0  0  0  0  0
    3.6598   -4.3033   -1.0250 H   0  0  0  0  0  0  0  0  0  0  0  0
    6.0062   -4.0737   -1.8169 H   0  0  0  0  0  0  0  0  0  0  0  0
    5.9376   -1.6396   -2.2540 H   0  0  0  0  0  0  0  0  0  0  0  0
    4.3411   -2.3181   -2.4184 H   0  0  0  0  0  0  0  0  0  0  0  0
    4.2766   -0.2268   -1.0769 H   0  0  0  0  0  0  0  0  0  0  0  0
    6.5594   -0.3075   -0.0340 H   0  0  0  0  0  0  0  0  0  0  0  0
    5.3297   -0.1481    1.1986 H   0  0  0  0  0  0  0  0  0  0  0  0
    6.9902   -1.9072    1.7810 H   0  0  0  0  0  0  0  0  0  0  0  0
    7.2852   -3.9162    0.3752 H   0  0  0  0  0  0  0  0  0  0  0  0
    7.5763   -2.4973   -0.6044 H   0  0  0  0  0  0  0  0  0  0  0  0
    5.3057   -3.6418    2.4059 H   0  0  0  0  0  0  0  0  0  0  0  0
    4.5850   -2.0747    2.5573 H   0  0  0  0  0  0  0  0  0  0  0  0
    3.0385   -3.5899    1.2839 H   0  0  0  0  0  0  0  0  0  0  0  0
    3.0127   -1.1396    0.8551 H   0  0  0  0  0  0  0  0  0  0  0  0
    2.6186   -2.0162   -0.6003 H   0  0  0  0  0  0  0  0  0  0  0  0
    7.6464   -7.1339    2.8506 H   0  0  0  0  0  0  0  0  0  0  0  0
    6.5142   -4.9141    1.4761 H   0  0  0  0  0  0  0  0  0  0  0  0
  1 19  1  0
  1  2  2  0
  1 21  1  0
  2  3  1  0
  2 22  1  0
  3  4  2  0
  3 23  1  0
  4 18  1  0
  4  5  1  0
  5 20  1  0
  5  6  1  0
  6  7  1  0
  6 17  2  0
  7 15  1  0
  7  8  1  0
  7 24  1  6
  8 13  1  0
  8  9  1  0
  8 25  1  6
  9 10  1  0
  9 26  1  0
  9 27  1  0
 10 16  1  0
 10 11  1  0
 10 28  1  6
 11 12  1  0
 11 29  1  0
 11 30  1  0
 12 13  1  0
 12 14  1  0
 12 31  1  1
 13 32  1  0
 13 33  1  0
 14 15  1  0
 14 34  1  0
 14 35  1  0
 15 16  1  0
 15 36  1  1
 16 37  1  0
 16 38  1  0
 17 18  1  0
 17 40  1  0
 18 19  2  0
 19 39  1  0
M  CHG  1  17   1
M  END
>  <i_m_ct_stereo_status>  (213) 
1

>  <s_m_source_file>  (213) 
/var/tmp/pbs.5076255.sched01/tmpq3cms3f1/82_sdm1vz9.sdf

>  <i_m_source_file_index>  (213) 
2

>  <i_lp_mmshare_version>  (213) 
48012

>  <i_f3d_flags>  (213) 
0

>  <s_epik_input>  (213) 
W2NIXTFbY0hdW2NIXVtjSF1jKGMxMiluYyhbbkhdMilbQ0BIXShbQ0BIXTM0KVtDQEBIXTVbQ0gyXVtDQEhdKFtDSDJdNClbQ0gyXVtDQEhdKFtDSDJdMylbQ0gyXTU=

>  <s_epik_cmdline>  (213) 
J2VwaWtfcHl0aG9uJywgJy1waHQnLCAnMi4wJywgJy1waCcsICc3LjAnLCAnLXRuJywgJzgnLCAnLW1hJywgJzIwMCcsICctaW1hZScsICc8aW5maWxlLm1hZT4nLCAnLW9tYWUnLCAnPG91dGZpbGUubWFlPic=

>  <r_epik_Ionization_Penalty>  (213) 
1.36033

>  <r_epik_Ionization_Penalty_Charging>  (213) 
1.36033

>  <r_epik_Ionization_Penalty_Neutral>  (213) 
5.67016e-14

>  <r_epik_State_Penalty>  (213) 
1.43916

>  <r_epik_Charging_Adjusted_Penalty>  (213) 
2.7995

>  <i_epik_Tot_Q>  (213) 
1

>  <i_epik_Tot_abs_Q>  (213) 
1

>  <s_lp_Force_Field>  (213) 
OPLS3e

>  <r_lp_Energy>  (213) 
15.4554

>  <b_lp_Chiralities_Consistent>  (213) 
1

>  <s_lp_Variant>  (213) 
60:0-2

>  <s_i_glide_gridfile>  (213) 
pfpi4k_grid

>  <i_i_glide_lignum>  (213) 
2

>  <i_i_glide_rotatable_bonds>  (213) 
1

>  <r_i_docking_score>  (213) 
-3.66484

>  <r_i_glide_ligand_efficiency>  (213) 
-0.192886

>  <r_i_glide_ligand_efficiency_sa>  (213) 
-0.514698

>  <r_i_glide_ligand_efficiency_ln>  (213) 
-0.929115

>  <r_i_glide_gscore>  (213) 
-3.66484

>  <r_i_glide_lipo>  (213) 
-0.682202

>  <r_i_glide_hbond>  (213) 
0

>  <r_i_glide_metal>  (213) 
-0

>  <r_i_glide_rewards>  (213) 
-1.78149

>  <r_i_glide_evdw>  (213) 
-21.2672

>  <r_i_glide_ecoul>  (213) 
-2.74297

>  <r_i_glide_erotb>  (213) 
0.273656

>  <r_i_glide_esite>  (213) 
0

>  <r_i_glide_emodel>  (213) 
-25.4109

>  <r_i_glide_energy>  (213) 
-24.0101

>  <r_i_glide_einternal>  (213) 
7.85536

>  <r_i_glide_intrahb_reward>  (213) 
-0

>  <i_i_glide_confnum>  (213) 
4

>  <i_i_glide_posenum>  (213) 
16

>  <r_i_glide_eff_state_penalty>  (213) 
0

>  <ligand_id>  (213) 
60

>  <original_smiles>  (213) 
c1ccc2[nH]c(C3C4CC5CC(C4)CC3C5)nc2c1

>  <smiles>  (213) 
[H]c1c([H])c([H])c2c(c1[H])n([H])c(C1([H])C3([H])C([H])([H])C4([H])C([H])([H])C([H])(C3([H])[H])C([H])([H])C1([H])C4([H])[H])[n+]2[H]

$$$$
60:1:2
     RDKit          3D

 40 44  0  0  1  0  0  0  0  0999 V2000
    3.2411   -9.2345    2.5252 C   0  0  0  0  0  0  0  0  0  0  0  0
    2.3396   -8.4998    3.3230 C   0  0  0  0  0  0  0  0  0  0  0  0
    2.0899   -7.1327    3.0813 C   0  0  0  0  0  0  0  0  0  0  0  0
    2.7780   -6.5580    2.0188 C   0  0  0  0  0  0  0  0  0  0  0  0
    2.7609   -5.2646    1.5167 N   0  0  0  0  0  0  0  0  0  0  0  0
    3.6432   -5.1571    0.4798 C   0  0  0  0  0  0  0  0  0  0  0  0
    3.9562   -3.8989   -0.2980 C   0  0  2  0  0  0  0  0  0  0  0  0
    5.4767   -3.7835   -0.6050 C   0  0  1  0  0  0  0  0  0  0  0  0
    5.7515   -2.5270   -1.4609 C   0  0  0  0  0  0  0  0  0  0  0  0
    5.3224   -1.2690   -0.6800 C   0  0  2  0  0  0  0  0  0  0  0  0
    6.1007   -1.1710    0.6506 C   0  0  0  0  0  0  0  0  0  0  0  0
    5.8183   -2.4250    1.4984 C   0  0  2  0  0  0  0  0  0  0  0  0
    6.2771   -3.6803    0.7191 C   0  0  0  0  0  0  0  0  0  0  0  0
    4.3083   -2.4949    1.8086 C   0  0  0  0  0  0  0  0  0  0  0  0
    3.5241   -2.6162    0.4714 C   0  0  1  0  0  0  0  0  0  0  0  0
    3.8129   -1.3659   -0.3877 C   0  0  0  0  0  0  0  0  0  0  0  0
    4.1935   -6.3920    0.2895 N   0  0  0  0  0  0  0  0  0  0  0  0
    3.6899   -7.2836    1.2364 C   0  0  0  0  0  0  0  0  0  0  0  0
    3.9471   -8.6290    1.4626 C   0  0  0  0  0  0  0  0  0  0  0  0
    2.2324   -4.4825    1.8804 H   0  0  0  0  0  0  0  0  0  0  0  0
    3.3896  -10.2905    2.7141 H   0  0  0  0  0  0  0  0  0  0  0  0
    1.8161   -9.0007    4.1292 H   0  0  0  0  0  0  0  0  0  0  0  0
    1.4106   -6.5655    3.7007 H   0  0  0  0  0  0  0  0  0  0  0  0
    3.4055   -3.9575   -1.2408 H   0  0  0  0  0  0  0  0  0  0  0  0
    5.8095   -4.6567   -1.1696 H   0  0  0  0  0  0  0  0  0  0  0  0
    6.8093   -2.4707   -1.7181 H   0  0  0  0  0  0  0  0  0  0  0  0
    5.2061   -2.5861   -2.4050 H   0  0  0  0  0  0  0  0  0  0  0  0
    5.5095   -0.3791   -1.2803 H   0  0  0  0  0  0  0  0  0  0  0  0
    7.1726   -1.0758    0.4745 H   0  0  0  0  0  0  0  0  0  0  0  0
    5.7886   -0.2821    1.2001 H   0  0  0  0  0  0  0  0  0  0  0  0
    6.3630   -2.3640    2.4381 H   0  0  0  0  0  0  0  0  0  0  0  0
    6.1420   -4.5713    1.3340 H   0  0  0  0  0  0  0  0  0  0  0  0
    7.3474   -3.6278    0.5063 H   0  0  0  0  0  0  0  0  0  0  0  0
    4.1331   -3.3309    2.4872 H   0  0  0  0  0  0  0  0  0  0  0  0
    3.9845   -1.6000    2.3480 H   0  0  0  0  0  0  0  0  0  0  0  0
    2.4477   -2.6397    0.6625 H   0  0  0  0  0  0  0  0  0  0  0  0
    3.4818   -0.4723    0.1406 H   0  0  0  0  0  0  0  0  0  0  0  0
    3.2436   -1.3930   -1.3197 H   0  0  0  0  0  0  0  0  0  0  0  0
    4.6355   -9.2034    0.8575 H   0  0  0  0  0  0  0  0  0  0  0  0
    4.8740   -6.5980   -0.4313 H   0  0  0  0  0  0  0  0  0  0  0  0
  1 19  1  0
  1  2  2  0
  1 21  1  0
  2  3  1  0
  2 22  1  0
  3  4  2  0
  3 23  1  0
  4 18  1  0
  4  5  1  0
  5 20  1  0
  5  6  1  0
  6  7  1  0
  6 17  2  0
  7 15  1  0
  7  8  1  0
  7 24  1  6
  8 13  1  0
  8  9  1  0
  8 25  1  6
  9 10  1  0
  9 26  1  0
  9 27  1  0
 10 16  1  0
 10 11  1  0
 10 28  1  6
 11 12  1  0
 11 29  1  0
 11 30  1  0
 12 13  1  0
 12 14  1  0
 12 31  1  1
 13 32  1  0
 13 33  1  0
 14 15  1  0
 14 34  1  0
 14 35  1  0
 15 16  1  0
 15 36  1  1
 16 37  1  0
 16 38  1  0
 17 18  1  0
 17 40  1  0
 18 19  2  0
 19 39  1  0
M  CHG  1  17   1
M  END
>  <i_m_ct_stereo_status>  (214) 
1

>  <s_m_source_file>  (214) 
/var/tmp/pbs.5076255.sched01/tmpq3cms3f1/82_sdm1vz9.sdf

>  <i_m_source_file_index>  (214) 
2

>  <i_lp_mmshare_version>  (214) 
48012

>  <i_f3d_flags>  (214) 
0

>  <s_epik_input>  (214) 
W2NIXTFbY0hdW2NIXVtjSF1jKGMxMiluYyhbbkhdMilbQ0BIXShbQ0BIXTM0KVtDQEBIXTVbQ0gyXVtDQEhdKFtDSDJdNClbQ0gyXVtDQEhdKFtDSDJdMylbQ0gyXTU=

>  <s_epik_cmdline>  (214) 
J2VwaWtfcHl0aG9uJywgJy1waHQnLCAnMi4wJywgJy1waCcsICc3LjAnLCAnLXRuJywgJzgnLCAnLW1hJywgJzIwMCcsICctaW1hZScsICc8aW5maWxlLm1hZT4nLCAnLW9tYWUnLCAnPG91dGZpbGUubWFlPic=

>  <r_epik_Ionization_Penalty>  (214) 
1.36033

>  <r_epik_Ionization_Penalty_Charging>  (214) 
1.36033

>  <r_epik_Ionization_Penalty_Neutral>  (214) 
5.67016e-14

>  <r_epik_State_Penalty>  (214) 
1.43916

>  <r_epik_Charging_Adjusted_Penalty>  (214) 
2.7995

>  <i_epik_Tot_Q>  (214) 
1

>  <i_epik_Tot_abs_Q>  (214) 
1

>  <s_lp_Force_Field>  (214) 
OPLS3e

>  <r_lp_Energy>  (214) 
15.4554

>  <b_lp_Chiralities_Consistent>  (214) 
1

>  <s_lp_Variant>  (214) 
60:0-2

>  <s_i_glide_gridfile>  (214) 
pfpi4k_grid

>  <i_i_glide_lignum>  (214) 
2

>  <i_i_glide_rotatable_bonds>  (214) 
1

>  <r_i_docking_score>  (214) 
-3.40281

>  <r_i_glide_ligand_efficiency>  (214) 
-0.179095

>  <r_i_glide_ligand_efficiency_sa>  (214) 
-0.477898

>  <r_i_glide_ligand_efficiency_ln>  (214) 
-0.862686

>  <r_i_glide_gscore>  (214) 
-3.40281

>  <r_i_glide_lipo>  (214) 
-0.456977

>  <r_i_glide_hbond>  (214) 
0

>  <r_i_glide_metal>  (214) 
-0

>  <r_i_glide_rewards>  (214) 
-1.68162

>  <r_i_glide_evdw>  (214) 
-21.1846

>  <r_i_glide_ecoul>  (214) 
-3.07771

>  <r_i_glide_erotb>  (214) 
0.273656

>  <r_i_glide_esite>  (214) 
-0.01698

>  <r_i_glide_emodel>  (214) 
-29.0753

>  <r_i_glide_energy>  (214) 
-24.2623

>  <r_i_glide_einternal>  (214) 
1.45868

>  <r_i_glide_intrahb_reward>  (214) 
-0

>  <i_i_glide_confnum>  (214) 
4

>  <i_i_glide_posenum>  (214) 
24

>  <r_i_glide_eff_state_penalty>  (214) 
0

>  <ligand_id>  (214) 
60

>  <original_smiles>  (214) 
c1ccc2[nH]c(C3C4CC5CC(C4)CC3C5)nc2c1

>  <smiles>  (214) 
[H]c1c([H])c([H])c2c(c1[H])n([H])c(C1([H])C3([H])C([H])([H])C4([H])C([H])([H])C([H])(C3([H])[H])C([H])([H])C1([H])C4([H])[H])[n+]2[H]

$$$$
61:0:0
     RDKit          3D

 85 89  0  0  1  0  0  0  0  0999 V2000
    5.8405    1.6916    5.6896 C   0  0  0  0  0  0  0  0  0  0  0  0
    4.7288    1.0371    6.0986 C   0  0  0  0  0  0  0  0  0  0  0  0
    3.9802    1.5561    7.3118 C   0  0  0  0  0  0  0  0  0  0  0  0
    4.2227   -0.2761    5.4643 C   0  0  2  0  0  0  0  0  0  0  0  0
    5.3997   -1.0987    4.9243 C   0  0  0  0  0  0  0  0  0  0  0  0
    5.7124   -0.9771    3.4559 C   0  0  0  0  0  0  0  0  0  0  0  0
    4.9367   -1.4682    2.4468 C   0  0  0  0  0  0  0  0  0  0  0  0
    5.4030   -1.5069    1.0006 C   0  0  1  0  0  0  0  0  0  0  0  0
    6.7087   -1.0408    0.7794 O   0  0  0  0  0  0  0  0  0  0  0  0
    5.4687   -2.9539    0.5487 C   0  0  0  0  0  0  0  0  0  0  0  0
    4.0823   -3.6066    0.5395 C   0  0  0  0  0  0  0  0  0  0  0  0
    3.5348   -3.5930   -0.9036 C   0  0  0  0  0  0  0  0  0  0  0  0
    4.2209   -5.0859    0.9522 C   0  0  0  0  0  0  0  0  0  0  0  0
    3.0648   -2.8188    1.4214 C   0  0  0  0  0  0  0  0  0  0  0  0
    3.5778   -2.0842    2.7305 C   0  0  1  0  0  0  0  0  0  0  0  0
    3.6811   -3.2623    3.7631 C   0  0  0  0  0  0  0  0  0  0  0  0
    2.5917   -0.9209    3.2413 C   0  0  2  0  0  0  0  0  0  0  0  0
    1.1834   -1.5689    3.2370 C   0  0  0  0  0  0  0  0  0  0  0  0
    2.6072    0.3710    2.3087 C   0  0  1  0  0  0  0  0  0  0  0  0
    2.4878    0.1459    0.9239 O   0  0  0  0  0  0  0  0  0  0  0  0
    1.6362    1.5350    2.6747 C   0  0  1  0  0  0  0  0  0  0  0  0
    0.3255    1.1119    2.3715 O   0  0  0  0  0  0  0  0  0  0  0  0
    1.8361    2.0379    4.1428 C   0  0  2  0  0  0  0  0  0  0  0  0
    3.1706    2.8173    4.1153 C   0  0  0  0  0  0  0  0  0  0  0  0
    1.8930    0.8021    5.0321 C   0  0  0  0  0  0  0  0  0  0  0  0
    0.9330    0.7810    5.9515 C   0  0  0  0  0  0  0  0  0  0  0  0
    0.0373    1.9996    5.9262 C   0  0  2  0  0  0  0  0  0  0  0  0
   -1.4813    1.6747    5.8058 C   0  0  0  0  0  0  0  0  0  0  0  0
   -1.7442    0.3908    4.9564 C   0  0  0  0  0  0  0  0  0  0  0  0
   -2.0322    1.4114    7.2332 C   0  0  0  0  0  0  0  0  0  0  0  0
   -2.2009    2.9112    5.2046 C   0  0  0  0  0  0  0  0  0  0  0  0
   -3.1775    3.3598    5.7643 O   0  0  0  0  0  0  0  0  0  0  0  0
   -1.6157    3.5481    4.0061 C   0  0  0  0  0  0  0  0  0  0  0  0
   -0.2961    3.5326    3.8403 C   0  0  0  0  0  0  0  0  0  0  0  0
    0.7002    2.9235    4.8295 C   0  0  2  0  0  0  0  0  0  0  0  0
    1.2411    4.1576    5.6086 C   0  0  0  0  0  0  0  0  0  0  0  0
    2.8111   -0.3921    4.7443 C   0  0  2  0  0  0  0  0  0  0  0  0
    6.1620    2.5965    6.1847 H   0  0  0  0  0  0  0  0  0  0  0  0
    6.4495    1.3465    4.8687 H   0  0  0  0  0  0  0  0  0  0  0  0
    3.0298    1.9982    7.0383 H   0  0  0  0  0  0  0  0  0  0  0  0
    4.5560    2.3330    7.8160 H   0  0  0  0  0  0  0  0  0  0  0  0
    3.7968    0.7519    8.0246 H   0  0  0  0  0  0  0  0  0  0  0  0
    4.0585   -0.8242    6.3906 H   0  0  0  0  0  0  0  0  0  0  0  0
    6.2780   -0.7774    5.4668 H   0  0  0  0  0  0  0  0  0  0  0  0
    5.3823   -2.1404    5.2376 H   0  0  0  0  0  0  0  0  0  0  0  0
    6.6693   -0.5659    3.2127 H   0  0  0  0  0  0  0  0  0  0  0  0
    4.7031   -0.9401    0.3819 H   0  0  0  0  0  0  0  0  0  0  0  0
    6.8147   -0.1928    1.1887 H   0  0  0  0  0  0  0  0  0  0  0  0
    5.9001   -2.9821   -0.4459 H   0  0  0  0  0  0  0  0  0  0  0  0
    6.1691   -3.5107    1.1856 H   0  0  0  0  0  0  0  0  0  0  0  0
    2.5342   -4.0331   -0.9421 H   0  0  0  0  0  0  0  0  0  0  0  0
    4.1680   -4.1645   -1.5896 H   0  0  0  0  0  0  0  0  0  0  0  0
    3.4576   -2.5758   -1.2916 H   0  0  0  0  0  0  0  0  0  0  0  0
    3.2537   -5.5932    0.9726 H   0  0  0  0  0  0  0  0  0  0  0  0
    4.6792   -5.1897    1.9341 H   0  0  0  0  0  0  0  0  0  0  0  0
    4.8591   -5.6309    0.2464 H   0  0  0  0  0  0  0  0  0  0  0  0
    2.5635   -2.1346    0.7435 H   0  0  0  0  0  0  0  0  0  0  0  0
    2.2754   -3.5065    1.6832 H   0  0  0  0  0  0  0  0  0  0  0  0
    2.9350   -4.0385    3.6131 H   0  0  0  0  0  0  0  0  0  0  0  0
    3.5428   -2.9729    4.8023 H   0  0  0  0  0  0  0  0  0  0  0  0
    4.6449   -3.7615    3.6960 H   0  0  0  0  0  0  0  0  0  0  0  0
    0.4576   -0.9582    3.7615 H   0  0  0  0  0  0  0  0  0  0  0  0
    1.1530   -2.5489    3.7261 H   0  0  0  0  0  0  0  0  0  0  0  0
    0.8168   -1.6805    2.2176 H   0  0  0  0  0  0  0  0  0  0  0  0
    3.6111    0.7688    2.3747 H   0  0  0  0  0  0  0  0  0  0  0  0
    1.6490   -0.2636    0.7140 H   0  0  0  0  0  0  0  0  0  0  0  0
    1.8299    2.3816    2.0116 H   0  0  0  0  0  0  0  0  0  0  0  0
    0.2074    1.1722    1.4336 H   0  0  0  0  0  0  0  0  0  0  0  0
    3.0974    3.6791    3.4510 H   0  0  0  0  0  0  0  0  0  0  0  0
    3.9830    2.2068    3.7431 H   0  0  0  0  0  0  0  0  0  0  0  0
    3.5079    3.1829    5.0825 H   0  0  0  0  0  0  0  0  0  0  0  0
    0.7589   -0.0510    6.6180 H   0  0  0  0  0  0  0  0  0  0  0  0
    0.2072    2.4356    6.9158 H   0  0  0  0  0  0  0  0  0  0  0  0
   -1.2195   -0.4959    5.3422 H   0  0  0  0  0  0  0  0  0  0  0  0
   -1.4721    0.5626    3.9185 H   0  0  0  0  0  0  0  0  0  0  0  0
   -2.7816    0.0815    4.9237 H   0  0  0  0  0  0  0  0  0  0  0  0
   -1.5176    0.5689    7.7012 H   0  0  0  0  0  0  0  0  0  0  0  0
   -3.0983    1.2048    7.2127 H   0  0  0  0  0  0  0  0  0  0  0  0
   -1.9028    2.2741    7.8877 H   0  0  0  0  0  0  0  0  0  0  0  0
   -2.2948    4.0228    3.3149 H   0  0  0  0  0  0  0  0  0  0  0  0
    0.1622    3.9947    2.9666 H   0  0  0  0  0  0  0  0  0  0  0  0
    1.9501    3.8839    6.3944 H   0  0  0  0  0  0  0  0  0  0  0  0
    0.4316    4.6946    6.1012 H   0  0  0  0  0  0  0  0  0  0  0  0
    1.7266    4.8678    4.9386 H   0  0  0  0  0  0  0  0  0  0  0  0
    2.3579   -1.1789    5.3564 H   0  0  0  0  0  0  0  0  0  0  0  0
  1  2  2  0
  1 38  1  0
  1 39  1  0
  2  3  1  0
  2  4  1  0
  3 40  1  0
  3 41  1  0
  3 42  1  0
  4 37  1  0
  4  5  1  0
  4 43  1  1
  5  6  1  0
  5 44  1  0
  5 45  1  0
  6  7  2  0
  6 46  1  0
  7 15  1  0
  7  8  1  0
  8  9  1  0
  8 10  1  0
  8 47  1  6
  9 48  1  0
 10 11  1  0
 10 49  1  0
 10 50  1  0
 11 12  1  0
 11 13  1  0
 11 14  1  0
 12 51  1  0
 12 52  1  0
 12 53  1  0
 13 54  1  0
 13 55  1  0
 13 56  1  0
 14 15  1  0
 14 57  1  0
 14 58  1  0
 15 16  1  1
 15 17  1  0
 16 59  1  0
 16 60  1  0
 16 61  1  0
 17 37  1  0
 17 18  1  1
 17 19  1  0
 18 62  1  0
 18 63  1  0
 18 64  1  0
 19 20  1  0
 19 21  1  0
 19 65  1  6
 20 66  1  0
 21 22  1  0
 21 23  1  0
 21 67  1  6
 22 68  1  0
 23 35  1  0
 23 24  1  6
 23 25  1  0
 24 69  1  0
 24 70  1  0
 24 71  1  0
 25 26  2  0
 25 37  1  0
 26 27  1  0
 26 72  1  0
 27 35  1  0
 27 28  1  0
 27 73  1  1
 28 29  1  0
 28 30  1  0
 28 31  1  0
 29 74  1  0
 29 75  1  0
 29 76  1  0
 30 77  1  0
 30 78  1  0
 30 79  1  0
 31 32  2  0
 31 33  1  0
 33 34  2  0
 33 80  1  0
 34 35  1  0
 34 81  1  0
 35 36  1  1
 36 82  1  0
 36 83  1  0
 36 84  1  0
 37 85  1  1
M  END
>  <i_m_ct_stereo_status>  (215) 
1

>  <s_m_source_file>  (215) 
/var/tmp/pbs.5076255.sched01/tmpq3cms3f1/82_sdm1vz9.sdf

>  <i_m_source_file_index>  (215) 
3

>  <i_lp_mmshare_version>  (215) 
48012

>  <i_f3d_flags>  (215) 
0

>  <s_epik_input>  (215) 
W0NIM11DKFtDSDNdKShbQ0gyXTEpW0NIMl1bQ0BIXShbT0hdKUMoW0NAXTEyW0NIM10pPVtDSF1bQ0gyXVtDQEBIXShDKD1bQ0gyXSlbQ0gzXSlbQ0BASF0zW0NAQF0yKFtDSDNdKVtDQEBIXShbT0hdKVtDQEBIXShbT0hdKVtDQF00KFtDSDNdKUMzPVtDSF1bQ0BIXTVbQ0BdNChbQ0gzXSlbQ0hdPVtDSF1DKD1PKUM1KFtDSDNdKVtDSDNd

>  <s_epik_cmdline>  (215) 
J2VwaWtfcHl0aG9uJywgJy1waHQnLCAnMi4wJywgJy1waCcsICc3LjAnLCAnLXRuJywgJzgnLCAnLW1hJywgJzIwMCcsICctaW1hZScsICc8aW5maWxlLm1hZT4nLCAnLW9tYWUnLCAnPG91dGZpbGUubWFlPic=

>  <r_lp_tautomer_probability>  (215) 
1

>  <r_epik_Ionization_Penalty>  (215) 
5.703e-07

>  <r_epik_Ionization_Penalty_Charging>  (215) 
0

>  <r_epik_Ionization_Penalty_Neutral>  (215) 
5.703e-07

>  <r_epik_State_Penalty>  (215) 
-0

>  <r_epik_Charging_Adjusted_Penalty>  (215) 
0

>  <i_epik_Tot_Q>  (215) 
0

>  <i_epik_Tot_abs_Q>  (215) 
0

>  <s_lp_Force_Field>  (215) 
OPLS3e

>  <r_lp_Energy>  (215) 
111.522

>  <b_lp_Chiralities_Consistent>  (215) 
1

>  <s_lp_Variant>  (215) 
61:0-1

>  <s_i_glide_gridfile>  (215) 
pfpi4k_grid

>  <i_i_glide_lignum>  (215) 
3

>  <i_i_glide_rotatable_bonds>  (215) 
4

>  <r_i_docking_score>  (215) 
-3.10451

>  <r_i_glide_ligand_efficiency>  (215) 
-0.0839056

>  <r_i_glide_ligand_efficiency_sa>  (215) 
-0.279592

>  <r_i_glide_ligand_efficiency_ln>  (215) 
-0.673295

>  <r_i_glide_gscore>  (215) 
-3.10451

>  <r_i_glide_lipo>  (215) 
-0.433091

>  <r_i_glide_hbond>  (215) 
-0.307124

>  <r_i_glide_metal>  (215) 
-0

>  <r_i_glide_rewards>  (215) 
0

>  <r_i_glide_evdw>  (215) 
-26.7391

>  <r_i_glide_ecoul>  (215) 
-7.3501

>  <r_i_glide_erotb>  (215) 
0.0791136

>  <r_i_glide_esite>  (215) 
-0.00393555

>  <r_i_glide_emodel>  (215) 
-36.9815

>  <r_i_glide_energy>  (215) 
-34.0892

>  <r_i_glide_einternal>  (215) 
2.33118

>  <r_i_glide_intrahb_reward>  (215) 
-0

>  <i_i_glide_confnum>  (215) 
2

>  <i_i_glide_posenum>  (215) 
14

>  <r_i_glide_eff_state_penalty>  (215) 
0

>  <ligand_id>  (215) 
61

>  <original_smiles>  (215) 
C=C(C)C1CC=C2C(O)CC(C)(C)CC2(C)C2(C)C(O)C(O)C3(C)C(=CC4C(C)(C)C(=O)C=CC43C)C12

>  <smiles>  (215) 
[H]OC1([H])C2=C([H])C([H])([H])C([H])(C(=C([H])[H])C([H])([H])[H])C3([H])C4=C([H])C5([H])C(C([H])([H])[H])(C([H])([H])[H])C(=O)C([H])=C([H])C5(C([H])([H])[H])C4(C([H])([H])[H])C([H])(O[H])C([H])(O[H])C3(C([H])([H])[H])C2(C([H])([H])[H])C([H])([H])C(C([H])([H])[H])(C([H])([H])[H])C1([H])[H]

$$$$
61:0:1
     RDKit          3D

 85 89  0  0  1  0  0  0  0  0999 V2000
    6.3282   -7.3996    5.6541 C   0  0  0  0  0  0  0  0  0  0  0  0
    5.6974   -6.2058    5.6210 C   0  0  0  0  0  0  0  0  0  0  0  0
    6.4498   -4.9304    5.9245 C   0  0  0  0  0  0  0  0  0  0  0  0
    4.1793   -6.0661    5.3970 C   0  0  2  0  0  0  0  0  0  0  0  0
    3.4300   -7.0957    6.2664 C   0  0  0  0  0  0  0  0  0  0  0  0
    2.9740   -8.3452    5.5636 C   0  0  0  0  0  0  0  0  0  0  0  0
    2.0884   -8.4069    4.5782 C   0  0  0  0  0  0  0  0  0  0  0  0
    1.5965   -9.7469    4.0295 C   0  0  1  0  0  0  0  0  0  0  0  0
    2.2160  -10.8744    4.6306 O   0  0  0  0  0  0  0  0  0  0  0  0
    0.1132   -9.8338    4.2397 C   0  0  0  0  0  0  0  0  0  0  0  0
   -0.6775   -8.7543    3.4669 C   0  0  0  0  0  0  0  0  0  0  0  0
   -1.3697   -9.4060    2.2596 C   0  0  0  0  0  0  0  0  0  0  0  0
   -1.7573   -8.1693    4.3655 C   0  0  0  0  0  0  0  0  0  0  0  0
    0.1956   -7.5737    2.9965 C   0  0  0  0  0  0  0  0  0  0  0  0
    1.4218   -7.1592    3.9257 C   0  0  1  0  0  0  0  0  0  0  0  0
    0.7590   -6.2613    5.0455 C   0  0  0  0  0  0  0  0  0  0  0  0
    2.5335   -6.3778    3.1045 C   0  0  2  0  0  0  0  0  0  0  0  0
    1.7515   -5.2919    2.3126 C   0  0  0  0  0  0  0  0  0  0  0  0
    3.3525   -7.3219    2.1430 C   0  0  1  0  0  0  0  0  0  0  0  0
    2.5957   -8.1522    1.3150 O   0  0  0  0  0  0  0  0  0  0  0  0
    4.3550   -6.6135    1.2191 C   0  0  1  0  0  0  0  0  0  0  0  0
    3.6473   -5.8597    0.2440 O   0  0  0  0  0  0  0  0  0  0  0  0
    5.4253   -5.8029    2.0247 C   0  0  2  0  0  0  0  0  0  0  0  0
    6.3496   -6.8983    2.6001 C   0  0  0  0  0  0  0  0  0  0  0  0
    4.6804   -4.9650    3.0651 C   0  0  0  0  0  0  0  0  0  0  0  0
    4.8602   -3.6503    2.8969 C   0  0  0  0  0  0  0  0  0  0  0  0
    5.8137   -3.2952    1.7773 C   0  0  2  0  0  0  0  0  0  0  0  0
    5.2427   -2.2657    0.7238 C   0  0  0  0  0  0  0  0  0  0  0  0
    3.7348   -2.4076    0.4005 C   0  0  0  0  0  0  0  0  0  0  0  0
    5.4929   -0.8340    1.2428 C   0  0  0  0  0  0  0  0  0  0  0  0
    5.9399   -2.4374   -0.6498 C   0  0  0  0  0  0  0  0  0  0  0  0
    6.1431   -1.4778   -1.4146 O   0  0  0  0  0  0  0  0  0  0  0  0
    6.1649   -3.8085   -1.0865 C   0  0  0  0  0  0  0  0  0  0  0  0
    6.2134   -4.8452   -0.2176 C   0  0  0  0  0  0  0  0  0  0  0  0
    6.2974   -4.7061    1.2754 C   0  0  2  0  0  0  0  0  0  0  0  0
    7.8423   -4.8167    1.5303 C   0  0  0  0  0  0  0  0  0  0  0  0
    3.6093   -5.5763    3.9868 C   0  0  2  0  0  0  0  0  0  0  0  0
    7.3904   -7.4488    5.8672 H   0  0  0  0  0  0  0  0  0  0  0  0
    5.8055   -8.3338    5.4917 H   0  0  0  0  0  0  0  0  0  0  0  0
    6.5116   -4.3051    5.0422 H   0  0  0  0  0  0  0  0  0  0  0  0
    7.4629   -5.1551    6.2587 H   0  0  0  0  0  0  0  0  0  0  0  0
    5.9669   -4.3645    6.7244 H   0  0  0  0  0  0  0  0  0  0  0  0
    3.9921   -5.1814    6.0127 H   0  0  0  0  0  0  0  0  0  0  0  0
    4.0621   -7.4444    7.0723 H   0  0  0  0  0  0  0  0  0  0  0  0
    2.5837   -6.6612    6.7930 H   0  0  0  0  0  0  0  0  0  0  0  0
    3.3762   -9.2752    5.9704 H   0  0  0  0  0  0  0  0  0  0  0  0
    1.7522   -9.8341    2.9570 H   0  0  0  0  0  0  0  0  0  0  0  0
    1.7719  -11.0581    5.4541 H   0  0  0  0  0  0  0  0  0  0  0  0
   -0.1921  -10.8486    3.9735 H   0  0  0  0  0  0  0  0  0  0  0  0
   -0.1049   -9.7591    5.3072 H   0  0  0  0  0  0  0  0  0  0  0  0
   -1.9364   -8.6585    1.6800 H   0  0  0  0  0  0  0  0  0  0  0  0
   -2.0956  -10.1488    2.6093 H   0  0  0  0  0  0  0  0  0  0  0  0
   -0.6314   -9.9186    1.6594 H   0  0  0  0  0  0  0  0  0  0  0  0
   -2.3804   -7.4721    3.7727 H   0  0  0  0  0  0  0  0  0  0  0  0
   -1.3649   -7.6510    5.2667 H   0  0  0  0  0  0  0  0  0  0  0  0
   -2.4270   -8.9787    4.6453 H   0  0  0  0  0  0  0  0  0  0  0  0
    0.4387   -7.8000    1.9628 H   0  0  0  0  0  0  0  0  0  0  0  0
   -0.4621   -6.7114    2.8581 H   0  0  0  0  0  0  0  0  0  0  0  0
   -0.1200   -5.7130    4.6960 H   0  0  0  0  0  0  0  0  0  0  0  0
    1.3997   -5.4872    5.4585 H   0  0  0  0  0  0  0  0  0  0  0  0
    0.4261   -6.8582    5.9032 H   0  0  0  0  0  0  0  0  0  0  0  0
    2.4000   -4.5421    1.8704 H   0  0  0  0  0  0  0  0  0  0  0  0
    1.0257   -4.7342    2.9210 H   0  0  0  0  0  0  0  0  0  0  0  0
    1.2100   -5.7666    1.5010 H   0  0  0  0  0  0  0  0  0  0  0  0
    3.8620   -8.0215    2.7873 H   0  0  0  0  0  0  0  0  0  0  0  0
    2.1509   -8.7194    1.9167 H   0  0  0  0  0  0  0  0  0  0  0  0
    4.8656   -7.3913    0.6498 H   0  0  0  0  0  0  0  0  0  0  0  0
    4.1636   -5.8286   -0.5569 H   0  0  0  0  0  0  0  0  0  0  0  0
    6.8781   -7.4363    1.8071 H   0  0  0  0  0  0  0  0  0  0  0  0
    5.7982   -7.6461    3.1452 H   0  0  0  0  0  0  0  0  0  0  0  0
    7.0735   -6.5078    3.3045 H   0  0  0  0  0  0  0  0  0  0  0  0
    4.3311   -2.8901    3.4599 H   0  0  0  0  0  0  0  0  0  0  0  0
    6.6134   -2.7801    2.3006 H   0  0  0  0  0  0  0  0  0  0  0  0
    3.1178   -2.2517    1.2897 H   0  0  0  0  0  0  0  0  0  0  0  0
    3.5079   -3.3829   -0.0400 H   0  0  0  0  0  0  0  0  0  0  0  0
    3.4520   -1.6469   -0.3362 H   0  0  0  0  0  0  0  0  0  0  0  0
    4.9681   -0.6578    2.1843 H   0  0  0  0  0  0  0  0  0  0  0  0
    5.1480   -0.0869    0.5283 H   0  0  0  0  0  0  0  0  0  0  0  0
    6.5621   -0.6738    1.4030 H   0  0  0  0  0  0  0  0  0  0  0  0
    6.2063   -3.9451   -2.1557 H   0  0  0  0  0  0  0  0  0  0  0  0
    6.2267   -5.9110   -0.4635 H   0  0  0  0  0  0  0  0  0  0  0  0
    8.0772   -4.8257    2.5918 H   0  0  0  0  0  0  0  0  0  0  0  0
    8.4155   -3.9874    1.0891 H   0  0  0  0  0  0  0  0  0  0  0  0
    8.2578   -5.7481    1.1207 H   0  0  0  0  0  0  0  0  0  0  0  0
    3.0787   -4.6603    4.2950 H   0  0  0  0  0  0  0  0  0  0  0  0
  1  2  2  0
  1 38  1  0
  1 39  1  0
  2  3  1  0
  2  4  1  0
  3 40  1  0
  3 41  1  0
  3 42  1  0
  4 37  1  0
  4  5  1  0
  4 43  1  1
  5  6  1  0
  5 44  1  0
  5 45  1  0
  6  7  2  0
  6 46  1  0
  7 15  1  0
  7  8  1  0
  8  9  1  0
  8 10  1  0
  8 47  1  6
  9 48  1  0
 10 11  1  0
 10 49  1  0
 10 50  1  0
 11 12  1  0
 11 13  1  0
 11 14  1  0
 12 51  1  0
 12 52  1  0
 12 53  1  0
 13 54  1  0
 13 55  1  0
 13 56  1  0
 14 15  1  0
 14 57  1  0
 14 58  1  0
 15 16  1  1
 15 17  1  0
 16 59  1  0
 16 60  1  0
 16 61  1  0
 17 37  1  0
 17 18  1  6
 17 19  1  0
 18 62  1  0
 18 63  1  0
 18 64  1  0
 19 20  1  0
 19 21  1  0
 19 65  1  1
 20 66  1  0
 21 22  1  0
 21 23  1  0
 21 67  1  6
 22 68  1  0
 23 35  1  0
 23 24  1  1
 23 25  1  0
 24 69  1  0
 24 70  1  0
 24 71  1  0
 25 26  2  0
 25 37  1  0
 26 27  1  0
 26 72  1  0
 27 35  1  0
 27 28  1  0
 27 73  1  1
 28 29  1  0
 28 30  1  0
 28 31  1  0
 29 74  1  0
 29 75  1  0
 29 76  1  0
 30 77  1  0
 30 78  1  0
 30 79  1  0
 31 32  2  0
 31 33  1  0
 33 34  2  0
 33 80  1  0
 34 35  1  0
 34 81  1  0
 35 36  1  1
 36 82  1  0
 36 83  1  0
 36 84  1  0
 37 85  1  1
M  END
>  <i_m_ct_stereo_status>  (216) 
1

>  <s_m_source_file>  (216) 
/var/tmp/pbs.5076255.sched01/tmpq3cms3f1/82_sdm1vz9.sdf

>  <i_m_source_file_index>  (216) 
3

>  <i_lp_mmshare_version>  (216) 
48012

>  <i_f3d_flags>  (216) 
0

>  <s_epik_input>  (216) 
W0NIM11DKFtDSDNdKShbQ0gyXTEpW0NIMl1bQ0BIXShbT0hdKUMoW0NAXTEyW0NIM10pPVtDSF1bQ0gyXVtDQEBIXShDKD1bQ0gyXSlbQ0gzXSlbQ0BASF0zW0NAQF0yKFtDSDNdKVtDQEBIXShbT0hdKVtDQEBIXShbT0hdKVtDQF00KFtDSDNdKUMzPVtDSF1bQ0BIXTVbQ0BdNChbQ0gzXSlbQ0hdPVtDSF1DKD1PKUM1KFtDSDNdKVtDSDNd

>  <s_epik_cmdline>  (216) 
J2VwaWtfcHl0aG9uJywgJy1waHQnLCAnMi4wJywgJy1waCcsICc3LjAnLCAnLXRuJywgJzgnLCAnLW1hJywgJzIwMCcsICctaW1hZScsICc8aW5maWxlLm1hZT4nLCAnLW9tYWUnLCAnPG91dGZpbGUubWFlPic=

>  <r_lp_tautomer_probability>  (216) 
1

>  <r_epik_Ionization_Penalty>  (216) 
5.703e-07

>  <r_epik_Ionization_Penalty_Charging>  (216) 
0

>  <r_epik_Ionization_Penalty_Neutral>  (216) 
5.703e-07

>  <r_epik_State_Penalty>  (216) 
-0

>  <r_epik_Charging_Adjusted_Penalty>  (216) 
0

>  <i_epik_Tot_Q>  (216) 
0

>  <i_epik_Tot_abs_Q>  (216) 
0

>  <s_lp_Force_Field>  (216) 
OPLS3e

>  <r_lp_Energy>  (216) 
111.522

>  <b_lp_Chiralities_Consistent>  (216) 
1

>  <s_lp_Variant>  (216) 
61:0-1

>  <s_i_glide_gridfile>  (216) 
pfpi4k_grid

>  <i_i_glide_lignum>  (216) 
3

>  <i_i_glide_rotatable_bonds>  (216) 
4

>  <r_i_docking_score>  (216) 
-2.72991

>  <r_i_glide_ligand_efficiency>  (216) 
-0.0737813

>  <r_i_glide_ligand_efficiency_sa>  (216) 
-0.245856

>  <r_i_glide_ligand_efficiency_ln>  (216) 
-0.592053

>  <r_i_glide_gscore>  (216) 
-2.72991

>  <r_i_glide_lipo>  (216) 
-0.978808

>  <r_i_glide_hbond>  (216) 
-0.113776

>  <r_i_glide_metal>  (216) 
-0

>  <r_i_glide_rewards>  (216) 
0

>  <r_i_glide_evdw>  (216) 
-21.0506

>  <r_i_glide_ecoul>  (216) 
-4.29823

>  <r_i_glide_erotb>  (216) 
0.0791136

>  <r_i_glide_esite>  (216) 
-0.0191724

>  <r_i_glide_emodel>  (216) 
-25.5038

>  <r_i_glide_energy>  (216) 
-25.3488

>  <r_i_glide_einternal>  (216) 
2.58192

>  <r_i_glide_intrahb_reward>  (216) 
-0

>  <i_i_glide_confnum>  (216) 
5

>  <i_i_glide_posenum>  (216) 
38

>  <r_i_glide_eff_state_penalty>  (216) 
0

>  <ligand_id>  (216) 
61

>  <original_smiles>  (216) 
C=C(C)C1CC=C2C(O)CC(C)(C)CC2(C)C2(C)C(O)C(O)C3(C)C(=CC4C(C)(C)C(=O)C=CC43C)C12

>  <smiles>  (216) 
[H]OC1([H])C2=C([H])C([H])([H])C([H])(C(=C([H])[H])C([H])([H])[H])C3([H])C4=C([H])C5([H])C(C([H])([H])[H])(C([H])([H])[H])C(=O)C([H])=C([H])C5(C([H])([H])[H])C4(C([H])([H])[H])C([H])(O[H])C([H])(O[H])C3(C([H])([H])[H])C2(C([H])([H])[H])C([H])([H])C(C([H])([H])[H])(C([H])([H])[H])C1([H])[H]

$$$$
61:0:2
     RDKit          3D

 85 89  0  0  1  0  0  0  0  0999 V2000
    6.4075   -7.4357    5.7272 C   0  0  0  0  0  0  0  0  0  0  0  0
    5.7690   -6.2479    5.7165 C   0  0  0  0  0  0  0  0  0  0  0  0
    6.5314   -4.9785    6.0545 C   0  0  0  0  0  0  0  0  0  0  0  0
    4.2556   -6.1064    5.4679 C   0  0  2  0  0  0  0  0  0  0  0  0
    3.4940   -7.1217    6.3385 C   0  0  0  0  0  0  0  0  0  0  0  0
    3.0259   -8.3709    5.6400 C   0  0  0  0  0  0  0  0  0  0  0  0
    2.1418   -8.4266    4.6345 C   0  0  0  0  0  0  0  0  0  0  0  0
    1.6510   -9.7628    4.0949 C   0  0  1  0  0  0  0  0  0  0  0  0
    2.2573  -10.8847    4.7071 O   0  0  0  0  0  0  0  0  0  0  0  0
    0.1761   -9.8322    4.3332 C   0  0  0  0  0  0  0  0  0  0  0  0
   -0.6283   -8.7704    3.5428 C   0  0  0  0  0  0  0  0  0  0  0  0
   -1.3280   -9.3995    2.3297 C   0  0  0  0  0  0  0  0  0  0  0  0
   -1.7449   -8.2168    4.4039 C   0  0  0  0  0  0  0  0  0  0  0  0
    0.2610   -7.5960    3.0839 C   0  0  0  0  0  0  0  0  0  0  0  0
    1.4837   -7.1789    4.0032 C   0  0  1  0  0  0  0  0  0  0  0  0
    0.8314   -6.2714    5.1104 C   0  0  0  0  0  0  0  0  0  0  0  0
    2.6004   -6.3939    3.1790 C   0  0  2  0  0  0  0  0  0  0  0  0
    1.8303   -5.3084    2.3658 C   0  0  0  0  0  0  0  0  0  0  0  0
    3.4099   -7.3271    2.1801 C   0  0  1  0  0  0  0  0  0  0  0  0
    2.6483   -8.1181    1.2696 O   0  0  0  0  0  0  0  0  0  0  0  0
    4.4707   -6.6423    1.2645 C   0  0  1  0  0  0  0  0  0  0  0  0
    3.7929   -5.8823    0.2878 O   0  0  0  0  0  0  0  0  0  0  0  0
    5.5238   -5.8471    2.0912 C   0  0  2  0  0  0  0  0  0  0  0  0
    6.4253   -6.9465    2.6889 C   0  0  0  0  0  0  0  0  0  0  0  0
    4.7705   -5.0117    3.1314 C   0  0  0  0  0  0  0  0  0  0  0  0
    4.9595   -3.6949    2.9609 C   0  0  0  0  0  0  0  0  0  0  0  0
    5.9020   -3.3525    1.8362 C   0  0  2  0  0  0  0  0  0  0  0  0
    5.3723   -2.3111    0.7840 C   0  0  0  0  0  0  0  0  0  0  0  0
    3.8737   -2.4359    0.4568 C   0  0  0  0  0  0  0  0  0  0  0  0
    5.6245   -0.8732    1.3096 C   0  0  0  0  0  0  0  0  0  0  0  0
    6.0800   -2.5150   -0.5496 C   0  0  0  0  0  0  0  0  0  0  0  0
    6.3755   -1.5293   -1.2223 O   0  0  0  0  0  0  0  0  0  0  0  0
    6.2846   -3.8747   -1.0098 C   0  0  0  0  0  0  0  0  0  0  0  0
    6.4475   -4.8954   -0.1178 C   0  0  0  0  0  0  0  0  0  0  0  0
    6.4236   -4.7489    1.3581 C   0  0  2  0  0  0  0  0  0  0  0  0
    7.9466   -4.8813    1.6483 C   0  0  0  0  0  0  0  0  0  0  0  0
    3.6969   -5.6140    4.0501 C   0  0  2  0  0  0  0  0  0  0  0  0
    7.4691   -7.4948    5.9274 H   0  0  0  0  0  0  0  0  0  0  0  0
    5.8891   -8.3619    5.5241 H   0  0  0  0  0  0  0  0  0  0  0  0
    6.5971   -4.3213    5.1903 H   0  0  0  0  0  0  0  0  0  0  0  0
    7.5413   -5.2110    6.3962 H   0  0  0  0  0  0  0  0  0  0  0  0
    6.0444   -4.4325    6.8639 H   0  0  0  0  0  0  0  0  0  0  0  0
    4.0766   -5.2197    6.0737 H   0  0  0  0  0  0  0  0  0  0  0  0
    4.1235   -7.4652    7.1638 H   0  0  0  0  0  0  0  0  0  0  0  0
    2.6516   -6.6733    6.8658 H   0  0  0  0  0  0  0  0  0  0  0  0
    3.4208   -9.2901    6.0534 H   0  0  0  0  0  0  0  0  0  0  0  0
    1.8136   -9.8317    3.0224 H   0  0  0  0  0  0  0  0  0  0  0  0
    1.8072  -11.0906    5.5218 H   0  0  0  0  0  0  0  0  0  0  0  0
   -0.1347  -10.8380    4.0471 H   0  0  0  0  0  0  0  0  0  0  0  0
   -0.0378   -9.7454    5.4048 H   0  0  0  0  0  0  0  0  0  0  0  0
   -1.8925   -8.6601    1.7567 H   0  0  0  0  0  0  0  0  0  0  0  0
   -2.0297  -10.1750    2.6318 H   0  0  0  0  0  0  0  0  0  0  0  0
   -0.5953   -9.8659    1.6754 H   0  0  0  0  0  0  0  0  0  0  0  0
   -2.3289   -7.4502    3.9029 H   0  0  0  0  0  0  0  0  0  0  0  0
   -1.3013   -7.7713    5.2756 H   0  0  0  0  0  0  0  0  0  0  0  0
   -2.3873   -9.0412    4.7075 H   0  0  0  0  0  0  0  0  0  0  0  0
    0.5436   -7.8583    2.0789 H   0  0  0  0  0  0  0  0  0  0  0  0
   -0.3871   -6.7372    2.9167 H   0  0  0  0  0  0  0  0  0  0  0  0
   -0.0441   -5.7202    4.7661 H   0  0  0  0  0  0  0  0  0  0  0  0
    1.4809   -5.5054    5.5247 H   0  0  0  0  0  0  0  0  0  0  0  0
    0.4924   -6.8612    5.9627 H   0  0  0  0  0  0  0  0  0  0  0  0
    2.4890   -4.5676    1.9260 H   0  0  0  0  0  0  0  0  0  0  0  0
    1.1210   -4.7433    2.9722 H   0  0  0  0  0  0  0  0  0  0  0  0
    1.2830   -5.7546    1.5357 H   0  0  0  0  0  0  0  0  0  0  0  0
    3.9017   -8.0755    2.7930 H   0  0  0  0  0  0  0  0  0  0  0  0
    3.1615   -8.8529    1.0057 H   0  0  0  0  0  0  0  0  0  0  0  0
    4.9877   -7.4250    0.7068 H   0  0  0  0  0  0  0  0  0  0  0  0
    4.3957   -5.6801   -0.4132 H   0  0  0  0  0  0  0  0  0  0  0  0
    6.9607   -7.4971    1.9142 H   0  0  0  0  0  0  0  0  0  0  0  0
    5.8520   -7.6872    3.2300 H   0  0  0  0  0  0  0  0  0  0  0  0
    7.1560   -6.5585    3.3925 H   0  0  0  0  0  0  0  0  0  0  0  0
    4.4511   -2.9189    3.5309 H   0  0  0  0  0  0  0  0  0  0  0  0
    6.7034   -2.8237    2.3247 H   0  0  0  0  0  0  0  0  0  0  0  0
    3.2467   -2.2798    1.3342 H   0  0  0  0  0  0  0  0  0  0  0  0
    3.6365   -3.4043    0.0180 H   0  0  0  0  0  0  0  0  0  0  0  0
    3.5877   -1.6840   -0.2875 H   0  0  0  0  0  0  0  0  0  0  0  0
    5.1006   -0.6908    2.2472 H   0  0  0  0  0  0  0  0  0  0  0  0
    5.2899   -0.1177    0.5930 H   0  0  0  0  0  0  0  0  0  0  0  0
    6.6880   -0.6928    1.4757 H   0  0  0  0  0  0  0  0  0  0  0  0
    6.3739   -3.9803   -2.0815 H   0  0  0  0  0  0  0  0  0  0  0  0
    6.7160   -5.9298   -0.3017 H   0  0  0  0  0  0  0  0  0  0  0  0
    8.1749   -4.9045    2.7010 H   0  0  0  0  0  0  0  0  0  0  0  0
    8.5200   -4.0647    1.1945 H   0  0  0  0  0  0  0  0  0  0  0  0
    8.3778   -5.8077    1.2567 H   0  0  0  0  0  0  0  0  0  0  0  0
    3.1609   -4.7130    4.3525 H   0  0  0  0  0  0  0  0  0  0  0  0
  1  2  2  0
  1 38  1  0
  1 39  1  0
  2  3  1  0
  2  4  1  0
  3 40  1  0
  3 41  1  0
  3 42  1  0
  4 37  1  0
  4  5  1  0
  4 43  1  1
  5  6  1  0
  5 44  1  0
  5 45  1  0
  6  7  2  0
  6 46  1  0
  7 15  1  0
  7  8  1  0
  8  9  1  0
  8 10  1  0
  8 47  1  6
  9 48  1  0
 10 11  1  0
 10 49  1  0
 10 50  1  0
 11 12  1  0
 11 13  1  0
 11 14  1  0
 12 51  1  0
 12 52  1  0
 12 53  1  0
 13 54  1  0
 13 55  1  0
 13 56  1  0
 14 15  1  0
 14 57  1  0
 14 58  1  0
 15 16  1  1
 15 17  1  0
 16 59  1  0
 16 60  1  0
 16 61  1  0
 17 37  1  0
 17 18  1  6
 17 19  1  0
 18 62  1  0
 18 63  1  0
 18 64  1  0
 19 20  1  0
 19 21  1  0
 19 65  1  1
 20 66  1  0
 21 22  1  0
 21 23  1  0
 21 67  1  6
 22 68  1  0
 23 35  1  0
 23 24  1  1
 23 25  1  0
 24 69  1  0
 24 70  1  0
 24 71  1  0
 25 26  2  0
 25 37  1  0
 26 27  1  0
 26 72  1  0
 27 35  1  0
 27 28  1  0
 27 73  1  1
 28 29  1  0
 28 30  1  0
 28 31  1  0
 29 74  1  0
 29 75  1  0
 29 76  1  0
 30 77  1  0
 30 78  1  0
 30 79  1  0
 31 32  2  0
 31 33  1  0
 33 34  2  0
 33 80  1  0
 34 35  1  0
 34 81  1  0
 35 36  1  1
 36 82  1  0
 36 83  1  0
 36 84  1  0
 37 85  1  1
M  END
>  <i_m_ct_stereo_status>  (217) 
1

>  <s_m_source_file>  (217) 
/var/tmp/pbs.5076255.sched01/tmpq3cms3f1/82_sdm1vz9.sdf

>  <i_m_source_file_index>  (217) 
3

>  <i_lp_mmshare_version>  (217) 
48012

>  <i_f3d_flags>  (217) 
0

>  <s_epik_input>  (217) 
W0NIM11DKFtDSDNdKShbQ0gyXTEpW0NIMl1bQ0BIXShbT0hdKUMoW0NAXTEyW0NIM10pPVtDSF1bQ0gyXVtDQEBIXShDKD1bQ0gyXSlbQ0gzXSlbQ0BASF0zW0NAQF0yKFtDSDNdKVtDQEBIXShbT0hdKVtDQEBIXShbT0hdKVtDQF00KFtDSDNdKUMzPVtDSF1bQ0BIXTVbQ0BdNChbQ0gzXSlbQ0hdPVtDSF1DKD1PKUM1KFtDSDNdKVtDSDNd

>  <s_epik_cmdline>  (217) 
J2VwaWtfcHl0aG9uJywgJy1waHQnLCAnMi4wJywgJy1waCcsICc3LjAnLCAnLXRuJywgJzgnLCAnLW1hJywgJzIwMCcsICctaW1hZScsICc8aW5maWxlLm1hZT4nLCAnLW9tYWUnLCAnPG91dGZpbGUubWFlPic=

>  <r_lp_tautomer_probability>  (217) 
1

>  <r_epik_Ionization_Penalty>  (217) 
5.703e-07

>  <r_epik_Ionization_Penalty_Charging>  (217) 
0

>  <r_epik_Ionization_Penalty_Neutral>  (217) 
5.703e-07

>  <r_epik_State_Penalty>  (217) 
-0

>  <r_epik_Charging_Adjusted_Penalty>  (217) 
0

>  <i_epik_Tot_Q>  (217) 
0

>  <i_epik_Tot_abs_Q>  (217) 
0

>  <s_lp_Force_Field>  (217) 
OPLS3e

>  <r_lp_Energy>  (217) 
111.522

>  <b_lp_Chiralities_Consistent>  (217) 
1

>  <s_lp_Variant>  (217) 
61:0-1

>  <s_i_glide_gridfile>  (217) 
pfpi4k_grid

>  <i_i_glide_lignum>  (217) 
3

>  <i_i_glide_rotatable_bonds>  (217) 
4

>  <r_i_docking_score>  (217) 
-2.48351

>  <r_i_glide_ligand_efficiency>  (217) 
-0.067122

>  <r_i_glide_ligand_efficiency_sa>  (217) 
-0.223665

>  <r_i_glide_ligand_efficiency_ln>  (217) 
-0.538616

>  <r_i_glide_gscore>  (217) 
-2.48351

>  <r_i_glide_lipo>  (217) 
-0.988115

>  <r_i_glide_hbond>  (217) 
-0.131984

>  <r_i_glide_metal>  (217) 
-0

>  <r_i_glide_rewards>  (217) 
0

>  <r_i_glide_evdw>  (217) 
-16.9493

>  <r_i_glide_ecoul>  (217) 
-3.8745

>  <r_i_glide_erotb>  (217) 
0.0791136

>  <r_i_glide_esite>  (217) 
-0.0138861

>  <r_i_glide_emodel>  (217) 
-21.9759

>  <r_i_glide_energy>  (217) 
-20.8238

>  <r_i_glide_einternal>  (217) 
2.38779

>  <r_i_glide_intrahb_reward>  (217) 
-0

>  <i_i_glide_confnum>  (217) 
2

>  <i_i_glide_posenum>  (217) 
31

>  <r_i_glide_eff_state_penalty>  (217) 
0

>  <ligand_id>  (217) 
61

>  <original_smiles>  (217) 
C=C(C)C1CC=C2C(O)CC(C)(C)CC2(C)C2(C)C(O)C(O)C3(C)C(=CC4C(C)(C)C(=O)C=CC43C)C12

>  <smiles>  (217) 
[H]OC1([H])C2=C([H])C([H])([H])C([H])(C(=C([H])[H])C([H])([H])[H])C3([H])C4=C([H])C5([H])C(C([H])([H])[H])(C([H])([H])[H])C(=O)C([H])=C([H])C5(C([H])([H])[H])C4(C([H])([H])[H])C([H])(O[H])C([H])(O[H])C3(C([H])([H])[H])C2(C([H])([H])[H])C([H])([H])C(C([H])([H])[H])(C([H])([H])[H])C1([H])[H]

$$$$
62:2:0
     RDKit          3D

 79 85  0  0  1  0  0  0  0  0999 V2000
    7.3257   -2.5349   -1.8421 C   0  0  0  0  0  0  0  0  0  0  0  0
    6.4859   -2.6013   -0.7831 C   0  0  0  0  0  0  0  0  0  0  0  0
    6.7577   -2.0734    0.5101 C   0  0  0  0  0  0  0  0  0  0  0  0
    7.7438   -1.4530    0.8591 O   0  0  0  0  0  0  0  0  0  0  0  0
    5.4783   -2.1593    1.3690 C   0  0  1  0  0  0  0  0  0  0  0  0
    5.7002   -2.1241    2.8243 N   0  0  0  0  0  0  0  0  0  0  0  0
    5.8028   -0.8429    3.5146 C   0  0  0  0  0  0  0  0  0  0  0  0
    4.4073   -1.0361    0.9581 C   0  0  1  0  0  0  0  0  0  0  0  0
    4.9692    0.1391    0.2088 C   0  0  0  0  0  0  0  0  0  0  0  0
    3.0271   -1.4469    0.2899 C   0  0  0  0  0  0  0  0  0  0  0  0
    2.5407   -2.9499    0.4931 C   0  0  2  0  0  0  0  0  0  0  0  0
    3.3341   -3.3442    1.6683 C   0  0  1  0  0  0  0  0  0  0  0  0
    2.8012   -4.1968    2.8933 C   0  0  2  0  0  0  0  0  0  0  0  0
    1.4657   -3.5480    3.3727 C   0  0  0  0  0  0  0  0  0  0  0  0
    3.7063   -4.0328    4.1584 C   0  0  0  0  0  0  0  0  0  0  0  0
    4.9732   -4.8764    4.3866 C   0  0  0  0  0  0  0  0  0  0  0  0
    5.8470   -5.4043    3.2147 C   0  0  1  0  0  0  0  0  0  0  0  0
    6.9298   -6.2550    3.9213 C   0  0  0  0  0  0  0  0  0  0  0  0
    5.0440   -6.0807    2.0348 C   0  0  1  0  0  0  0  0  0  0  0  0
    5.7818   -7.3202    1.3838 C   0  0  1  0  0  0  0  0  0  0  0  0
    7.1453   -6.9705    1.0712 O   0  0  0  0  0  0  0  0  0  0  0  0
    8.0543   -8.0452    0.8451 C   0  0  0  0  0  0  0  0  0  0  0  0
    5.5706   -8.6600    2.1053 C   0  0  0  0  0  0  0  0  0  0  0  0
    4.0762   -8.9652    2.2787 C   0  0  0  0  0  0  0  0  0  0  0  0
    3.2781   -7.8422    1.9294 O   0  0  0  0  0  0  0  0  0  0  0  0
    3.6887   -6.6575    2.5949 C   0  0  2  0  0  0  0  0  0  0  0  0
    2.5157   -5.6731    2.5938 C   0  0  0  0  0  0  0  0  0  0  0  0
    1.3665   -6.0415    2.3077 O   0  0  0  0  0  0  0  0  0  0  0  0
    4.9097   -5.0314    0.8377 C   0  0  1  0  0  0  0  0  0  0  0  0
    3.7330   -5.3146   -0.1909 C   0  0  0  0  0  0  0  0  0  0  0  0
    2.7183   -4.1093   -0.5875 C   0  0  1  0  0  0  0  0  0  0  0  0
    1.4533   -4.7778   -0.8181 N   0  0  0  0  0  0  0  0  0  0  0  0
    3.2114   -3.4523   -1.9258 C   0  0  1  0  0  0  0  0  0  0  0  0
    2.2014   -2.6785   -2.5486 O   0  0  0  0  0  0  0  0  0  0  0  0
    4.3068   -2.6703   -1.6474 O   0  0  0  0  0  0  0  0  0  0  0  0
    5.1721   -3.2524   -0.6932 C   0  0  2  0  0  0  0  0  0  0  0  0
    4.7536   -3.4817    0.9362 C   0  0  2  0  0  0  0  0  0  0  0  0
    7.0226   -2.9348   -2.7892 H   0  0  0  0  0  0  0  0  0  0  0  0
    8.2914   -2.0865   -1.7675 H   0  0  0  0  0  0  0  0  0  0  0  0
    5.1687   -2.8495    3.2968 H   0  0  0  0  0  0  0  0  0  0  0  0
    6.2121   -0.9601    4.5118 H   0  0  0  0  0  0  0  0  0  0  0  0
    4.8428   -0.3757    3.7255 H   0  0  0  0  0  0  0  0  0  0  0  0
    6.4216   -0.1428    2.9628 H   0  0  0  0  0  0  0  0  0  0  0  0
    4.0128   -0.5405    1.8465 H   0  0  0  0  0  0  0  0  0  0  0  0
    5.1590   -0.1924   -0.8272 H   0  0  0  0  0  0  0  0  0  0  0  0
    5.8816    0.4727    0.7239 H   0  0  0  0  0  0  0  0  0  0  0  0
    4.1881    0.9258    0.2674 H   0  0  0  0  0  0  0  0  0  0  0  0
    2.2898   -0.8484    0.8268 H   0  0  0  0  0  0  0  0  0  0  0  0
    3.0042   -1.0663   -0.7271 H   0  0  0  0  0  0  0  0  0  0  0  0
    1.5127   -2.7743    0.7575 H   0  0  0  0  0  0  0  0  0  0  0  0
    3.2943   -2.4761    2.3138 H   0  0  0  0  0  0  0  0  0  0  0  0
    1.5709   -2.4809    3.5921 H   0  0  0  0  0  0  0  0  0  0  0  0
    1.0736   -4.0280    4.2723 H   0  0  0  0  0  0  0  0  0  0  0  0
    0.6769   -3.6348    2.6394 H   0  0  0  0  0  0  0  0  0  0  0  0
    3.9390   -2.9814    4.3140 H   0  0  0  0  0  0  0  0  0  0  0  0
    3.0945   -4.2345    5.0386 H   0  0  0  0  0  0  0  0  0  0  0  0
    5.6205   -4.2930    5.0417 H   0  0  0  0  0  0  0  0  0  0  0  0
    4.6832   -5.7239    5.0106 H   0  0  0  0  0  0  0  0  0  0  0  0
    6.4089   -4.5831    2.7730 H   0  0  0  0  0  0  0  0  0  0  0  0
    6.4957   -7.0988    4.4592 H   0  0  0  0  0  0  0  0  0  0  0  0
    7.4597   -5.6524    4.6591 H   0  0  0  0  0  0  0  0  0  0  0  0
    7.7120   -6.6300    3.2679 H   0  0  0  0  0  0  0  0  0  0  0  0
    5.3302   -7.4913    0.4152 H   0  0  0  0  0  0  0  0  0  0  0  0
    8.9867   -7.6451    0.4337 H   0  0  0  0  0  0  0  0  0  0  0  0
    7.7256   -8.8130    0.1336 H   0  0  0  0  0  0  0  0  0  0  0  0
    8.2309   -8.5359    1.8047 H   0  0  0  0  0  0  0  0  0  0  0  0
    5.9822   -9.4900    1.5361 H   0  0  0  0  0  0  0  0  0  0  0  0
    6.0824   -8.6868    3.0625 H   0  0  0  0  0  0  0  0  0  0  0  0
    3.7973   -9.8156    1.6536 H   0  0  0  0  0  0  0  0  0  0  0  0
    3.8916   -9.2635    3.3103 H   0  0  0  0  0  0  0  0  0  0  0  0
    3.8263   -6.9772    3.6255 H   0  0  0  0  0  0  0  0  0  0  0  0
    5.8733   -5.2017    0.3511 H   0  0  0  0  0  0  0  0  0  0  0  0
    4.2798   -5.7214   -1.0437 H   0  0  0  0  0  0  0  0  0  0  0  0
    3.1658   -6.1866    0.1092 H   0  0  0  0  0  0  0  0  0  0  0  0
    1.6271   -5.3883   -1.6133 H   0  0  0  0  0  0  0  0  0  0  0  0
    1.2826   -5.3954   -0.0313 H   0  0  0  0  0  0  0  0  0  0  0  0
    3.5638   -4.1662   -2.6619 H   0  0  0  0  0  0  0  0  0  0  0  0
    1.7780   -2.1384   -1.8858 H   0  0  0  0  0  0  0  0  0  0  0  0
    5.5147   -4.1055   -1.2819 H   0  0  0  0  0  0  0  0  0  0  0  0
  1  2  2  0
  1 38  1  0
  1 39  1  0
  2 36  1  0
  2  3  1  0
  3  4  2  0
  3  5  1  0
 37  5  1  1
  5  6  1  1
  5  8  1  0
  6  7  1  0
  6 40  1  0
  7 41  1  0
  7 42  1  0
  7 43  1  0
  8  9  1  0
  8 10  1  0
  8 44  1  1
  9 45  1  0
  9 46  1  0
  9 47  1  0
 10 11  1  0
 10 48  1  0
 10 49  1  0
 11 31  1  0
 11 12  1  0
 11 50  1  1
 12 37  1  0
 12 13  1  0
 12 51  1  1
 13 27  1  0
 13 14  1  1
 13 15  1  0
 14 52  1  0
 14 53  1  0
 14 54  1  0
 15 16  1  0
 15 55  1  0
 15 56  1  0
 16 17  1  0
 16 57  1  0
 16 58  1  0
 17 18  1  0
 19 17  1  1
 17 59  1  6
 18 60  1  0
 18 61  1  0
 18 62  1  0
 19 26  1  0
 19 20  1  0
 19 29  1  0
 20 21  1  0
 20 23  1  0
 20 63  1  6
 21 22  1  0
 22 64  1  0
 22 65  1  0
 22 66  1  0
 23 24  1  0
 23 67  1  0
 23 68  1  0
 24 25  1  0
 24 69  1  0
 24 70  1  0
 25 26  1  0
 26 27  1  0
 26 71  1  1
 27 28  2  0
 29 37  1  0
 29 30  1  0
 29 72  1  6
 30 31  1  0
 30 73  1  0
 30 74  1  0
 31 32  1  6
 31 33  1  0
 32 75  1  0
 32 76  1  0
 33 34  1  0
 33 35  1  0
 33 77  1  6
 34 78  1  0
 35 36  1  0
 36 37  1  0
 36 79  1  6
M  END
>  <i_m_ct_stereo_status>  (218) 
1

>  <s_m_source_file>  (218) 
/var/tmp/pbs.5076255.sched01/tmpq3cms3f1/82_sdm1vz9.sdf

>  <i_m_source_file_index>  (218) 
6

>  <i_lp_mmshare_version>  (218) 
48012

>  <i_f3d_flags>  (218) 
0

>  <s_epik_input>  (218) 
W0NIM11bQ0BIXTFbQ0gyXVtDQEhdMltDQF0oW05IMl0pKFtDSDJdW0NASF0zNClbQ0BASF0oW09IXSlPW0NASF01Qyg9W0NIMl0pQyg9TylbQ0BdMShbTkhdW0NIM10pW0NAXTQ1W0NAQEhdMltDQF0oW0NIM10pKFtDSDJdW0NIMl1bQ0BIXTZbQ0gzXSlDKD1PKVtDQEhdKFtDQEBdMzY3KU9bQ0gyXVtDSDJdW0NAQEhdN09bQ0gzXQ==

>  <s_epik_cmdline>  (218) 
J2VwaWtfcHl0aG9uJywgJy1waHQnLCAnMi4wJywgJy1waCcsICc3LjAnLCAnLXRuJywgJzgnLCAnLW1hJywgJzIwMCcsICctaW1hZScsICc8aW5maWxlLm1hZT4nLCAnLW9tYWUnLCAnPG91dGZpbGUubWFlPic=

>  <r_lp_tautomer_probability>  (218) 
0.99995

>  <r_epik_Ionization_Penalty>  (218) 
2.39454

>  <r_epik_Ionization_Penalty_Charging>  (218) 
0

>  <r_epik_Ionization_Penalty_Neutral>  (218) 
2.39454

>  <r_epik_State_Penalty>  (218) 
2.44302

>  <r_epik_Charging_Adjusted_Penalty>  (218) 
2.44302

>  <i_epik_Tot_Q>  (218) 
0

>  <i_epik_Tot_abs_Q>  (218) 
0

>  <s_epik_Chemistry_Notes>  (218) 
This compound contains an acetal/aminal-like group ( X-CH(R)-Y where X, Y are N, S, or O) that may be acid/base labile, releasing an aldehyde.

>  <s_lp_Force_Field>  (218) 
OPLS3e

>  <r_lp_Energy>  (218) 
242.256

>  <b_lp_Chiralities_Consistent>  (218) 
1

>  <s_lp_Variant>  (218) 
62:0-3

>  <s_i_glide_gridfile>  (218) 
pfpi4k_grid

>  <i_i_glide_lignum>  (218) 
6

>  <i_i_glide_rotatable_bonds>  (218) 
3

>  <r_i_docking_score>  (218) 
-2.63169

>  <r_i_glide_ligand_efficiency>  (218) 
-0.0711268

>  <r_i_glide_ligand_efficiency_sa>  (218) 
-0.23701

>  <r_i_glide_ligand_efficiency_ln>  (218) 
-0.570752

>  <r_i_glide_gscore>  (218) 
-2.63169

>  <r_i_glide_lipo>  (218) 
-0.579794

>  <r_i_glide_hbond>  (218) 
-0.293142

>  <r_i_glide_metal>  (218) 
-0

>  <r_i_glide_rewards>  (218) 
-0.608205

>  <r_i_glide_evdw>  (218) 
-1.93467

>  <r_i_glide_ecoul>  (218) 
-6.97887

>  <r_i_glide_erotb>  (218) 
0

>  <r_i_glide_esite>  (218) 
-0.00698519

>  <r_i_glide_emodel>  (218) 
-11.3407

>  <r_i_glide_energy>  (218) 
-8.91354

>  <r_i_glide_einternal>  (218) 
6.65861

>  <r_i_glide_intrahb_reward>  (218) 
-0.5

>  <i_i_glide_confnum>  (218) 
1

>  <i_i_glide_posenum>  (218) 
1

>  <r_i_glide_eff_state_penalty>  (218) 
0

>  <ligand_id>  (218) 
62

>  <original_smiles>  (218) 
C=C1C(=O)C2(NC)C(C)CC3C4C5(C)CCC(C)C6(C(OC)CCOC6C5=O)C5CC3(N)C(O)OC1C452

>  <smiles>  (218) 
[H]OC1([H])OC2([H])C(=C([H])[H])C(=O)C3(N([H])C([H])([H])[H])C([H])(C([H])([H])[H])C([H])([H])C4([H])C5([H])C6(C([H])([H])[H])C(=O)C7([H])OC([H])([H])C([H])([H])C([H])(OC([H])([H])[H])C7(C([H])(C([H])([H])[H])C([H])([H])C6([H])[H])C([H])(C([H])([H])C14N([H])[H])C235

$$$$
63:0:0
     RDKit          3D

 28 30  0  0  1  0  0  0  0  0999 V2000
   -0.1097    5.7539    2.8813 N   0  0  0  0  0  0  0  0  0  0  0  0
   -0.3646    4.9818    3.9336 C   0  0  0  0  0  0  0  0  0  0  0  0
   -0.2635    5.4088    5.0791 O   0  0  0  0  0  0  0  0  0  0  0  0
   -0.8632    3.5489    3.6388 C   0  0  2  0  0  0  0  0  0  0  0  0
   -1.5914    2.8837    4.8225 C   0  0  0  0  0  0  0  0  0  0  0  0
   -1.3727    1.3854    4.6155 C   0  0  0  0  0  0  0  0  0  0  0  0
   -0.1368    1.2970    3.8562 N   0  0  0  0  0  0  0  0  0  0  0  0
    0.5329    0.0885    3.5840 C   0  0  0  0  0  0  0  0  0  0  0  0
    0.0894   -1.0322    4.2075 N   0  0  0  0  0  0  0  0  0  0  0  0
    0.7101   -2.1982    4.0095 C   0  0  0  0  0  0  0  0  0  0  0  0
    1.7551   -2.4688    3.2294 N   0  0  0  0  0  0  0  0  0  0  0  0
    2.1997   -1.3471    2.5959 C   0  0  0  0  0  0  0  0  0  0  0  0
    3.2742   -1.2792    1.7192 O   0  0  0  0  0  0  0  0  0  0  0  0
    3.3026    0.0449    1.3691 C   0  0  0  0  0  0  0  0  0  0  0  0
    2.3939    0.8336    1.9473 N   0  0  0  0  0  0  0  0  0  0  0  0
    1.6587   -0.0434    2.7231 C   0  0  0  0  0  0  0  0  0  0  0  0
    0.2889    2.5843    3.3428 C   0  0  0  0  0  0  0  0  0  0  0  0
    0.1769    6.7220    2.9592 H   0  0  0  0  0  0  0  0  0  0  0  0
   -0.1385    5.3100    1.9416 H   0  0  0  0  0  0  0  0  0  0  0  0
   -1.5301    3.5581    2.7745 H   0  0  0  0  0  0  0  0  0  0  0  0
   -1.1365    3.1488    5.7775 H   0  0  0  0  0  0  0  0  0  0  0  0
   -2.6470    3.1460    4.8667 H   0  0  0  0  0  0  0  0  0  0  0  0
   -1.2906    0.8581    5.5683 H   0  0  0  0  0  0  0  0  0  0  0  0
   -2.1846    0.9411    4.0393 H   0  0  0  0  0  0  0  0  0  0  0  0
    0.2967   -3.0445    4.5317 H   0  0  0  0  0  0  0  0  0  0  0  0
    4.0375    0.4452    0.6828 H   0  0  0  0  0  0  0  0  0  0  0  0
    0.4868    2.5393    2.2715 H   0  0  0  0  0  0  0  0  0  0  0  0
    1.2113    2.8729    3.8505 H   0  0  0  0  0  0  0  0  0  0  0  0
  1  2  1  0
  1 18  1  0
  1 19  1  0
  2  3  2  0
  2  4  1  0
  4 17  1  0
  4  5  1  0
  4 20  1  6
  5  6  1  0
  5 21  1  0
  5 22  1  0
  6  7  1  0
  6 23  1  0
  6 24  1  0
  7  8  1  0
  7 17  1  0
  8 16  1  0
  8  9  2  0
  9 10  1  0
 10 11  2  0
 10 25  1  0
 11 12  1  0
 12 16  2  0
 12 13  1  0
 13 14  1  0
 14 15  2  0
 14 26  1  0
 15 16  1  0
 17 27  1  0
 17 28  1  0
M  END
>  <i_m_ct_stereo_status>  (219) 
1

>  <s_m_source_file>  (219) 
/var/tmp/pbs.5076255.sched01/tmpq3cms3f1/82_sdm1vz9.sdf

>  <i_m_source_file_index>  (219) 
7

>  <i_lp_mmshare_version>  (219) 
48012

>  <i_f3d_flags>  (219) 
0

>  <s_epik_input>  (219) 
W05IMl1DKD1PKVtDQEBIXTFbQ0gyXVtDSDJdTihbQ0gyXTEpYyhuW2NIXW4yKWMoYzIzKW5bY0hdbzM=

>  <s_epik_cmdline>  (219) 
J2VwaWtfcHl0aG9uJywgJy1waHQnLCAnMi4wJywgJy1waCcsICc3LjAnLCAnLXRuJywgJzgnLCAnLW1hJywgJzIwMCcsICctaW1hZScsICc8aW5maWxlLm1hZT4nLCAnLW9tYWUnLCAnPG91dGZpbGUubWFlPic=

>  <r_lp_tautomer_probability>  (219) 
1

>  <r_epik_Ionization_Penalty>  (219) 
2.19554e-05

>  <r_epik_Ionization_Penalty_Charging>  (219) 
0

>  <r_epik_Ionization_Penalty_Neutral>  (219) 
2.19554e-05

>  <r_epik_State_Penalty>  (219) 
-0

>  <r_epik_Charging_Adjusted_Penalty>  (219) 
0

>  <i_epik_Tot_Q>  (219) 
0

>  <i_epik_Tot_abs_Q>  (219) 
0

>  <s_lp_Force_Field>  (219) 
OPLS3e

>  <r_lp_Energy>  (219) 
9.56918

>  <b_lp_Chiralities_Consistent>  (219) 
1

>  <s_lp_Variant>  (219) 
63:0-1

>  <s_i_glide_gridfile>  (219) 
pfpi4k_grid

>  <i_i_glide_lignum>  (219) 
7

>  <i_i_glide_rotatable_bonds>  (219) 
2

>  <r_i_docking_score>  (219) 
-4.31158

>  <r_i_glide_ligand_efficiency>  (219) 
-0.253622

>  <r_i_glide_ligand_efficiency_sa>  (219) 
-0.652134

>  <r_i_glide_ligand_efficiency_ln>  (219) 
-1.12479

>  <r_i_glide_gscore>  (219) 
-4.31158

>  <r_i_glide_lipo>  (219) 
-0.0147067

>  <r_i_glide_hbond>  (219) 
-0.287146

>  <r_i_glide_metal>  (219) 
-0

>  <r_i_glide_rewards>  (219) 
-1.85984

>  <r_i_glide_evdw>  (219) 
-15.3245

>  <r_i_glide_ecoul>  (219) 
-9.84156

>  <r_i_glide_erotb>  (219) 
0.315245

>  <r_i_glide_esite>  (219) 
-0.22267

>  <r_i_glide_emodel>  (219) 
-32.6737

>  <r_i_glide_energy>  (219) 
-25.166

>  <r_i_glide_einternal>  (219) 
1.38861

>  <r_i_glide_intrahb_reward>  (219) 
-0

>  <i_i_glide_confnum>  (219) 
2

>  <i_i_glide_posenum>  (219) 
7

>  <r_i_glide_eff_state_penalty>  (219) 
0

>  <ligand_id>  (219) 
63

>  <original_smiles>  (219) 
NC(=O)C1CCN(c2ncnc3ocnc23)C1

>  <smiles>  (219) 
[H]c1nc(N2C([H])([H])C([H])([H])C([H])(C(=O)N([H])[H])C2([H])[H])c2nc([H])oc2n1

$$$$
63:0:1
     RDKit          3D

 28 30  0  0  1  0  0  0  0  0999 V2000
   -0.0976    5.7514    2.8820 N   0  0  0  0  0  0  0  0  0  0  0  0
   -0.3739    5.0082    3.9517 C   0  0  0  0  0  0  0  0  0  0  0  0
   -0.2829    5.4680    5.0848 O   0  0  0  0  0  0  0  0  0  0  0  0
   -0.8963    3.5974    3.6725 C   0  0  2  0  0  0  0  0  0  0  0  0
   -1.6554    2.9801    4.8630 C   0  0  0  0  0  0  0  0  0  0  0  0
   -1.4608    1.4852    4.6866 C   0  0  0  0  0  0  0  0  0  0  0  0
   -0.2278    1.3398    3.9473 N   0  0  0  0  0  0  0  0  0  0  0  0
    0.4239    0.1036    3.7484 C   0  0  0  0  0  0  0  0  0  0  0  0
    1.4343    0.0510    2.8470 N   0  0  0  0  0  0  0  0  0  0  0  0
    2.0657   -1.1003    2.6180 C   0  0  0  0  0  0  0  0  0  0  0  0
    1.8788   -2.2845    3.1950 N   0  0  0  0  0  0  0  0  0  0  0  0
    0.8775   -2.2299    4.1209 C   0  0  0  0  0  0  0  0  0  0  0  0
    0.4405   -3.2824    4.9143 O   0  0  0  0  0  0  0  0  0  0  0  0
   -0.5497   -2.7114    5.6661 C   0  0  0  0  0  0  0  0  0  0  0  0
   -0.8289   -1.4264    5.4244 N   0  0  0  0  0  0  0  0  0  0  0  0
    0.0967   -1.0909    4.4489 C   0  0  0  0  0  0  0  0  0  0  0  0
    0.2424    2.6007    3.3979 C   0  0  0  0  0  0  0  0  0  0  0  0
    0.1824    6.7218    2.9341 H   0  0  0  0  0  0  0  0  0  0  0  0
   -0.1401    5.2760    1.9505 H   0  0  0  0  0  0  0  0  0  0  0  0
   -1.5683    3.5983    2.8066 H   0  0  0  0  0  0  0  0  0  0  0  0
   -1.2102    3.2518    5.8204 H   0  0  0  0  0  0  0  0  0  0  0  0
   -2.7095    3.2548    4.8936 H   0  0  0  0  0  0  0  0  0  0  0  0
   -1.4045    1.0188    5.6664 H   0  0  0  0  0  0  0  0  0  0  0  0
   -2.2715    1.0338    4.1170 H   0  0  0  0  0  0  0  0  0  0  0  0
    2.8552   -1.0703    1.8824 H   0  0  0  0  0  0  0  0  0  0  0  0
   -1.1215   -3.2771    6.3903 H   0  0  0  0  0  0  0  0  0  0  0  0
    0.4666    2.5279    2.3323 H   0  0  0  0  0  0  0  0  0  0  0  0
    1.1566    2.8892    3.9190 H   0  0  0  0  0  0  0  0  0  0  0  0
  1  2  1  0
  1 18  1  0
  1 19  1  0
  2  3  2  0
  2  4  1  0
  4 17  1  0
  4  5  1  0
  4 20  1  6
  5  6  1  0
  5 21  1  0
  5 22  1  0
  6  7  1  0
  6 23  1  0
  6 24  1  0
  7  8  1  0
  7 17  1  0
  8 16  1  0
  8  9  2  0
  9 10  1  0
 10 11  2  0
 10 25  1  0
 11 12  1  0
 12 16  2  0
 12 13  1  0
 13 14  1  0
 14 15  2  0
 14 26  1  0
 15 16  1  0
 17 27  1  0
 17 28  1  0
M  END
>  <i_m_ct_stereo_status>  (220) 
1

>  <s_m_source_file>  (220) 
/var/tmp/pbs.5076255.sched01/tmpq3cms3f1/82_sdm1vz9.sdf

>  <i_m_source_file_index>  (220) 
7

>  <i_lp_mmshare_version>  (220) 
48012

>  <i_f3d_flags>  (220) 
0

>  <s_epik_input>  (220) 
W05IMl1DKD1PKVtDQEBIXTFbQ0gyXVtDSDJdTihbQ0gyXTEpYyhuW2NIXW4yKWMoYzIzKW5bY0hdbzM=

>  <s_epik_cmdline>  (220) 
J2VwaWtfcHl0aG9uJywgJy1waHQnLCAnMi4wJywgJy1waCcsICc3LjAnLCAnLXRuJywgJzgnLCAnLW1hJywgJzIwMCcsICctaW1hZScsICc8aW5maWxlLm1hZT4nLCAnLW9tYWUnLCAnPG91dGZpbGUubWFlPic=

>  <r_lp_tautomer_probability>  (220) 
1

>  <r_epik_Ionization_Penalty>  (220) 
2.19554e-05

>  <r_epik_Ionization_Penalty_Charging>  (220) 
0

>  <r_epik_Ionization_Penalty_Neutral>  (220) 
2.19554e-05

>  <r_epik_State_Penalty>  (220) 
-0

>  <r_epik_Charging_Adjusted_Penalty>  (220) 
0

>  <i_epik_Tot_Q>  (220) 
0

>  <i_epik_Tot_abs_Q>  (220) 
0

>  <s_lp_Force_Field>  (220) 
OPLS3e

>  <r_lp_Energy>  (220) 
9.56918

>  <b_lp_Chiralities_Consistent>  (220) 
1

>  <s_lp_Variant>  (220) 
63:0-1

>  <s_i_glide_gridfile>  (220) 
pfpi4k_grid

>  <i_i_glide_lignum>  (220) 
7

>  <i_i_glide_rotatable_bonds>  (220) 
2

>  <r_i_docking_score>  (220) 
-4.30182

>  <r_i_glide_ligand_efficiency>  (220) 
-0.253048

>  <r_i_glide_ligand_efficiency_sa>  (220) 
-0.650658

>  <r_i_glide_ligand_efficiency_ln>  (220) 
-1.12225

>  <r_i_glide_gscore>  (220) 
-4.30182

>  <r_i_glide_lipo>  (220) 
-0.024919

>  <r_i_glide_hbond>  (220) 
-0.287757

>  <r_i_glide_metal>  (220) 
-0

>  <r_i_glide_rewards>  (220) 
-1.81891

>  <r_i_glide_evdw>  (220) 
-14.2577

>  <r_i_glide_ecoul>  (220) 
-10.2108

>  <r_i_glide_erotb>  (220) 
0.315245

>  <r_i_glide_esite>  (220) 
-0.240968

>  <r_i_glide_emodel>  (220) 
-31.6036

>  <r_i_glide_energy>  (220) 
-24.4686

>  <r_i_glide_einternal>  (220) 
1.77554

>  <r_i_glide_intrahb_reward>  (220) 
-0

>  <i_i_glide_confnum>  (220) 
6

>  <i_i_glide_posenum>  (220) 
18

>  <r_i_glide_eff_state_penalty>  (220) 
0

>  <ligand_id>  (220) 
63

>  <original_smiles>  (220) 
NC(=O)C1CCN(c2ncnc3ocnc23)C1

>  <smiles>  (220) 
[H]c1nc(N2C([H])([H])C([H])([H])C([H])(C(=O)N([H])[H])C2([H])[H])c2nc([H])oc2n1

$$$$
63:0:2
     RDKit          3D

 28 30  0  0  1  0  0  0  0  0999 V2000
   -3.7879    2.9478    2.2902 N   0  0  0  0  0  0  0  0  0  0  0  0
   -2.7913    3.5140    2.9599 C   0  0  0  0  0  0  0  0  0  0  0  0
   -2.5598    4.7188    2.8830 O   0  0  0  0  0  0  0  0  0  0  0  0
   -1.9803    2.5975    3.8844 C   0  0  2  0  0  0  0  0  0  0  0  0
   -1.6455    3.2411    5.2420 C   0  0  0  0  0  0  0  0  0  0  0  0
   -0.3516    2.5524    5.6857 C   0  0  0  0  0  0  0  0  0  0  0  0
    0.2741    2.1183    4.4486 N   0  0  0  0  0  0  0  0  0  0  0  0
    1.5892    1.6205    4.3714 C   0  0  0  0  0  0  0  0  0  0  0  0
    2.3851    1.7550    5.4601 N   0  0  0  0  0  0  0  0  0  0  0  0
    3.6386    1.2909    5.4263 C   0  0  0  0  0  0  0  0  0  0  0  0
    4.2750    0.6510    4.4422 N   0  0  0  0  0  0  0  0  0  0  0  0
    3.4684    0.5107    3.3562 C   0  0  0  0  0  0  0  0  0  0  0  0
    3.8141   -0.1130    2.1695 O   0  0  0  0  0  0  0  0  0  0  0  0
    2.6754   -0.0089    1.4229 C   0  0  0  0  0  0  0  0  0  0  0  0
    1.6402    0.6120    1.9965 N   0  0  0  0  0  0  0  0  0  0  0  0
    2.1327    0.9590    3.2345 C   0  0  0  0  0  0  0  0  0  0  0  0
   -0.6048    2.2620    3.3017 C   0  0  0  0  0  0  0  0  0  0  0  0
   -4.3696    3.5078    1.6830 H   0  0  0  0  0  0  0  0  0  0  0  0
   -3.9491    1.9492    2.4070 H   0  0  0  0  0  0  0  0  0  0  0  0
   -2.5175    1.6642    4.0695 H   0  0  0  0  0  0  0  0  0  0  0  0
   -1.4466    4.3087    5.1358 H   0  0  0  0  0  0  0  0  0  0  0  0
   -2.4483    3.1218    5.9706 H   0  0  0  0  0  0  0  0  0  0  0  0
    0.2887    3.2260    6.2561 H   0  0  0  0  0  0  0  0  0  0  0  0
   -0.5637    1.6754    6.2969 H   0  0  0  0  0  0  0  0  0  0  0  0
    4.2228    1.4427    6.3243 H   0  0  0  0  0  0  0  0  0  0  0  0
    2.6222   -0.4118    0.4209 H   0  0  0  0  0  0  0  0  0  0  0  0
   -0.6627    1.3492    2.7100 H   0  0  0  0  0  0  0  0  0  0  0  0
   -0.2207    3.0573    2.6603 H   0  0  0  0  0  0  0  0  0  0  0  0
  1  2  1  0
  1 18  1  0
  1 19  1  0
  2  3  2  0
  2  4  1  0
  4 17  1  0
  4  5  1  0
  4 20  1  1
  5  6  1  0
  5 21  1  0
  5 22  1  0
  6  7  1  0
  6 23  1  0
  6 24  1  0
  7  8  1  0
  7 17  1  0
  8 16  1  0
  8  9  2  0
  9 10  1  0
 10 11  2  0
 10 25  1  0
 11 12  1  0
 12 16  2  0
 12 13  1  0
 13 14  1  0
 14 15  2  0
 14 26  1  0
 15 16  1  0
 17 27  1  0
 17 28  1  0
M  END
>  <i_m_ct_stereo_status>  (221) 
1

>  <s_m_source_file>  (221) 
/var/tmp/pbs.5076255.sched01/tmpq3cms3f1/82_sdm1vz9.sdf

>  <i_m_source_file_index>  (221) 
7

>  <i_lp_mmshare_version>  (221) 
48012

>  <i_f3d_flags>  (221) 
0

>  <s_epik_input>  (221) 
W05IMl1DKD1PKVtDQEBIXTFbQ0gyXVtDSDJdTihbQ0gyXTEpYyhuW2NIXW4yKWMoYzIzKW5bY0hdbzM=

>  <s_epik_cmdline>  (221) 
J2VwaWtfcHl0aG9uJywgJy1waHQnLCAnMi4wJywgJy1waCcsICc3LjAnLCAnLXRuJywgJzgnLCAnLW1hJywgJzIwMCcsICctaW1hZScsICc8aW5maWxlLm1hZT4nLCAnLW9tYWUnLCAnPG91dGZpbGUubWFlPic=

>  <r_lp_tautomer_probability>  (221) 
1

>  <r_epik_Ionization_Penalty>  (221) 
2.19554e-05

>  <r_epik_Ionization_Penalty_Charging>  (221) 
0

>  <r_epik_Ionization_Penalty_Neutral>  (221) 
2.19554e-05

>  <r_epik_State_Penalty>  (221) 
-0

>  <r_epik_Charging_Adjusted_Penalty>  (221) 
0

>  <i_epik_Tot_Q>  (221) 
0

>  <i_epik_Tot_abs_Q>  (221) 
0

>  <s_lp_Force_Field>  (221) 
OPLS3e

>  <r_lp_Energy>  (221) 
9.56918

>  <b_lp_Chiralities_Consistent>  (221) 
1

>  <s_lp_Variant>  (221) 
63:0-1

>  <s_i_glide_gridfile>  (221) 
pfpi4k_grid

>  <i_i_glide_lignum>  (221) 
7

>  <i_i_glide_rotatable_bonds>  (221) 
2

>  <r_i_docking_score>  (221) 
-4.07431

>  <r_i_glide_ligand_efficiency>  (221) 
-0.239665

>  <r_i_glide_ligand_efficiency_sa>  (221) 
-0.616246

>  <r_i_glide_ligand_efficiency_ln>  (221) 
-1.0629

>  <r_i_glide_gscore>  (221) 
-4.07431

>  <r_i_glide_lipo>  (221) 
0

>  <r_i_glide_hbond>  (221) 
-0.48

>  <r_i_glide_metal>  (221) 
-0

>  <r_i_glide_rewards>  (221) 
-1.81891

>  <r_i_glide_evdw>  (221) 
-17.4946

>  <r_i_glide_ecoul>  (221) 
-7.59168

>  <r_i_glide_erotb>  (221) 
0.315245

>  <r_i_glide_esite>  (221) 
-0.0771603

>  <r_i_glide_emodel>  (221) 
-32.4399

>  <r_i_glide_energy>  (221) 
-25.0863

>  <r_i_glide_einternal>  (221) 
0.818938

>  <r_i_glide_intrahb_reward>  (221) 
-0

>  <i_i_glide_confnum>  (221) 
1

>  <i_i_glide_posenum>  (221) 
5

>  <r_i_glide_eff_state_penalty>  (221) 
0

>  <ligand_id>  (221) 
63

>  <original_smiles>  (221) 
NC(=O)C1CCN(c2ncnc3ocnc23)C1

>  <smiles>  (221) 
[H]c1nc(N2C([H])([H])C([H])([H])C([H])(C(=O)N([H])[H])C2([H])[H])c2nc([H])oc2n1

$$$$
64:0:0
     RDKit          3D

 91 97  0  0  1  0  0  0  0  0999 V2000
   -0.5491   -3.5218    6.6702 C   0  0  0  0  0  0  0  0  0  0  0  0
   -0.5678   -2.1010    6.7893 O   0  0  0  0  0  0  0  0  0  0  0  0
    0.7178   -1.4814    7.0473 C   0  0  2  0  0  0  0  0  0  0  0  0
    0.3938   -0.2049    7.7893 C   0  0  0  0  0  0  0  0  0  0  0  0
    1.0485    0.9707    7.6462 C   0  0  0  0  0  0  0  0  0  0  0  0
    0.6013    2.2263    8.4572 C   0  0  0  0  0  0  0  0  0  0  0  0
    0.9794    3.6268    7.8518 C   0  0  0  0  0  0  0  0  0  0  0  0
   -0.9112    2.2431    8.7688 C   0  0  0  0  0  0  0  0  0  0  0  0
    1.2072    2.1732    9.7174 O   0  0  0  0  0  0  0  0  0  0  0  0
    2.2581    0.9712    6.6762 C   0  0  2  0  0  0  0  0  0  0  0  0
    1.7483    0.3213    5.2777 C   0  0  2  0  0  0  0  0  0  0  0  0
    2.5093    1.2390    4.1742 C   0  0  1  0  0  0  0  0  0  0  0  0
    2.6041    0.9204    2.7931 O   0  0  0  0  0  0  0  0  0  0  0  0
    1.9252    2.6579    4.0562 C   0  0  0  0  0  0  0  0  0  0  0  0
    0.4180    2.6774    4.3804 C   0  0  0  0  0  0  0  0  0  0  0  0
   -0.3424    1.4436    3.8735 C   0  0  0  0  0  0  0  0  0  0  0  0
   -1.7412    1.5442    4.5233 C   0  0  0  0  0  0  0  0  0  0  0  0
   -0.5396    1.5332    2.3507 C   0  0  0  0  0  0  0  0  0  0  0  0
    0.4041    0.1636    4.4176 C   0  0  1  0  0  0  0  0  0  0  0  0
    0.7222   -0.9985    3.3120 C   0  0  0  0  0  0  0  0  0  0  0  0
    2.0463   -1.8970    3.5245 C   0  0  0  0  0  0  0  0  0  0  0  0
    2.5926   -2.4080    2.5547 O   0  0  0  0  0  0  0  0  0  0  0  0
    2.6021   -2.1468    5.0003 C   0  0  2  0  0  0  0  0  0  0  0  0
    1.6769   -1.2134    5.7844 C   0  0  1  0  0  0  0  0  0  0  0  0
    4.0838   -1.7967    5.5337 C   0  0  2  0  0  0  0  0  0  0  0  0
    5.3303   -2.4755    5.5165 O   0  0  0  0  0  0  0  0  0  0  0  0
    6.1402   -1.9581    6.5669 C   0  0  2  0  0  0  0  0  0  0  0  0
    5.4532   -2.4949    7.6841 C   0  0  0  0  0  0  0  0  0  0  0  0
    4.0642   -2.1035    7.1713 C   0  0  2  0  0  0  0  0  0  0  0  0
    3.3209   -3.4382    7.5284 C   0  0  0  0  0  0  0  0  0  0  0  0
    3.5933   -0.9461    8.0926 C   0  0  0  0  0  0  0  0  0  0  0  0
    3.6740    0.4229    7.4230 C   0  0  2  0  0  0  0  0  0  0  0  0
    3.6175    1.2641    8.5632 O   0  0  0  0  0  0  0  0  0  0  0  0
    5.2753    0.5628    6.9847 C   0  0  2  0  0  0  0  0  0  0  0  0
    6.1238    1.3084    8.0691 C   0  0  0  0  0  0  0  0  0  0  0  0
    5.5625    1.3120    5.7038 C   0  0  0  0  0  0  0  0  0  0  0  0
    5.7698    0.3358    4.5420 C   0  0  0  0  0  0  0  0  0  0  0  0
    4.8320   -0.9031    4.3840 C   0  0  1  0  0  0  0  0  0  0  0  0
    5.3689   -1.7637    3.3465 O   0  0  0  0  0  0  0  0  0  0  0  0
    5.6390   -1.2225    2.0588 C   0  0  0  0  0  0  0  0  0  0  0  0
    6.2496   -0.5498    6.8266 O   0  0  0  0  0  0  0  0  0  0  0  0
   -1.5690   -3.8806    6.5511 H   0  0  0  0  0  0  0  0  0  0  0  0
   -0.1292   -4.0238    7.5456 H   0  0  0  0  0  0  0  0  0  0  0  0
    0.0113   -3.8331    5.7905 H   0  0  0  0  0  0  0  0  0  0  0  0
    1.1267   -2.0993    7.8290 H   0  0  0  0  0  0  0  0  0  0  0  0
   -0.4282   -0.3228    8.4779 H   0  0  0  0  0  0  0  0  0  0  0  0
    0.5563    3.8235    6.8489 H   0  0  0  0  0  0  0  0  0  0  0  0
    2.0809    3.7637    7.8229 H   0  0  0  0  0  0  0  0  0  0  0  0
    0.6000    4.4387    8.5166 H   0  0  0  0  0  0  0  0  0  0  0  0
   -1.5085    2.1954    7.8557 H   0  0  0  0  0  0  0  0  0  0  0  0
   -1.2131    3.1488    9.2991 H   0  0  0  0  0  0  0  0  0  0  0  0
   -1.2260    1.4351    9.4213 H   0  0  0  0  0  0  0  0  0  0  0  0
    0.8734    2.8948   10.2344 H   0  0  0  0  0  0  0  0  0  0  0  0
    2.4518    2.0184    6.5001 H   0  0  0  0  0  0  0  0  0  0  0  0
    3.5124    1.3995    4.4467 H   0  0  0  0  0  0  0  0  0  0  0  0
    3.0812    0.1099    2.6761 H   0  0  0  0  0  0  0  0  0  0  0  0
    2.4023    3.3327    4.7579 H   0  0  0  0  0  0  0  0  0  0  0  0
    2.1286    3.1088    3.0838 H   0  0  0  0  0  0  0  0  0  0  0  0
    0.2862    2.6381    5.4719 H   0  0  0  0  0  0  0  0  0  0  0  0
   -0.0291    3.6169    3.9959 H   0  0  0  0  0  0  0  0  0  0  0  0
   -2.3743    0.7254    4.1965 H   0  0  0  0  0  0  0  0  0  0  0  0
   -2.2467    2.4797    4.2782 H   0  0  0  0  0  0  0  0  0  0  0  0
   -1.6952    1.4923    5.6133 H   0  0  0  0  0  0  0  0  0  0  0  0
   -1.1114    0.6932    1.9722 H   0  0  0  0  0  0  0  0  0  0  0  0
    0.4005    1.5875    1.8166 H   0  0  0  0  0  0  0  0  0  0  0  0
   -1.0777    2.4460    2.0929 H   0  0  0  0  0  0  0  0  0  0  0  0
   -0.3731   -0.2493    5.0580 H   0  0  0  0  0  0  0  0  0  0  0  0
   -0.1218   -1.6866    3.2811 H   0  0  0  0  0  0  0  0  0  0  0  0
    0.7819   -0.5978    2.3022 H   0  0  0  0  0  0  0  0  0  0  0  0
    2.3865   -3.1972    5.1868 H   0  0  0  0  0  0  0  0  0  0  0  0
    0.8588   -1.7946    5.3954 H   0  0  0  0  0  0  0  0  0  0  0  0
    7.1404   -2.3756    6.4796 H   0  0  0  0  0  0  0  0  0  0  0  0
    5.6629   -3.5607    7.6991 H   0  0  0  0  0  0  0  0  0  0  0  0
    5.8339   -2.0754    8.6149 H   0  0  0  0  0  0  0  0  0  0  0  0
    3.3050   -3.6086    8.6054 H   0  0  0  0  0  0  0  0  0  0  0  0
    3.8151   -4.2971    7.0746 H   0  0  0  0  0  0  0  0  0  0  0  0
    2.3080   -3.5510    7.1805 H   0  0  0  0  0  0  0  0  0  0  0  0
    2.6626   -1.1180    8.6037 H   0  0  0  0  0  0  0  0  0  0  0  0
    4.2276   -0.9143    8.9821 H   0  0  0  0  0  0  0  0  0  0  0  0
    2.7701    1.1958    8.9881 H   0  0  0  0  0  0  0  0  0  0  0  0
    5.8044    2.3426    8.2180 H   0  0  0  0  0  0  0  0  0  0  0  0
    7.1764    1.3580    7.7977 H   0  0  0  0  0  0  0  0  0  0  0  0
    6.0903    0.7984    9.0312 H   0  0  0  0  0  0  0  0  0  0  0  0
    4.8914    2.1530    5.5690 H   0  0  0  0  0  0  0  0  0  0  0  0
    6.5209    1.8298    5.7696 H   0  0  0  0  0  0  0  0  0  0  0  0
    5.7280    0.9214    3.6342 H   0  0  0  0  0  0  0  0  0  0  0  0
    6.8069    0.0074    4.5740 H   0  0  0  0  0  0  0  0  0  0  0  0
    4.0636   -0.5021    3.8053 H   0  0  0  0  0  0  0  0  0  0  0  0
    5.8653   -2.0338    1.3689 H   0  0  0  0  0  0  0  0  0  0  0  0
    6.5168   -0.5812    2.0713 H   0  0  0  0  0  0  0  0  0  0  0  0
    4.7908   -0.6718    1.6505 H   0  0  0  0  0  0  0  0  0  0  0  0
  1  2  1  0
  1 42  1  0
  1 43  1  0
  1 44  1  0
  2  3  1  0
  3 24  1  0
  3  4  1  0
  3 45  1  1
  4  5  2  0
  4 46  1  0
  5  6  1  0
  5 10  1  0
  6  7  1  0
  6  8  1  0
  6  9  1  0
  7 47  1  0
  7 48  1  0
  7 49  1  0
  8 50  1  0
  8 51  1  0
  8 52  1  0
  9 53  1  0
 10 32  1  0
 10 11  1  0
 10 54  1  6
 11 19  1  0
 11 24  1  0
 11 12  1  6
 12 13  1  0
 12 14  1  0
 12 55  1  1
 13 56  1  0
 14 15  1  0
 14 57  1  0
 14 58  1  0
 15 16  1  0
 15 59  1  0
 15 60  1  0
 16 17  1  0
 16 18  1  0
 16 19  1  0
 17 61  1  0
 17 62  1  0
 17 63  1  0
 18 64  1  0
 18 65  1  0
 18 66  1  0
 19 20  1  0
 19 67  1  1
 20 21  1  0
 20 68  1  0
 20 69  1  0
 21 22  2  0
 21 23  1  0
 23 24  1  0
 23 25  1  0
 23 70  1  1
 24 71  1  6
 25 29  1  0
 25 38  1  0
 25 26  1  6
 26 27  1  0
 27 41  1  0
 27 28  1  0
 27 72  1  6
 28 29  1  0
 28 73  1  0
 28 74  1  0
 29 30  1  6
 29 31  1  0
 30 75  1  0
 30 76  1  0
 30 77  1  0
 31 32  1  0
 31 78  1  0
 31 79  1  0
 32 33  1  1
 32 34  1  0
 33 80  1  0
 34 35  1  1
 34 36  1  0
 34 41  1  0
 35 81  1  0
 35 82  1  0
 35 83  1  0
 36 37  1  0
 36 84  1  0
 36 85  1  0
 37 38  1  0
 37 86  1  0
 37 87  1  0
 38 39  1  0
 38 88  1  6
 39 40  1  0
 40 89  1  0
 40 90  1  0
 40 91  1  0
M  END
>  <i_m_ct_stereo_status>  (222) 
1

>  <s_m_source_file>  (222) 
/var/tmp/pbs.5076255.sched01/tmpq3cms3f1/82_sdm1vz9.sdf

>  <i_m_source_file_index>  (222) 
8

>  <i_lp_mmshare_version>  (222) 
48012

>  <i_f3d_flags>  (222) 
0

>  <s_epik_input>  (222) 
W09IXVtDQEhdMVtDSDJdW0NIMl1DKFtDSDNdKShbQ0gzXSlbQ0BIXTJbQ0gyXUMoPU8pW0NASF0oW0NASF0zW0NASF0oT1tDSDNdKVtDSF09QzRDKFtDSDNdKShbQ0gzXSlbT0hdKVtDQF01KFtDQF0oW0NIM10pKFtDSDJdNilbQ0gyXVtDQEBIXShPNSlPNylbQ0BIXShPW0NIM10pW0NIMl1bQ0gyXVtDQEBdNyhbQ0gzXSlbQ0BdNihbQ0BIXTRbQ0BdMTIzKVtPSF0=

>  <s_epik_cmdline>  (222) 
J2VwaWtfcHl0aG9uJywgJy1waHQnLCAnMi4wJywgJy1waCcsICc3LjAnLCAnLXRuJywgJzgnLCAnLW1hJywgJzIwMCcsICctaW1hZScsICc8aW5maWxlLm1hZT4nLCAnLW9tYWUnLCAnPG91dGZpbGUubWFlPic=

>  <r_lp_tautomer_probability>  (222) 
1

>  <r_epik_Ionization_Penalty>  (222) 
4.1313e-07

>  <r_epik_Ionization_Penalty_Charging>  (222) 
0

>  <r_epik_Ionization_Penalty_Neutral>  (222) 
4.1313e-07

>  <r_epik_State_Penalty>  (222) 
-0

>  <r_epik_Charging_Adjusted_Penalty>  (222) 
0

>  <i_epik_Tot_Q>  (222) 
0

>  <i_epik_Tot_abs_Q>  (222) 
0

>  <s_epik_Chemistry_Notes>  (222) 
This compound contains an acetal/aminal-like group ( X-CH(R)-Y where X, Y are N, S, or O) that may be acid/base labile, releasing an aldehyde.

>  <s_lp_Force_Field>  (222) 
OPLS3e

>  <r_lp_Energy>  (222) 
383.7

>  <b_lp_Chiralities_Consistent>  (222) 
1

>  <s_lp_Variant>  (222) 
64:0-1

>  <s_i_glide_gridfile>  (222) 
pfpi4k_grid

>  <i_i_glide_lignum>  (222) 
8

>  <i_i_glide_rotatable_bonds>  (222) 
6

>  <r_i_docking_score>  (222) 
-1.90542

>  <r_i_glide_ligand_efficiency>  (222) 
-0.0464736

>  <r_i_glide_ligand_efficiency_sa>  (222) 
-0.160251

>  <r_i_glide_ligand_efficiency_ln>  (222) 
-0.404241

>  <r_i_glide_gscore>  (222) 
-1.90542

>  <r_i_glide_lipo>  (222) 
-0.334982

>  <r_i_glide_hbond>  (222) 
0

>  <r_i_glide_metal>  (222) 
-0

>  <r_i_glide_rewards>  (222) 
-0.548099

>  <r_i_glide_evdw>  (222) 
-20.5945

>  <r_i_glide_ecoul>  (222) 
-0.371916

>  <r_i_glide_erotb>  (222) 
0.0631758

>  <r_i_glide_esite>  (222) 
0

>  <r_i_glide_emodel>  (222) 
-26.8169

>  <r_i_glide_energy>  (222) 
-20.9665

>  <r_i_glide_einternal>  (222) 
2.29478

>  <r_i_glide_intrahb_reward>  (222) 
-0.5

>  <i_i_glide_confnum>  (222) 
3

>  <i_i_glide_posenum>  (222) 
17

>  <r_i_glide_eff_state_penalty>  (222) 
0

>  <ligand_id>  (222) 
64

>  <original_smiles>  (222) 
COC1C=C(C(C)(C)O)C2C34C(O)CCC(C)(C)C3CC(=O)C(C14)C13OC4CC1(C)CC2(O)C(C)(CCC3OC)O4

>  <smiles>  (222) 
[H]OC1([H])C([H])([H])C([H])([H])C(C([H])([H])[H])(C([H])([H])[H])C2([H])C([H])([H])C(=O)C3([H])C4([H])C([H])(OC([H])([H])[H])C([H])=C(C(O[H])(C([H])([H])[H])C([H])([H])[H])C([H])(C5(O[H])C([H])([H])C6(C([H])([H])[H])C([H])([H])C7([H])OC5(C([H])([H])[H])C([H])([H])C([H])([H])C([H])(OC([H])([H])[H])C36O7)C142

$$$$
64:0:1
     RDKit          3D

 91 97  0  0  1  0  0  0  0  0999 V2000
   -2.1842   -1.0065    5.0263 C   0  0  0  0  0  0  0  0  0  0  0  0
   -1.6069   -0.0562    5.9189 O   0  0  0  0  0  0  0  0  0  0  0  0
   -0.2119   -0.2614    6.2489 C   0  0  2  0  0  0  0  0  0  0  0  0
    0.0251    0.5139    7.5367 C   0  0  0  0  0  0  0  0  0  0  0  0
    1.1611    1.1498    7.8639 C   0  0  0  0  0  0  0  0  0  0  0  0
    1.2783    1.9673    9.2074 C   0  0  0  0  0  0  0  0  0  0  0  0
    1.8105    1.1425   10.4096 C   0  0  0  0  0  0  0  0  0  0  0  0
    2.0274    3.3321    9.1523 C   0  0  0  0  0  0  0  0  0  0  0  0
   -0.0158    2.3588    9.6068 O   0  0  0  0  0  0  0  0  0  0  0  0
    2.3191    1.0705    6.8103 C   0  0  2  0  0  0  0  0  0  0  0  0
    1.6982    1.4800    5.3651 C   0  0  2  0  0  0  0  0  0  0  0  0
    2.8996    2.3572    4.7005 C   0  0  1  0  0  0  0  0  0  0  0  0
    2.8817    2.6968    3.3285 O   0  0  0  0  0  0  0  0  0  0  0  0
    3.0593    3.7621    5.3159 C   0  0  0  0  0  0  0  0  0  0  0  0
    1.7142    4.2851    5.8343 C   0  0  0  0  0  0  0  0  0  0  0  0
    0.5181    3.9285    4.9352 C   0  0  0  0  0  0  0  0  0  0  0  0
   -0.7506    4.3215    5.7204 C   0  0  0  0  0  0  0  0  0  0  0  0
    0.5270    4.7869    3.6479 C   0  0  0  0  0  0  0  0  0  0  0  0
    0.5226    2.3634    4.7162 C   0  0  1  0  0  0  0  0  0  0  0  0
    0.3740    1.8393    3.1661 C   0  0  0  0  0  0  0  0  0  0  0  0
    1.1082    0.4594    2.7784 C   0  0  0  0  0  0  0  0  0  0  0  0
    1.4552    0.2586    1.6230 O   0  0  0  0  0  0  0  0  0  0  0  0
    1.3529   -0.6594    3.8843 C   0  0  2  0  0  0  0  0  0  0  0  0
    0.8928    0.1061    5.1303 C   0  0  1  0  0  0  0  0  0  0  0  0
    2.7733   -1.3102    4.2913 C   0  0  2  0  0  0  0  0  0  0  0  0
    3.5634   -2.3836    3.8021 O   0  0  0  0  0  0  0  0  0  0  0  0
    4.4218   -2.8388    4.8448 C   0  0  2  0  0  0  0  0  0  0  0  0
    3.4584   -3.4620    5.6810 C   0  0  0  0  0  0  0  0  0  0  0  0
    2.4533   -2.3070    5.5885 C   0  0  2  0  0  0  0  0  0  0  0  0
    1.1464   -3.1586    5.4012 C   0  0  0  0  0  0  0  0  0  0  0  0
    2.4716   -1.6404    6.9818 C   0  0  0  0  0  0  0  0  0  0  0  0
    3.2535   -0.3268    6.9979 C   0  0  2  0  0  0  0  0  0  0  0  0
    3.4744   -0.1595    8.3686 O   0  0  0  0  0  0  0  0  0  0  0  0
    4.7837   -0.7261    6.4681 C   0  0  2  0  0  0  0  0  0  0  0  0
    5.7596   -1.0321    7.6557 C   0  0  0  0  0  0  0  0  0  0  0  0
    5.4981    0.3209    5.6463 C   0  0  0  0  0  0  0  0  0  0  0  0
    5.3425    0.0264    4.1464 C   0  0  0  0  0  0  0  0  0  0  0  0
    3.9548   -0.4165    3.5855 C   0  0  1  0  0  0  0  0  0  0  0  0
    4.1712   -0.8424    2.2163 O   0  0  0  0  0  0  0  0  0  0  0  0
    4.5102    0.1251    1.2298 C   0  0  0  0  0  0  0  0  0  0  0  0
    5.1485   -1.9332    5.6894 O   0  0  0  0  0  0  0  0  0  0  0  0
   -3.2351   -0.7642    4.9093 H   0  0  0  0  0  0  0  0  0  0  0  0
   -2.1207   -2.0337    5.3937 H   0  0  0  0  0  0  0  0  0  0  0  0
   -1.7407   -0.9615    4.0338 H   0  0  0  0  0  0  0  0  0  0  0  0
   -0.2138   -1.2867    6.5716 H   0  0  0  0  0  0  0  0  0  0  0  0
   -0.8362    0.5277    8.1944 H   0  0  0  0  0  0  0  0  0  0  0  0
    2.8458    0.8115   10.2787 H   0  0  0  0  0  0  0  0  0  0  0  0
    1.1484    0.2893   10.6070 H   0  0  0  0  0  0  0  0  0  0  0  0
    1.7873    1.7770   11.3151 H   0  0  0  0  0  0  0  0  0  0  0  0
    3.0422    3.2200    8.7623 H   0  0  0  0  0  0  0  0  0  0  0  0
    2.1805    3.7005   10.1861 H   0  0  0  0  0  0  0  0  0  0  0  0
    1.4957    4.0887    8.6017 H   0  0  0  0  0  0  0  0  0  0  0  0
    0.0032    2.6265   10.5133 H   0  0  0  0  0  0  0  0  0  0  0  0
    2.9925    1.8605    7.0974 H   0  0  0  0  0  0  0  0  0  0  0  0
    3.8324    1.8904    4.8634 H   0  0  0  0  0  0  0  0  0  0  0  0
    3.8086    2.8568    3.0489 H   0  0  0  0  0  0  0  0  0  0  0  0
    3.7182    3.7249    6.1751 H   0  0  0  0  0  0  0  0  0  0  0  0
    3.5569    4.4634    4.6282 H   0  0  0  0  0  0  0  0  0  0  0  0
    1.5071    3.7909    6.7438 H   0  0  0  0  0  0  0  0  0  0  0  0
    1.7737    5.3678    5.9845 H   0  0  0  0  0  0  0  0  0  0  0  0
   -1.6564    4.1403    5.1402 H   0  0  0  0  0  0  0  0  0  0  0  0
   -0.7333    5.3716    6.0017 H   0  0  0  0  0  0  0  0  0  0  0  0
   -0.8372    3.7521    6.6453 H   0  0  0  0  0  0  0  0  0  0  0  0
   -0.3297    4.5648    3.0045 H   0  0  0  0  0  0  0  0  0  0  0  0
    1.4326    4.6490    3.0619 H   0  0  0  0  0  0  0  0  0  0  0  0
    0.4917    5.8518    3.8995 H   0  0  0  0  0  0  0  0  0  0  0  0
   -0.4222    2.0962    5.1901 H   0  0  0  0  0  0  0  0  0  0  0  0
   -0.6784    1.7121    2.9255 H   0  0  0  0  0  0  0  0  0  0  0  0
    0.7259    2.5818    2.4493 H   0  0  0  0  0  0  0  0  0  0  0  0
    0.6697   -1.4514    3.5890 H   0  0  0  0  0  0  0  0  0  0  0  0
   -0.0582    0.2127    4.6466 H   0  0  0  0  0  0  0  0  0  0  0  0
    5.1287   -3.5586    4.4426 H   0  0  0  0  0  0  0  0  0  0  0  0
    3.1535   -4.3818    5.1865 H   0  0  0  0  0  0  0  0  0  0  0  0
    3.8869   -3.7374    6.6442 H   0  0  0  0  0  0  0  0  0  0  0  0
    0.9468   -3.7773    6.2807 H   0  0  0  0  0  0  0  0  0  0  0  0
    1.2375   -3.8286    4.5420 H   0  0  0  0  0  0  0  0  0  0  0  0
    0.2349   -2.6215    5.1810 H   0  0  0  0  0  0  0  0  0  0  0  0
    1.5183   -1.5854    7.4776 H   0  0  0  0  0  0  0  0  0  0  0  0
    2.9417   -2.3203    7.6916 H   0  0  0  0  0  0  0  0  0  0  0  0
    2.6058   -0.1050    8.7841 H   0  0  0  0  0  0  0  0  0  0  0  0
    5.9235   -0.1695    8.3020 H   0  0  0  0  0  0  0  0  0  0  0  0
    6.7424   -1.3367    7.3103 H   0  0  0  0  0  0  0  0  0  0  0  0
    5.3965   -1.8469    8.2765 H   0  0  0  0  0  0  0  0  0  0  0  0
    5.2891    1.3223    6.0108 H   0  0  0  0  0  0  0  0  0  0  0  0
    6.5732    0.2686    5.8196 H   0  0  0  0  0  0  0  0  0  0  0  0
    5.6697    0.9163    3.6206 H   0  0  0  0  0  0  0  0  0  0  0  0
    6.0814   -0.7208    3.8552 H   0  0  0  0  0  0  0  0  0  0  0  0
    3.5063    0.5038    3.3876 H   0  0  0  0  0  0  0  0  0  0  0  0
    4.4250   -0.3248    0.2426 H   0  0  0  0  0  0  0  0  0  0  0  0
    5.5341    0.4782    1.3391 H   0  0  0  0  0  0  0  0  0  0  0  0
    3.8397    0.9815    1.2379 H   0  0  0  0  0  0  0  0  0  0  0  0
  1  2  1  0
  1 42  1  0
  1 43  1  0
  1 44  1  0
  2  3  1  0
  3 24  1  0
  3  4  1  0
  3 45  1  1
  4  5  2  0
  4 46  1  0
  5  6  1  0
  5 10  1  0
  6  7  1  0
  6  8  1  0
  6  9  1  0
  7 47  1  0
  7 48  1  0
  7 49  1  0
  8 50  1  0
  8 51  1  0
  8 52  1  0
  9 53  1  0
 10 32  1  0
 10 11  1  0
 10 54  1  1
 11 19  1  0
 11 24  1  0
 11 12  1  6
 12 13  1  0
 12 14  1  0
 12 55  1  6
 13 56  1  0
 14 15  1  0
 14 57  1  0
 14 58  1  0
 15 16  1  0
 15 59  1  0
 15 60  1  0
 16 17  1  0
 16 18  1  0
 16 19  1  0
 17 61  1  0
 17 62  1  0
 17 63  1  0
 18 64  1  0
 18 65  1  0
 18 66  1  0
 19 20  1  0
 19 67  1  1
 20 21  1  0
 20 68  1  0
 20 69  1  0
 21 22  2  0
 21 23  1  0
 23 24  1  0
 23 25  1  0
 23 70  1  6
 24 71  1  6
 25 29  1  0
 25 38  1  0
 25 26  1  6
 26 27  1  0
 27 41  1  0
 27 28  1  0
 27 72  1  6
 28 29  1  0
 28 73  1  0
 28 74  1  0
 29 30  1  6
 29 31  1  0
 30 75  1  0
 30 76  1  0
 30 77  1  0
 31 32  1  0
 31 78  1  0
 31 79  1  0
 32 33  1  1
 32 34  1  0
 33 80  1  0
 34 35  1  1
 34 36  1  0
 34 41  1  0
 35 81  1  0
 35 82  1  0
 35 83  1  0
 36 37  1  0
 36 84  1  0
 36 85  1  0
 37 38  1  0
 37 86  1  0
 37 87  1  0
 38 39  1  0
 38 88  1  6
 39 40  1  0
 40 89  1  0
 40 90  1  0
 40 91  1  0
M  END
>  <i_m_ct_stereo_status>  (223) 
1

>  <s_m_source_file>  (223) 
/var/tmp/pbs.5076255.sched01/tmpq3cms3f1/82_sdm1vz9.sdf

>  <i_m_source_file_index>  (223) 
8

>  <i_lp_mmshare_version>  (223) 
48012

>  <i_f3d_flags>  (223) 
0

>  <s_epik_input>  (223) 
W09IXVtDQEhdMVtDSDJdW0NIMl1DKFtDSDNdKShbQ0gzXSlbQ0BIXTJbQ0gyXUMoPU8pW0NASF0oW0NASF0zW0NASF0oT1tDSDNdKVtDSF09QzRDKFtDSDNdKShbQ0gzXSlbT0hdKVtDQF01KFtDQF0oW0NIM10pKFtDSDJdNilbQ0gyXVtDQEBIXShPNSlPNylbQ0BIXShPW0NIM10pW0NIMl1bQ0gyXVtDQEBdNyhbQ0gzXSlbQ0BdNihbQ0BIXTRbQ0BdMTIzKVtPSF0=

>  <s_epik_cmdline>  (223) 
J2VwaWtfcHl0aG9uJywgJy1waHQnLCAnMi4wJywgJy1waCcsICc3LjAnLCAnLXRuJywgJzgnLCAnLW1hJywgJzIwMCcsICctaW1hZScsICc8aW5maWxlLm1hZT4nLCAnLW9tYWUnLCAnPG91dGZpbGUubWFlPic=

>  <r_lp_tautomer_probability>  (223) 
1

>  <r_epik_Ionization_Penalty>  (223) 
4.1313e-07

>  <r_epik_Ionization_Penalty_Charging>  (223) 
0

>  <r_epik_Ionization_Penalty_Neutral>  (223) 
4.1313e-07

>  <r_epik_State_Penalty>  (223) 
-0

>  <r_epik_Charging_Adjusted_Penalty>  (223) 
0

>  <i_epik_Tot_Q>  (223) 
0

>  <i_epik_Tot_abs_Q>  (223) 
0

>  <s_epik_Chemistry_Notes>  (223) 
This compound contains an acetal/aminal-like group ( X-CH(R)-Y where X, Y are N, S, or O) that may be acid/base labile, releasing an aldehyde.

>  <s_lp_Force_Field>  (223) 
OPLS3e

>  <r_lp_Energy>  (223) 
383.7

>  <b_lp_Chiralities_Consistent>  (223) 
1

>  <s_lp_Variant>  (223) 
64:0-1

>  <s_i_glide_gridfile>  (223) 
pfpi4k_grid

>  <i_i_glide_lignum>  (223) 
8

>  <i_i_glide_rotatable_bonds>  (223) 
6

>  <r_i_docking_score>  (223) 
-1.75205

>  <r_i_glide_ligand_efficiency>  (223) 
-0.0427329

>  <r_i_glide_ligand_efficiency_sa>  (223) 
-0.147352

>  <r_i_glide_ligand_efficiency_ln>  (223) 
-0.371703

>  <r_i_glide_gscore>  (223) 
-1.75205

>  <r_i_glide_lipo>  (223) 
-0.231382

>  <r_i_glide_hbond>  (223) 
-0.0866958

>  <r_i_glide_metal>  (223) 
-0

>  <r_i_glide_rewards>  (223) 
-0.0141159

>  <r_i_glide_evdw>  (223) 
-21.6645

>  <r_i_glide_ecoul>  (223) 
-2.48273

>  <r_i_glide_erotb>  (223) 
0.0631758

>  <r_i_glide_esite>  (223) 
-0.0273992

>  <r_i_glide_emodel>  (223) 
-23.8868

>  <r_i_glide_energy>  (223) 
-24.1472

>  <r_i_glide_einternal>  (223) 
3.04886

>  <r_i_glide_intrahb_reward>  (223) 
-0

>  <i_i_glide_confnum>  (223) 
2

>  <i_i_glide_posenum>  (223) 
3

>  <r_i_glide_eff_state_penalty>  (223) 
0

>  <ligand_id>  (223) 
64

>  <original_smiles>  (223) 
COC1C=C(C(C)(C)O)C2C34C(O)CCC(C)(C)C3CC(=O)C(C14)C13OC4CC1(C)CC2(O)C(C)(CCC3OC)O4

>  <smiles>  (223) 
[H]OC1([H])C([H])([H])C([H])([H])C(C([H])([H])[H])(C([H])([H])[H])C2([H])C([H])([H])C(=O)C3([H])C4([H])C([H])(OC([H])([H])[H])C([H])=C(C(O[H])(C([H])([H])[H])C([H])([H])[H])C([H])(C5(O[H])C([H])([H])C6(C([H])([H])[H])C([H])([H])C7([H])OC5(C([H])([H])[H])C([H])([H])C([H])([H])C([H])(OC([H])([H])[H])C36O7)C142

$$$$
64:0:2
     RDKit          3D

 91 97  0  0  1  0  0  0  0  0999 V2000
   -1.0780    6.3898    8.6631 C   0  0  0  0  0  0  0  0  0  0  0  0
   -0.5339    6.1511    7.3674 O   0  0  0  0  0  0  0  0  0  0  0  0
    0.6848    5.3643    7.3496 C   0  0  2  0  0  0  0  0  0  0  0  0
    1.4649    5.8370    6.1433 C   0  0  0  0  0  0  0  0  0  0  0  0
    2.2398    5.0595    5.3565 C   0  0  0  0  0  0  0  0  0  0  0  0
    2.9598    5.6621    4.0936 C   0  0  0  0  0  0  0  0  0  0  0  0
    4.3830    6.2142    4.3516 C   0  0  0  0  0  0  0  0  0  0  0  0
    3.0205    4.8122    2.8075 C   0  0  0  0  0  0  0  0  0  0  0  0
    2.2920    6.8318    3.6934 O   0  0  0  0  0  0  0  0  0  0  0  0
    2.3020    3.5466    5.7348 C   0  0  2  0  0  0  0  0  0  0  0  0
    0.7823    3.0070    5.9495 C   0  0  2  0  0  0  0  0  0  0  0  0
    0.8453    1.5056    5.3118 C   0  0  1  0  0  0  0  0  0  0  0  0
   -0.1488    0.5093    5.4999 O   0  0  0  0  0  0  0  0  0  0  0  0
    0.9170    1.4875    3.7792 C   0  0  0  0  0  0  0  0  0  0  0  0
    0.1774    2.6830    3.1891 C   0  0  0  0  0  0  0  0  0  0  0  0
   -1.0777    3.1307    3.9380 C   0  0  0  0  0  0  0  0  0  0  0  0
   -1.4973    4.4997    3.3435 C   0  0  0  0  0  0  0  0  0  0  0  0
   -2.2169    2.1527    3.6013 C   0  0  0  0  0  0  0  0  0  0  0  0
   -0.7012    3.3130    5.4591 C   0  0  1  0  0  0  0  0  0  0  0  0
   -1.6848    2.5447    6.5223 C   0  0  0  0  0  0  0  0  0  0  0  0
   -1.0093    2.0249    7.8846 C   0  0  0  0  0  0  0  0  0  0  0  0
   -1.4540    1.0179    8.4477 O   0  0  0  0  0  0  0  0  0  0  0  0
    0.2360    2.7667    8.5046 C   0  0  2  0  0  0  0  0  0  0  0  0
    0.5253    3.7538    7.3630 C   0  0  1  0  0  0  0  0  0  0  0  0
    1.6639    2.0991    8.8469 C   0  0  2  0  0  0  0  0  0  0  0  0
    2.1862    1.4168    9.9712 O   0  0  0  0  0  0  0  0  0  0  0  0
    3.6103    1.5107    9.9510 C   0  0  2  0  0  0  0  0  0  0  0  0
    3.7450    2.8910   10.2771 C   0  0  0  0  0  0  0  0  0  0  0  0
    2.6562    3.3502    9.3048 C   0  0  2  0  0  0  0  0  0  0  0  0
    1.9419    4.3831   10.2475 C   0  0  0  0  0  0  0  0  0  0  0  0
    3.4025    4.0750    8.1788 C   0  0  0  0  0  0  0  0  0  0  0  0
    3.4853    3.2358    6.9136 C   0  0  2  0  0  0  0  0  0  0  0  0
    4.5110    3.9585    6.2631 O   0  0  0  0  0  0  0  0  0  0  0  0
    4.2837    1.8383    7.3677 C   0  0  2  0  0  0  0  0  0  0  0  0
    5.8319    1.9052    7.1485 C   0  0  0  0  0  0  0  0  0  0  0  0
    3.8620    0.5739    6.6558 C   0  0  0  0  0  0  0  0  0  0  0  0
    2.8323   -0.1952    7.5006 C   0  0  0  0  0  0  0  0  0  0  0  0
    1.6776    0.5851    8.2137 C   0  0  1  0  0  0  0  0  0  0  0  0
    0.9986   -0.3410    9.0998 O   0  0  0  0  0  0  0  0  0  0  0  0
    0.4191   -1.5163    8.5466 C   0  0  0  0  0  0  0  0  0  0  0  0
    4.3802    1.3176    8.7523 O   0  0  0  0  0  0  0  0  0  0  0  0
   -1.9451    7.0401    8.5658 H   0  0  0  0  0  0  0  0  0  0  0  0
   -0.3696    6.8907    9.3250 H   0  0  0  0  0  0  0  0  0  0  0  0
   -1.4071    5.4673    9.1431 H   0  0  0  0  0  0  0  0  0  0  0  0
    1.2513    5.7746    8.1731 H   0  0  0  0  0  0  0  0  0  0  0  0
    1.3602    6.8936    5.9593 H   0  0  0  0  0  0  0  0  0  0  0  0
    5.1351    5.4672    4.6148 H   0  0  0  0  0  0  0  0  0  0  0  0
    4.3733    6.9810    5.1259 H   0  0  0  0  0  0  0  0  0  0  0  0
    4.7720    6.6880    3.4440 H   0  0  0  0  0  0  0  0  0  0  0  0
    3.3891    3.7963    2.9638 H   0  0  0  0  0  0  0  0  0  0  0  0
    3.7211    5.2578    2.1088 H   0  0  0  0  0  0  0  0  0  0  0  0
    2.0708    4.7656    2.2724 H   0  0  0  0  0  0  0  0  0  0  0  0
    1.5013    6.6243    3.2127 H   0  0  0  0  0  0  0  0  0  0  0  0
    2.6900    3.0613    4.8526 H   0  0  0  0  0  0  0  0  0  0  0  0
    1.7296    1.0239    5.6087 H   0  0  0  0  0  0  0  0  0  0  0  0
   -0.9069    0.7771    4.9912 H   0  0  0  0  0  0  0  0  0  0  0  0
    1.9421    1.5692    3.4355 H   0  0  0  0  0  0  0  0  0  0  0  0
    0.5646    0.5541    3.3383 H   0  0  0  0  0  0  0  0  0  0  0  0
    0.8387    3.5430    3.2987 H   0  0  0  0  0  0  0  0  0  0  0  0
   -0.0078    2.5054    2.1199 H   0  0  0  0  0  0  0  0  0  0  0  0
   -2.4318    4.8397    3.7851 H   0  0  0  0  0  0  0  0  0  0  0  0
   -1.6614    4.4515    2.2660 H   0  0  0  0  0  0  0  0  0  0  0  0
   -0.7317    5.2642    3.5125 H   0  0  0  0  0  0  0  0  0  0  0  0
   -3.1482    2.4425    4.0781 H   0  0  0  0  0  0  0  0  0  0  0  0
   -1.9836    1.1248    3.8634 H   0  0  0  0  0  0  0  0  0  0  0  0
   -2.3979    2.1549    2.5237 H   0  0  0  0  0  0  0  0  0  0  0  0
   -0.9173    4.3741    5.5787 H   0  0  0  0  0  0  0  0  0  0  0  0
   -2.4999    3.2217    6.7932 H   0  0  0  0  0  0  0  0  0  0  0  0
   -2.1848    1.6892    6.0698 H   0  0  0  0  0  0  0  0  0  0  0  0
   -0.1542    3.2646    9.3877 H   0  0  0  0  0  0  0  0  0  0  0  0
   -0.4651    4.1374    7.5263 H   0  0  0  0  0  0  0  0  0  0  0  0
    4.0299    0.8691   10.7317 H   0  0  0  0  0  0  0  0  0  0  0  0
    3.5012    2.9886   11.3381 H   0  0  0  0  0  0  0  0  0  0  0  0
    4.7731    3.2281   10.1458 H   0  0  0  0  0  0  0  0  0  0  0  0
    2.6040    5.2122   10.5122 H   0  0  0  0  0  0  0  0  0  0  0  0
    1.6240    3.9115   11.1836 H   0  0  0  0  0  0  0  0  0  0  0  0
    1.0209    4.8281    9.8983 H   0  0  0  0  0  0  0  0  0  0  0  0
    3.1002    5.0842    7.9826 H   0  0  0  0  0  0  0  0  0  0  0  0
    4.4174    4.3068    8.5021 H   0  0  0  0  0  0  0  0  0  0  0  0
    4.5777    3.5912    5.4160 H   0  0  0  0  0  0  0  0  0  0  0  0
    6.1092    2.0099    6.0986 H   0  0  0  0  0  0  0  0  0  0  0  0
    6.3435    1.0082    7.5041 H   0  0  0  0  0  0  0  0  0  0  0  0
    6.2746    2.7344    7.6995 H   0  0  0  0  0  0  0  0  0  0  0  0
    3.6439    0.7580    5.6088 H   0  0  0  0  0  0  0  0  0  0  0  0
    4.6961   -0.1202    6.5667 H   0  0  0  0  0  0  0  0  0  0  0  0
    2.3920   -0.9555    6.8506 H   0  0  0  0  0  0  0  0  0  0  0  0
    3.3678   -0.7713    8.2615 H   0  0  0  0  0  0  0  0  0  0  0  0
    0.9510    0.5992    7.4659 H   0  0  0  0  0  0  0  0  0  0  0  0
   -0.1815   -1.9936    9.3225 H   0  0  0  0  0  0  0  0  0  0  0  0
    1.1673   -2.2429    8.2259 H   0  0  0  0  0  0  0  0  0  0  0  0
   -0.2379   -1.2865    7.7051 H   0  0  0  0  0  0  0  0  0  0  0  0
  1  2  1  0
  1 42  1  0
  1 43  1  0
  1 44  1  0
  2  3  1  0
  3 24  1  0
  3  4  1  0
  3 45  1  1
  4  5  2  0
  4 46  1  0
  5  6  1  0
  5 10  1  0
  6  7  1  0
  6  8  1  0
  6  9  1  0
  7 47  1  0
  7 48  1  0
  7 49  1  0
  8 50  1  0
  8 51  1  0
  8 52  1  0
  9 53  1  0
 10 32  1  0
 10 11  1  0
 10 54  1  6
 11 19  1  0
 11 24  1  0
 11 12  1  1
 12 13  1  0
 12 14  1  0
 12 55  1  1
 13 56  1  0
 14 15  1  0
 14 57  1  0
 14 58  1  0
 15 16  1  0
 15 59  1  0
 15 60  1  0
 16 17  1  0
 16 18  1  0
 16 19  1  0
 17 61  1  0
 17 62  1  0
 17 63  1  0
 18 64  1  0
 18 65  1  0
 18 66  1  0
 19 20  1  0
 19 67  1  1
 20 21  1  0
 20 68  1  0
 20 69  1  0
 21 22  2  0
 21 23  1  0
 23 24  1  0
 23 25  1  0
 23 70  1  1
 24 71  1  6
 25 29  1  0
 25 38  1  0
 25 26  1  1
 26 27  1  0
 27 41  1  0
 27 28  1  0
 27 72  1  1
 28 29  1  0
 28 73  1  0
 28 74  1  0
 29 30  1  1
 29 31  1  0
 30 75  1  0
 30 76  1  0
 30 77  1  0
 31 32  1  0
 31 78  1  0
 31 79  1  0
 32 33  1  6
 32 34  1  0
 33 80  1  0
 34 35  1  6
 34 36  1  0
 34 41  1  0
 35 81  1  0
 35 82  1  0
 35 83  1  0
 36 37  1  0
 36 84  1  0
 36 85  1  0
 37 38  1  0
 37 86  1  0
 37 87  1  0
 38 39  1  0
 38 88  1  6
 39 40  1  0
 40 89  1  0
 40 90  1  0
 40 91  1  0
M  END
>  <i_m_ct_stereo_status>  (224) 
1

>  <s_m_source_file>  (224) 
/var/tmp/pbs.5076255.sched01/tmpq3cms3f1/82_sdm1vz9.sdf

>  <i_m_source_file_index>  (224) 
8

>  <i_lp_mmshare_version>  (224) 
48012

>  <i_f3d_flags>  (224) 
0

>  <s_epik_input>  (224) 
W09IXVtDQEhdMVtDSDJdW0NIMl1DKFtDSDNdKShbQ0gzXSlbQ0BIXTJbQ0gyXUMoPU8pW0NASF0oW0NASF0zW0NASF0oT1tDSDNdKVtDSF09QzRDKFtDSDNdKShbQ0gzXSlbT0hdKVtDQF01KFtDQF0oW0NIM10pKFtDSDJdNilbQ0gyXVtDQEBIXShPNSlPNylbQ0BIXShPW0NIM10pW0NIMl1bQ0gyXVtDQEBdNyhbQ0gzXSlbQ0BdNihbQ0BIXTRbQ0BdMTIzKVtPSF0=

>  <s_epik_cmdline>  (224) 
J2VwaWtfcHl0aG9uJywgJy1waHQnLCAnMi4wJywgJy1waCcsICc3LjAnLCAnLXRuJywgJzgnLCAnLW1hJywgJzIwMCcsICctaW1hZScsICc8aW5maWxlLm1hZT4nLCAnLW9tYWUnLCAnPG91dGZpbGUubWFlPic=

>  <r_lp_tautomer_probability>  (224) 
1

>  <r_epik_Ionization_Penalty>  (224) 
4.1313e-07

>  <r_epik_Ionization_Penalty_Charging>  (224) 
0

>  <r_epik_Ionization_Penalty_Neutral>  (224) 
4.1313e-07

>  <r_epik_State_Penalty>  (224) 
-0

>  <r_epik_Charging_Adjusted_Penalty>  (224) 
0

>  <i_epik_Tot_Q>  (224) 
0

>  <i_epik_Tot_abs_Q>  (224) 
0

>  <s_epik_Chemistry_Notes>  (224) 
This compound contains an acetal/aminal-like group ( X-CH(R)-Y where X, Y are N, S, or O) that may be acid/base labile, releasing an aldehyde.

>  <s_lp_Force_Field>  (224) 
OPLS3e

>  <r_lp_Energy>  (224) 
383.7

>  <b_lp_Chiralities_Consistent>  (224) 
1

>  <s_lp_Variant>  (224) 
64:0-1

>  <s_i_glide_gridfile>  (224) 
pfpi4k_grid

>  <i_i_glide_lignum>  (224) 
8

>  <i_i_glide_rotatable_bonds>  (224) 
6

>  <r_i_docking_score>  (224) 
-1.65839

>  <r_i_glide_ligand_efficiency>  (224) 
-0.0404486

>  <r_i_glide_ligand_efficiency_sa>  (224) 
-0.139476

>  <r_i_glide_ligand_efficiency_ln>  (224) 
-0.351834

>  <r_i_glide_gscore>  (224) 
-1.65839

>  <r_i_glide_lipo>  (224) 
-0.2056

>  <r_i_glide_hbond>  (224) 
-0.05974

>  <r_i_glide_metal>  (224) 
-0

>  <r_i_glide_rewards>  (224) 
0

>  <r_i_glide_evdw>  (224) 
-17.5934

>  <r_i_glide_ecoul>  (224) 
-3.72446

>  <r_i_glide_erotb>  (224) 
0.0631758

>  <r_i_glide_esite>  (224) 
-0.01789

>  <r_i_glide_emodel>  (224) 
-22.645

>  <r_i_glide_energy>  (224) 
-21.3179

>  <r_i_glide_einternal>  (224) 
1.96166

>  <r_i_glide_intrahb_reward>  (224) 
-0

>  <i_i_glide_confnum>  (224) 
2

>  <i_i_glide_posenum>  (224) 
9

>  <r_i_glide_eff_state_penalty>  (224) 
0

>  <ligand_id>  (224) 
64

>  <original_smiles>  (224) 
COC1C=C(C(C)(C)O)C2C34C(O)CCC(C)(C)C3CC(=O)C(C14)C13OC4CC1(C)CC2(O)C(C)(CCC3OC)O4

>  <smiles>  (224) 
[H]OC1([H])C([H])([H])C([H])([H])C(C([H])([H])[H])(C([H])([H])[H])C2([H])C([H])([H])C(=O)C3([H])C4([H])C([H])(OC([H])([H])[H])C([H])=C(C(O[H])(C([H])([H])[H])C([H])([H])[H])C([H])(C5(O[H])C([H])([H])C6(C([H])([H])[H])C([H])([H])C7([H])OC5(C([H])([H])[H])C([H])([H])C([H])([H])C([H])(OC([H])([H])[H])C36O7)C142

$$$$
66:0:0
     RDKit          3D

 29 32  0  0  1  0  0  0  0  0999 V2000
    1.0451    1.7756    2.7740 C   0  0  0  0  0  0  0  0  0  0  0  0
    1.5361    0.9300    1.7599 C   0  0  0  0  0  0  0  0  0  0  0  0
    2.7004    0.1336    1.9467 C   0  0  0  0  0  0  0  0  0  0  0  0
    3.0178   -0.7360    0.8779 N   0  0  0  0  0  0  0  0  0  0  0  0
    4.2597   -1.1092    0.3262 C   0  0  0  0  0  0  0  0  0  0  0  0
    5.4243   -0.7605    0.9260 N   0  0  0  0  0  0  0  0  0  0  0  0
    6.5720   -1.2552    0.4884 C   0  0  0  0  0  0  0  0  0  0  0  0
    6.7969   -2.0265   -0.5721 N   0  0  0  0  0  0  0  0  0  0  0  0
    5.6328   -2.2987   -1.2436 C   0  0  0  0  0  0  0  0  0  0  0  0
    5.5939   -3.2215   -2.7454 S   0  0  0  0  0  0  0  0  0  0  0  0
    3.8735   -3.0623   -2.8248 C   0  0  0  0  0  0  0  0  0  0  0  0
    3.3134   -2.3617   -1.7866 C   0  0  0  0  0  0  0  0  0  0  0  0
    4.3209   -1.8780   -0.8616 C   0  0  0  0  0  0  0  0  0  0  0  0
    3.4058    0.1765    3.1897 C   0  0  0  0  0  0  0  0  0  0  0  0
    4.5594   -0.4781    3.7747 C   0  0  0  0  0  0  0  0  0  0  0  0
    4.7403    0.0240    5.0310 C   0  0  0  0  0  0  0  0  0  0  0  0
    3.7133    0.9108    5.2995 N   0  0  0  0  0  0  0  0  0  0  0  0
    2.8769    1.0439    4.1999 C   0  0  0  0  0  0  0  0  0  0  0  0
    1.7177    1.8159    4.0081 C   0  0  0  0  0  0  0  0  0  0  0  0
    3.5980    1.3791    6.1884 H   0  0  0  0  0  0  0  0  0  0  0  0
    0.1680    2.3897    2.6069 H   0  0  0  0  0  0  0  0  0  0  0  0
    0.9839    0.8974    0.8281 H   0  0  0  0  0  0  0  0  0  0  0  0
    7.4240   -1.0525    1.1086 H   0  0  0  0  0  0  0  0  0  0  0  0
    3.3383   -3.5362   -3.6296 H   0  0  0  0  0  0  0  0  0  0  0  0
    2.2574   -2.1714   -1.6829 H   0  0  0  0  0  0  0  0  0  0  0  0
    5.1942   -1.2257    3.3288 H   0  0  0  0  0  0  0  0  0  0  0  0
    5.5193   -0.2083    5.7452 H   0  0  0  0  0  0  0  0  0  0  0  0
    1.3556    2.4472    4.8066 H   0  0  0  0  0  0  0  0  0  0  0  0
    2.2353   -0.9259    0.2550 H   0  0  0  0  0  0  0  0  0  0  0  0
  1 19  2  0
  1  2  1  0
  1 21  1  0
  2  3  2  0
  2 22  1  0
  3  4  1  0
  3 14  1  0
  4  5  1  0
  4 29  1  0
  5 13  1  0
  5  6  2  0
  6  7  1  0
  7  8  2  0
  7 23  1  0
  8  9  1  0
  9 13  2  0
  9 10  1  0
 10 11  1  0
 11 12  2  0
 11 24  1  0
 12 13  1  0
 12 25  1  0
 14 18  2  0
 14 15  1  0
 15 16  2  0
 15 26  1  0
 16 17  1  0
 16 27  1  0
 17 20  1  0
 17 18  1  0
 18 19  1  0
 19 28  1  0
M  END
>  <i_m_ct_stereo_status>  (225) 
1

>  <s_m_source_file>  (225) 
/var/tmp/pbs.5076255.sched01/tmpq3cms3f1/82_sdm1vz9.sdf

>  <i_m_source_file_index>  (225) 
10

>  <i_lp_mmshare_version>  (225) 
48012

>  <i_f3d_flags>  (225) 
0

>  <s_epik_input>  (225) 
W2NIXTFbY0hdW25IXWMoYzEyKVtjSF1bY0hdW2NIXWMyL049YyhcW25IXVtjSF1uMyljKGMzNClbY0hdW2NIXXM0

>  <s_epik_cmdline>  (225) 
J2VwaWtfcHl0aG9uJywgJy1waHQnLCAnMi4wJywgJy1waCcsICc3LjAnLCAnLXRuJywgJzgnLCAnLW1hJywgJzIwMCcsICctaW1hZScsICc8aW5maWxlLm1hZT4nLCAnLW9tYWUnLCAnPG91dGZpbGUubWFlPic=

>  <r_lp_tautomer_probability>  (225) 
1

>  <r_epik_Ionization_Penalty>  (225) 
7.87102e-05

>  <r_epik_Ionization_Penalty_Charging>  (225) 
0

>  <r_epik_Ionization_Penalty_Neutral>  (225) 
7.87102e-05

>  <r_epik_State_Penalty>  (225) 
-0

>  <r_epik_Charging_Adjusted_Penalty>  (225) 
0

>  <i_epik_Tot_Q>  (225) 
0

>  <i_epik_Tot_abs_Q>  (225) 
0

>  <s_lp_Force_Field>  (225) 
OPLS3e

>  <r_lp_Energy>  (225) 
39.7567

>  <b_lp_Chiralities_Consistent>  (225) 
1

>  <s_lp_Variant>  (225) 
66:0-1

>  <s_i_glide_gridfile>  (225) 
pfpi4k_grid

>  <i_i_glide_lignum>  (225) 
10

>  <i_i_glide_rotatable_bonds>  (225) 
2

>  <r_i_docking_score>  (225) 
-3.89506

>  <r_i_glide_ligand_efficiency>  (225) 
-0.205003

>  <r_i_glide_ligand_efficiency_sa>  (225) 
-0.54703

>  <r_i_glide_ligand_efficiency_ln>  (225) 
-0.98748

>  <r_i_glide_gscore>  (225) 
-3.89506

>  <r_i_glide_lipo>  (225) 
-0.330999

>  <r_i_glide_hbond>  (225) 
-0.316711

>  <r_i_glide_metal>  (225) 
-0

>  <r_i_glide_rewards>  (225) 
-1.59326

>  <r_i_glide_evdw>  (225) 
-25.2362

>  <r_i_glide_ecoul>  (225) 
-5.51214

>  <r_i_glide_erotb>  (225) 
0.502257

>  <r_i_glide_esite>  (225) 
-0.067712

>  <r_i_glide_emodel>  (225) 
-36.9386

>  <r_i_glide_energy>  (225) 
-30.7484

>  <r_i_glide_einternal>  (225) 
2.99128

>  <r_i_glide_intrahb_reward>  (225) 
-0

>  <i_i_glide_confnum>  (225) 
2

>  <i_i_glide_posenum>  (225) 
17

>  <r_i_glide_eff_state_penalty>  (225) 
0

>  <ligand_id>  (225) 
66

>  <original_smiles>  (225) 
c1cc(N=c2[nH]cnc3sccc23)c2cc[nH]c2c1

>  <smiles>  (225) 
[H]c1nc(N([H])c2c([H])c([H])c([H])c3c2c([H])c([H])n3[H])c2c([H])c([H])sc2n1

$$$$
66:0:1
     RDKit          3D

 29 32  0  0  1  0  0  0  0  0999 V2000
    4.7786   -6.5759    2.9045 C   0  0  0  0  0  0  0  0  0  0  0  0
    4.7017   -5.7473    1.7703 C   0  0  0  0  0  0  0  0  0  0  0  0
    3.5008   -5.6049    1.0314 C   0  0  0  0  0  0  0  0  0  0  0  0
    3.4540   -4.7452   -0.0876 N   0  0  0  0  0  0  0  0  0  0  0  0
    4.1004   -3.5205   -0.3203 C   0  0  0  0  0  0  0  0  0  0  0  0
    4.9768   -3.0078    0.5834 N   0  0  0  0  0  0  0  0  0  0  0  0
    5.6069   -1.8624    0.3128 C   0  0  0  0  0  0  0  0  0  0  0  0
    5.4907   -1.0766   -0.7598 N   0  0  0  0  0  0  0  0  0  0  0  0
    4.5698   -1.5645   -1.6419 C   0  0  0  0  0  0  0  0  0  0  0  0
    4.1113   -0.7099   -3.1101 S   0  0  0  0  0  0  0  0  0  0  0  0
    3.0150   -1.9851   -3.5323 C   0  0  0  0  0  0  0  0  0  0  0  0
    2.9449   -3.0126   -2.6290 C   0  0  0  0  0  0  0  0  0  0  0  0
    3.8353   -2.7851   -1.5072 C   0  0  0  0  0  0  0  0  0  0  0  0
    2.3526   -6.3719    1.3972 C   0  0  0  0  0  0  0  0  0  0  0  0
    1.0143   -6.5566    0.8820 C   0  0  0  0  0  0  0  0  0  0  0  0
    0.3587   -7.4404    1.7025 C   0  0  0  0  0  0  0  0  0  0  0  0
    1.2283   -7.8076    2.7137 N   0  0  0  0  0  0  0  0  0  0  0  0
    2.4597   -7.1998    2.5539 C   0  0  0  0  0  0  0  0  0  0  0  0
    3.6459   -7.2994    3.3023 C   0  0  0  0  0  0  0  0  0  0  0  0
    0.9914   -8.4749    3.4373 H   0  0  0  0  0  0  0  0  0  0  0  0
    5.7076   -6.6590    3.4539 H   0  0  0  0  0  0  0  0  0  0  0  0
    5.6038   -5.2284    1.4786 H   0  0  0  0  0  0  0  0  0  0  0  0
    6.3254   -1.5345    1.0507 H   0  0  0  0  0  0  0  0  0  0  0  0
    2.4387   -1.8982   -4.4376 H   0  0  0  0  0  0  0  0  0  0  0  0
    2.2905   -3.8619   -2.7158 H   0  0  0  0  0  0  0  0  0  0  0  0
    0.6143   -6.1053   -0.0196 H   0  0  0  0  0  0  0  0  0  0  0  0
   -0.6405   -7.8592    1.6439 H   0  0  0  0  0  0  0  0  0  0  0  0
    3.6849   -7.9478    4.1669 H   0  0  0  0  0  0  0  0  0  0  0  0
    2.9400   -5.0936   -0.8882 H   0  0  0  0  0  0  0  0  0  0  0  0
  1 19  2  0
  1  2  1  0
  1 21  1  0
  2  3  2  0
  2 22  1  0
  3  4  1  0
  3 14  1  0
  4  5  1  0
  4 29  1  0
  5 13  1  0
  5  6  2  0
  6  7  1  0
  7  8  2  0
  7 23  1  0
  8  9  1  0
  9 13  2  0
  9 10  1  0
 10 11  1  0
 11 12  2  0
 11 24  1  0
 12 13  1  0
 12 25  1  0
 14 18  2  0
 14 15  1  0
 15 16  2  0
 15 26  1  0
 16 17  1  0
 16 27  1  0
 17 20  1  0
 17 18  1  0
 18 19  1  0
 19 28  1  0
M  END
>  <i_m_ct_stereo_status>  (226) 
1

>  <s_m_source_file>  (226) 
/var/tmp/pbs.5076255.sched01/tmpq3cms3f1/82_sdm1vz9.sdf

>  <i_m_source_file_index>  (226) 
10

>  <i_lp_mmshare_version>  (226) 
48012

>  <i_f3d_flags>  (226) 
0

>  <s_epik_input>  (226) 
W2NIXTFbY0hdW25IXWMoYzEyKVtjSF1bY0hdW2NIXWMyL049YyhcW25IXVtjSF1uMyljKGMzNClbY0hdW2NIXXM0

>  <s_epik_cmdline>  (226) 
J2VwaWtfcHl0aG9uJywgJy1waHQnLCAnMi4wJywgJy1waCcsICc3LjAnLCAnLXRuJywgJzgnLCAnLW1hJywgJzIwMCcsICctaW1hZScsICc8aW5maWxlLm1hZT4nLCAnLW9tYWUnLCAnPG91dGZpbGUubWFlPic=

>  <r_lp_tautomer_probability>  (226) 
1

>  <r_epik_Ionization_Penalty>  (226) 
7.87102e-05

>  <r_epik_Ionization_Penalty_Charging>  (226) 
0

>  <r_epik_Ionization_Penalty_Neutral>  (226) 
7.87102e-05

>  <r_epik_State_Penalty>  (226) 
-0

>  <r_epik_Charging_Adjusted_Penalty>  (226) 
0

>  <i_epik_Tot_Q>  (226) 
0

>  <i_epik_Tot_abs_Q>  (226) 
0

>  <s_lp_Force_Field>  (226) 
OPLS3e

>  <r_lp_Energy>  (226) 
39.7567

>  <b_lp_Chiralities_Consistent>  (226) 
1

>  <s_lp_Variant>  (226) 
66:0-1

>  <s_i_glide_gridfile>  (226) 
pfpi4k_grid

>  <i_i_glide_lignum>  (226) 
10

>  <i_i_glide_rotatable_bonds>  (226) 
2

>  <r_i_docking_score>  (226) 
-3.8561

>  <r_i_glide_ligand_efficiency>  (226) 
-0.202952

>  <r_i_glide_ligand_efficiency_sa>  (226) 
-0.541559

>  <r_i_glide_ligand_efficiency_ln>  (226) 
-0.977603

>  <r_i_glide_gscore>  (226) 
-3.8561

>  <r_i_glide_lipo>  (226) 
-0.443938

>  <r_i_glide_hbond>  (226) 
-0.310408

>  <r_i_glide_metal>  (226) 
-0

>  <r_i_glide_rewards>  (226) 
-1.66299

>  <r_i_glide_evdw>  (226) 
-26.4924

>  <r_i_glide_ecoul>  (226) 
-3.75805

>  <r_i_glide_erotb>  (226) 
0.502257

>  <r_i_glide_esite>  (226) 
-0.0526912

>  <r_i_glide_emodel>  (226) 
-36.432

>  <r_i_glide_energy>  (226) 
-30.2504

>  <r_i_glide_einternal>  (226) 
2.67677

>  <r_i_glide_intrahb_reward>  (226) 
-0

>  <i_i_glide_confnum>  (226) 
3

>  <i_i_glide_posenum>  (226) 
25

>  <r_i_glide_eff_state_penalty>  (226) 
0

>  <ligand_id>  (226) 
66

>  <original_smiles>  (226) 
c1cc(N=c2[nH]cnc3sccc23)c2cc[nH]c2c1

>  <smiles>  (226) 
[H]c1nc(N([H])c2c([H])c([H])c([H])c3c2c([H])c([H])n3[H])c2c([H])c([H])sc2n1

$$$$
66:0:2
     RDKit          3D

 29 32  0  0  1  0  0  0  0  0999 V2000
    4.4728    0.2739    4.3471 C   0  0  0  0  0  0  0  0  0  0  0  0
    4.5388   -0.2265    3.0358 C   0  0  0  0  0  0  0  0  0  0  0  0
    3.4202   -0.1972    2.1535 C   0  0  0  0  0  0  0  0  0  0  0  0
    3.5023   -0.7188    0.8380 N   0  0  0  0  0  0  0  0  0  0  0  0
    4.4045   -1.6545    0.2830 C   0  0  0  0  0  0  0  0  0  0  0  0
    5.3636   -2.2234    1.0475 N   0  0  0  0  0  0  0  0  0  0  0  0
    6.2067   -3.1005    0.5050 C   0  0  0  0  0  0  0  0  0  0  0  0
    6.2518   -3.5508   -0.7501 N   0  0  0  0  0  0  0  0  0  0  0  0
    5.2646   -3.0110   -1.5228 C   0  0  0  0  0  0  0  0  0  0  0  0
    5.0071   -3.4527   -3.2067 S   0  0  0  0  0  0  0  0  0  0  0  0
    3.6783   -2.3414   -3.3064 C   0  0  0  0  0  0  0  0  0  0  0  0
    3.4118   -1.6522   -2.1502 C   0  0  0  0  0  0  0  0  0  0  0  0
    4.3077   -2.0402   -1.0864 C   0  0  0  0  0  0  0  0  0  0  0  0
    2.1966    0.3981    2.6150 C   0  0  0  0  0  0  0  0  0  0  0  0
    0.8738    0.6289    2.0676 C   0  0  0  0  0  0  0  0  0  0  0  0
    0.1207    1.2698    3.0192 C   0  0  0  0  0  0  0  0  0  0  0  0
    0.9146    1.4532    4.1406 N   0  0  0  0  0  0  0  0  0  0  0  0
    2.1761    0.9282    3.9439 C   0  0  0  0  0  0  0  0  0  0  0  0
    3.2916    0.8715    4.8006 C   0  0  0  0  0  0  0  0  0  0  0  0
    0.6035    1.9185    4.9829 H   0  0  0  0  0  0  0  0  0  0  0  0
    5.3429    0.2088    4.9832 H   0  0  0  0  0  0  0  0  0  0  0  0
    5.5126   -0.5977    2.7532 H   0  0  0  0  0  0  0  0  0  0  0  0
    6.9745   -3.4894    1.1618 H   0  0  0  0  0  0  0  0  0  0  0  0
    3.1188   -2.2707   -4.2267 H   0  0  0  0  0  0  0  0  0  0  0  0
    2.6206   -0.9311   -2.0141 H   0  0  0  0  0  0  0  0  0  0  0  0
    0.5314    0.3634    1.0732 H   0  0  0  0  0  0  0  0  0  0  0  0
   -0.9093    1.6154    2.9930 H   0  0  0  0  0  0  0  0  0  0  0  0
    3.2352    1.2881    5.7977 H   0  0  0  0  0  0  0  0  0  0  0  0
    2.7489   -0.4433    0.2208 H   0  0  0  0  0  0  0  0  0  0  0  0
  1 19  2  0
  1  2  1  0
  1 21  1  0
  2  3  2  0
  2 22  1  0
  3  4  1  0
  3 14  1  0
  4  5  1  0
  4 29  1  0
  5 13  1  0
  5  6  2  0
  6  7  1  0
  7  8  2  0
  7 23  1  0
  8  9  1  0
  9 13  2  0
  9 10  1  0
 10 11  1  0
 11 12  2  0
 11 24  1  0
 12 13  1  0
 12 25  1  0
 14 18  2  0
 14 15  1  0
 15 16  2  0
 15 26  1  0
 16 17  1  0
 16 27  1  0
 17 20  1  0
 17 18  1  0
 18 19  1  0
 19 28  1  0
M  END
>  <i_m_ct_stereo_status>  (227) 
1

>  <s_m_source_file>  (227) 
/var/tmp/pbs.5076255.sched01/tmpq3cms3f1/82_sdm1vz9.sdf

>  <i_m_source_file_index>  (227) 
10

>  <i_lp_mmshare_version>  (227) 
48012

>  <i_f3d_flags>  (227) 
0

>  <s_epik_input>  (227) 
W2NIXTFbY0hdW25IXWMoYzEyKVtjSF1bY0hdW2NIXWMyL049YyhcW25IXVtjSF1uMyljKGMzNClbY0hdW2NIXXM0

>  <s_epik_cmdline>  (227) 
J2VwaWtfcHl0aG9uJywgJy1waHQnLCAnMi4wJywgJy1waCcsICc3LjAnLCAnLXRuJywgJzgnLCAnLW1hJywgJzIwMCcsICctaW1hZScsICc8aW5maWxlLm1hZT4nLCAnLW9tYWUnLCAnPG91dGZpbGUubWFlPic=

>  <r_lp_tautomer_probability>  (227) 
1

>  <r_epik_Ionization_Penalty>  (227) 
7.87102e-05

>  <r_epik_Ionization_Penalty_Charging>  (227) 
0

>  <r_epik_Ionization_Penalty_Neutral>  (227) 
7.87102e-05

>  <r_epik_State_Penalty>  (227) 
-0

>  <r_epik_Charging_Adjusted_Penalty>  (227) 
0

>  <i_epik_Tot_Q>  (227) 
0

>  <i_epik_Tot_abs_Q>  (227) 
0

>  <s_lp_Force_Field>  (227) 
OPLS3e

>  <r_lp_Energy>  (227) 
39.7567

>  <b_lp_Chiralities_Consistent>  (227) 
1

>  <s_lp_Variant>  (227) 
66:0-1

>  <s_i_glide_gridfile>  (227) 
pfpi4k_grid

>  <i_i_glide_lignum>  (227) 
10

>  <i_i_glide_rotatable_bonds>  (227) 
2

>  <r_i_docking_score>  (227) 
-3.34322

>  <r_i_glide_ligand_efficiency>  (227) 
-0.175959

>  <r_i_glide_ligand_efficiency_sa>  (227) 
-0.469529

>  <r_i_glide_ligand_efficiency_ln>  (227) 
-0.847578

>  <r_i_glide_gscore>  (227) 
-3.34322

>  <r_i_glide_lipo>  (227) 
-0.51992

>  <r_i_glide_hbond>  (227) 
-0.041064

>  <r_i_glide_metal>  (227) 
-0

>  <r_i_glide_rewards>  (227) 
-1.69788

>  <r_i_glide_evdw>  (227) 
-26.8344

>  <r_i_glide_ecoul>  (227) 
-1.3309

>  <r_i_glide_erotb>  (227) 
0.502257

>  <r_i_glide_esite>  (227) 
-0.045256

>  <r_i_glide_emodel>  (227) 
-34.128

>  <r_i_glide_energy>  (227) 
-28.1653

>  <r_i_glide_einternal>  (227) 
1.22381

>  <r_i_glide_intrahb_reward>  (227) 
-0

>  <i_i_glide_confnum>  (227) 
2

>  <i_i_glide_posenum>  (227) 
30

>  <r_i_glide_eff_state_penalty>  (227) 
0

>  <ligand_id>  (227) 
66

>  <original_smiles>  (227) 
c1cc(N=c2[nH]cnc3sccc23)c2cc[nH]c2c1

>  <smiles>  (227) 
[H]c1nc(N([H])c2c([H])c([H])c([H])c3c2c([H])c([H])n3[H])c2c([H])c([H])sc2n1

$$$$
67:1:0
     RDKit          3D

 84 87  0  0  1  0  0  0  0  0999 V2000
   -2.0001    3.3678    6.8326 C   0  0  0  0  0  0  0  0  0  0  0  0
   -1.7312    2.6085    5.7460 C   0  0  0  0  0  0  0  0  0  0  0  0
   -2.5808    2.7983    4.4846 C   0  0  0  0  0  0  0  0  0  0  0  0
   -0.6562    1.4954    5.7377 C   0  0  2  0  0  0  0  0  0  0  0  0
   -0.3793    1.0024    7.2257 C   0  0  0  0  0  0  0  0  0  0  0  0
    0.1727   -0.4061    7.5567 C   0  0  1  0  0  0  0  0  0  0  0  0
   -0.2170   -1.4226    6.6528 O   0  0  0  0  0  0  0  0  0  0  0  0
    1.6129   -0.4418    8.0352 C   0  0  1  0  0  0  0  0  0  0  0  0
    2.7377   -0.8470    7.1700 C   0  0  0  0  0  0  0  0  0  0  0  0
    3.0341   -1.6987    6.1668 C   0  0  0  0  0  0  0  0  0  0  0  0
    3.6537   -1.2019    4.8852 C   0  0  0  0  0  0  0  0  0  0  0  0
    2.8397   -0.0860    4.0896 C   0  0  1  0  0  0  0  0  0  0  0  0
    2.4053   -0.7317    2.7315 C   0  0  2  0  0  0  0  0  0  0  0  0
    1.3504   -1.8518    2.8899 C   0  0  0  0  0  0  0  0  0  0  0  0
    3.5867   -1.3051    1.8767 C   0  0  0  0  0  0  0  0  0  0  0  0
    4.7514   -0.3265    1.5757 C   0  0  0  0  0  0  0  0  0  0  0  0
    6.0633   -1.0312    1.2626 C   0  0  0  0  0  0  0  0  0  0  0  0
    6.4043   -1.6825    0.1347 C   0  0  0  0  0  0  0  0  0  0  0  0
    7.7798   -2.3022   -0.0263 C   0  0  0  0  0  0  0  0  0  0  0  0
    5.4750   -1.8582   -1.0506 C   0  0  0  0  0  0  0  0  0  0  0  0
    1.8529    0.7995    5.0304 C   0  0  2  0  0  0  0  0  0  0  0  0
    0.4948    1.5591    4.5803 C   0  0  1  0  0  0  0  0  0  0  0  0
   -0.2437    0.7486    3.4399 C   0  0  0  0  0  0  0  0  0  0  0  0
    0.8372    2.9242    3.8306 C   0  0  0  0  0  0  0  0  0  0  0  0
    1.3382    4.2738    4.4643 C   0  0  1  0  0  0  0  0  0  0  0  0
    1.9525    5.0977    3.2965 C   0  0  0  0  0  0  0  0  0  0  0  0
    0.2089    5.2038    4.9936 C   0  0  0  0  0  0  0  0  0  0  0  0
    0.5143    6.0400    5.9062 O   0  0  0  0  0  0  0  0  0  0  0  0
   -0.8795    5.1823    4.4195 O   0  0  0  0  0  0  0  0  0  0  0  0
    2.4682    4.0537    5.4949 C   0  0  0  0  0  0  0  0  0  0  0  0
    2.2038    2.9718    6.5649 C   0  0  0  0  0  0  0  0  0  0  0  0
    2.6952    1.5087    6.2393 C   0  0  2  0  0  0  0  0  0  0  0  0
    4.2132    1.7534    5.9009 C   0  0  0  0  0  0  0  0  0  0  0  0
    2.7213    0.5796    7.5156 C   0  0  1  0  0  0  0  0  0  0  0  0
    3.6727    1.0222    8.6387 C   0  0  0  0  0  0  0  0  0  0  0  0
   -2.7799    4.1125    6.8016 H   0  0  0  0  0  0  0  0  0  0  0  0
   -1.4772    3.2766    7.7744 H   0  0  0  0  0  0  0  0  0  0  0  0
   -3.0356    1.8774    4.1382 H   0  0  0  0  0  0  0  0  0  0  0  0
   -1.9922    3.1976    3.6615 H   0  0  0  0  0  0  0  0  0  0  0  0
   -3.3755    3.5151    4.6790 H   0  0  0  0  0  0  0  0  0  0  0  0
   -1.2973    0.6567    5.4602 H   0  0  0  0  0  0  0  0  0  0  0  0
    0.1358    1.7101    7.8663 H   0  0  0  0  0  0  0  0  0  0  0  0
   -1.3593    0.9668    7.6965 H   0  0  0  0  0  0  0  0  0  0  0  0
   -0.3611   -0.6936    8.4600 H   0  0  0  0  0  0  0  0  0  0  0  0
    0.2697   -1.2954    5.8520 H   0  0  0  0  0  0  0  0  0  0  0  0
    1.6782   -0.7972    9.0674 H   0  0  0  0  0  0  0  0  0  0  0  0
    2.5324   -2.6491    6.1057 H   0  0  0  0  0  0  0  0  0  0  0  0
    4.6696   -0.8783    5.0746 H   0  0  0  0  0  0  0  0  0  0  0  0
    3.8016   -2.1178    4.3289 H   0  0  0  0  0  0  0  0  0  0  0  0
    3.5427    0.6462    3.7280 H   0  0  0  0  0  0  0  0  0  0  0  0
    2.0133    0.0755    2.1232 H   0  0  0  0  0  0  0  0  0  0  0  0
    1.8107   -2.8487    2.8749 H   0  0  0  0  0  0  0  0  0  0  0  0
    0.6630   -1.8158    2.0398 H   0  0  0  0  0  0  0  0  0  0  0  0
    0.7747   -1.7431    3.7871 H   0  0  0  0  0  0  0  0  0  0  0  0
    3.9922   -2.2177    2.3162 H   0  0  0  0  0  0  0  0  0  0  0  0
    3.1606   -1.6508    0.9338 H   0  0  0  0  0  0  0  0  0  0  0  0
    4.4809    0.3673    0.7719 H   0  0  0  0  0  0  0  0  0  0  0  0
    5.0026    0.2689    2.4492 H   0  0  0  0  0  0  0  0  0  0  0  0
    6.7851   -0.9813    2.0664 H   0  0  0  0  0  0  0  0  0  0  0  0
    8.2985   -1.8781   -0.8849 H   0  0  0  0  0  0  0  0  0  0  0  0
    7.6849   -3.3797   -0.1773 H   0  0  0  0  0  0  0  0  0  0  0  0
    8.3953   -2.1300    0.8593 H   0  0  0  0  0  0  0  0  0  0  0  0
    5.8246   -1.2699   -1.8951 H   0  0  0  0  0  0  0  0  0  0  0  0
    4.4514   -1.5509   -0.8373 H   0  0  0  0  0  0  0  0  0  0  0  0
    5.4506   -2.9111   -1.3394 H   0  0  0  0  0  0  0  0  0  0  0  0
    1.3014   -0.0264    5.4242 H   0  0  0  0  0  0  0  0  0  0  0  0
    0.2131    0.8972    2.4555 H   0  0  0  0  0  0  0  0  0  0  0  0
   -1.2262    1.1851    3.2330 H   0  0  0  0  0  0  0  0  0  0  0  0
   -0.4202   -0.2497    3.6694 H   0  0  0  0  0  0  0  0  0  0  0  0
    1.6058    2.6416    3.1113 H   0  0  0  0  0  0  0  0  0  0  0  0
    0.0157    3.2037    3.1751 H   0  0  0  0  0  0  0  0  0  0  0  0
    2.7951    4.5863    2.8330 H   0  0  0  0  0  0  0  0  0  0  0  0
    2.3121    6.0718    3.6401 H   0  0  0  0  0  0  0  0  0  0  0  0
    1.2239    5.2880    2.5116 H   0  0  0  0  0  0  0  0  0  0  0  0
    3.4047    3.9194    4.9703 H   0  0  0  0  0  0  0  0  0  0  0  0
    2.6485    4.9859    6.0292 H   0  0  0  0  0  0  0  0  0  0  0  0
    2.7226    3.3163    7.4601 H   0  0  0  0  0  0  0  0  0  0  0  0
    1.1657    3.0608    6.8300 H   0  0  0  0  0  0  0  0  0  0  0  0
    4.6601    2.5110    6.5501 H   0  0  0  0  0  0  0  0  0  0  0  0
    4.4114    2.1028    4.8909 H   0  0  0  0  0  0  0  0  0  0  0  0
    4.8419    0.8834    6.0616 H   0  0  0  0  0  0  0  0  0  0  0  0
    3.3787    1.9923    9.0385 H   0  0  0  0  0  0  0  0  0  0  0  0
    4.7173    1.0407    8.3260 H   0  0  0  0  0  0  0  0  0  0  0  0
    3.6151    0.3083    9.4625 H   0  0  0  0  0  0  0  0  0  0  0  0
  1  2  2  0
  1 36  1  0
  1 37  1  0
  2  3  1  0
  2  4  1  0
  3 38  1  0
  3 39  1  0
  3 40  1  0
  4 22  1  0
  4  5  1  0
  4 41  1  6
  5  6  1  0
  5 42  1  0
  5 43  1  0
  6  7  1  0
  6  8  1  0
  6 44  1  1
  7 45  1  0
  8 34  1  0
  8  9  1  0
  8 46  1  1
  9 34  1  0
  9 10  2  0
 10 11  1  0
 10 47  1  0
 11 12  1  0
 11 48  1  0
 11 49  1  0
 12 13  1  0
 12 21  1  0
 12 50  1  6
 13 14  1  0
 13 15  1  0
 13 51  1  6
 14 52  1  0
 14 53  1  0
 14 54  1  0
 15 16  1  0
 15 55  1  0
 15 56  1  0
 16 17  1  0
 16 57  1  0
 16 58  1  0
 17 18  2  3
 17 59  1  0
 18 19  1  0
 18 20  1  0
 19 60  1  0
 19 61  1  0
 19 62  1  0
 20 63  1  0
 20 64  1  0
 20 65  1  0
 21 32  1  0
 21 22  1  0
 21 66  1  1
 22 23  1  6
 22 24  1  0
 23 67  1  0
 23 68  1  0
 23 69  1  0
 24 25  1  0
 24 70  1  0
 24 71  1  0
 25 26  1  6
 25 27  1  0
 25 30  1  0
 26 72  1  0
 26 73  1  0
 26 74  1  0
 27 28  2  0
 27 29  1  0
 30 31  1  0
 30 75  1  0
 30 76  1  0
 31 32  1  0
 31 77  1  0
 31 78  1  0
 32 33  1  6
 32 34  1  0
 33 79  1  0
 33 80  1  0
 33 81  1  0
 34 35  1  1
 35 82  1  0
 35 83  1  0
 35 84  1  0
M  CHG  1  29  -1
M  END
>  <i_m_ct_stereo_status>  (228) 
1

>  <s_m_source_file>  (228) 
/var/tmp/pbs.5076255.sched01/tmpq3cms3f1/82_sdm1vz9.sdf

>  <i_m_source_file_index>  (228) 
12

>  <i_lp_mmshare_version>  (228) 
48012

>  <i_f3d_flags>  (228) 
0

>  <s_epik_input>  (228) 
Tz1DKFtPSF0pW0NAQF0oW0NIMl0xKShbQ0gzXSlbQ0gyXVtDSDJdW0NAXShbQ0gzXSkoW0NASF0yW0NAXTEzW0NIM10pQzQoW0NIM10pW0NIXShbQ0BIXShbT0hdKVtDSDJdW0NASF0zQyg9W0NIMl0pW0NIM10pQzQ9W0NIXVtDSDJdW0NASF0yW0NASF0oW0NIM10pW0NIMl1bQ0gyXVtDSF09QyhbQ0gzXSlbQ0gzXQ==

>  <s_epik_cmdline>  (228) 
J2VwaWtfcHl0aG9uJywgJy1waHQnLCAnMi4wJywgJy1waCcsICc3LjAnLCAnLXRuJywgJzgnLCAnLW1hJywgJzIwMCcsICctaW1hZScsICc8aW5maWxlLm1hZT4nLCAnLW9tYWUnLCAnPG91dGZpbGUubWFlPic=

>  <r_epik_Ionization_Penalty>  (228) 
0.00584908

>  <r_epik_Ionization_Penalty_Charging>  (228) 
0.00584785

>  <r_epik_Ionization_Penalty_Neutral>  (228) 
1.23081e-06

>  <r_epik_State_Penalty>  (228) 
0.00429702

>  <r_epik_Charging_Adjusted_Penalty>  (228) 
0.0101449

>  <i_epik_Tot_Q>  (228) 
-1

>  <i_epik_Tot_abs_Q>  (228) 
1

>  <s_lp_Force_Field>  (228) 
OPLS3e

>  <r_lp_Energy>  (228) 
147.6

>  <b_lp_Chiralities_Consistent>  (228) 
1

>  <s_lp_Variant>  (228) 
67:0-2

>  <s_i_glide_gridfile>  (228) 
pfpi4k_grid

>  <i_i_glide_lignum>  (228) 
12

>  <i_i_glide_rotatable_bonds>  (228) 
7

>  <r_i_docking_score>  (228) 
-1.84365

>  <r_i_glide_ligand_efficiency>  (228) 
-0.0526758

>  <r_i_glide_ligand_efficiency_sa>  (228) 
-0.172306

>  <r_i_glide_ligand_efficiency_ln>  (228) 
-0.404723

>  <r_i_glide_gscore>  (228) 
-1.84365

>  <r_i_glide_lipo>  (228) 
-0.425442

>  <r_i_glide_hbond>  (228) 
-0.0949378

>  <r_i_glide_metal>  (228) 
-0

>  <r_i_glide_rewards>  (228) 
-0.12457

>  <r_i_glide_evdw>  (228) 
-20.6466

>  <r_i_glide_ecoul>  (228) 
-3.77967

>  <r_i_glide_erotb>  (228) 
0.437131

>  <r_i_glide_esite>  (228) 
-0.0365554

>  <r_i_glide_emodel>  (228) 
-22.8982

>  <r_i_glide_energy>  (228) 
-24.4262

>  <r_i_glide_einternal>  (228) 
5.45261

>  <r_i_glide_intrahb_reward>  (228) 
-0

>  <i_i_glide_confnum>  (228) 
3

>  <i_i_glide_posenum>  (228) 
37

>  <r_i_glide_eff_state_penalty>  (228) 
0

>  <ligand_id>  (228) 
67

>  <original_smiles>  (228) 
C=C(C)C1CC(O)C2C3=CCC(C(C)CCC=C(C)C)C4C1(C)CC(C)(C(=O)O)CCC4(C)C32C

>  <smiles>  (228) 
[H]OC1([H])C([H])([H])C([H])(C(=C([H])[H])C([H])([H])[H])C2(C([H])([H])[H])C([H])([H])C(C(=O)[O-])(C([H])([H])[H])C([H])([H])C([H])([H])C3(C([H])([H])[H])C2([H])C([H])(C([H])(C([H])([H])[H])C([H])([H])C([H])([H])C([H])=C(C([H])([H])[H])C([H])([H])[H])C([H])([H])C([H])=C2C1([H])C23C([H])([H])[H]

$$$$
67:1:1
     RDKit          3D

 84 87  0  0  1  0  0  0  0  0999 V2000
   -1.5656    3.5819    7.2322 C   0  0  0  0  0  0  0  0  0  0  0  0
   -1.3633    2.7953    6.1497 C   0  0  0  0  0  0  0  0  0  0  0  0
   -2.2482    3.0048    4.9277 C   0  0  0  0  0  0  0  0  0  0  0  0
   -0.3232    1.6392    6.1280 C   0  0  2  0  0  0  0  0  0  0  0  0
    0.0676    1.2148    7.6065 C   0  0  0  0  0  0  0  0  0  0  0  0
    0.5869   -0.1811    7.9795 C   0  0  1  0  0  0  0  0  0  0  0  0
    0.0952   -1.2354    7.1706 O   0  0  0  0  0  0  0  0  0  0  0  0
    2.0823   -0.2377    8.3353 C   0  0  1  0  0  0  0  0  0  0  0  0
    3.1055   -0.7422    7.4006 C   0  0  0  0  0  0  0  0  0  0  0  0
    3.2773   -1.6409    6.4246 C   0  0  0  0  0  0  0  0  0  0  0  0
    3.8035   -1.2472    5.0653 C   0  0  0  0  0  0  0  0  0  0  0  0
    2.9721   -0.1437    4.2822 C   0  0  1  0  0  0  0  0  0  0  0  0
    2.3548   -0.8087    3.0119 C   0  0  2  0  0  0  0  0  0  0  0  0
    1.3960   -1.9931    3.3335 C   0  0  0  0  0  0  0  0  0  0  0  0
    3.4525   -1.3139    2.0210 C   0  0  0  0  0  0  0  0  0  0  0  0
    4.0470   -0.3265    1.0400 C   0  0  0  0  0  0  0  0  0  0  0  0
    5.0027   -0.9848    0.0337 C   0  0  0  0  0  0  0  0  0  0  0  0
    5.4790   -2.2592   -0.0272 C   0  0  0  0  0  0  0  0  0  0  0  0
    6.3979   -2.6362   -1.1974 C   0  0  0  0  0  0  0  0  0  0  0  0
    5.2132   -3.4126    0.9590 C   0  0  0  0  0  0  0  0  0  0  0  0
    2.1138    0.8356    5.2499 C   0  0  2  0  0  0  0  0  0  0  0  0
    0.7355    1.5902    4.8664 C   0  0  1  0  0  0  0  0  0  0  0  0
   -0.1225    0.7658    3.8381 C   0  0  0  0  0  0  0  0  0  0  0  0
    1.0427    2.8872    3.9993 C   0  0  0  0  0  0  0  0  0  0  0  0
    1.6270    4.2618    4.5164 C   0  0  1  0  0  0  0  0  0  0  0  0
    2.1537    4.9939    3.2538 C   0  0  0  0  0  0  0  0  0  0  0  0
    0.5591    5.2350    5.1049 C   0  0  0  0  0  0  0  0  0  0  0  0
   -0.5143    5.4016    4.4602 O   0  0  0  0  0  0  0  0  0  0  0  0
    0.8300    5.8420    6.1795 O   0  0  0  0  0  0  0  0  0  0  0  0
    2.8305    4.0654    5.4531 C   0  0  0  0  0  0  0  0  0  0  0  0
    2.6399    3.0569    6.6127 C   0  0  0  0  0  0  0  0  0  0  0  0
    3.0552    1.5706    6.3459 C   0  0  2  0  0  0  0  0  0  0  0  0
    4.5460    1.7325    5.8606 C   0  0  0  0  0  0  0  0  0  0  0  0
    3.1634    0.7100    7.6747 C   0  0  1  0  0  0  0  0  0  0  0  0
    4.2175    1.1870    8.6780 C   0  0  0  0  0  0  0  0  0  0  0  0
   -2.3105    4.3587    7.2190 H   0  0  0  0  0  0  0  0  0  0  0  0
   -1.0039    3.4995    8.1557 H   0  0  0  0  0  0  0  0  0  0  0  0
   -2.7930    2.1012    4.6370 H   0  0  0  0  0  0  0  0  0  0  0  0
   -1.6947    3.3650    4.0448 H   0  0  0  0  0  0  0  0  0  0  0  0
   -2.9736    3.7799    5.1371 H   0  0  0  0  0  0  0  0  0  0  0  0
   -1.0158    0.8172    5.9410 H   0  0  0  0  0  0  0  0  0  0  0  0
    0.6463    1.9543    8.1572 H   0  0  0  0  0  0  0  0  0  0  0  0
   -0.8783    1.2443    8.1571 H   0  0  0  0  0  0  0  0  0  0  0  0
    0.1176   -0.3984    8.9388 H   0  0  0  0  0  0  0  0  0  0  0  0
    0.5691   -1.1933    6.3516 H   0  0  0  0  0  0  0  0  0  0  0  0
    2.2157   -0.5385    9.3710 H   0  0  0  0  0  0  0  0  0  0  0  0
    2.7745   -2.5870    6.4752 H   0  0  0  0  0  0  0  0  0  0  0  0
    4.8516   -0.9751    5.1637 H   0  0  0  0  0  0  0  0  0  0  0  0
    3.8774   -2.2062    4.5658 H   0  0  0  0  0  0  0  0  0  0  0  0
    3.7066    0.4959    3.7967 H   0  0  0  0  0  0  0  0  0  0  0  0
    1.8346   -0.0509    2.4255 H   0  0  0  0  0  0  0  0  0  0  0  0
    1.9151   -2.9624    3.3759 H   0  0  0  0  0  0  0  0  0  0  0  0
    0.6392   -2.0761    2.5498 H   0  0  0  0  0  0  0  0  0  0  0  0
    0.8851   -1.8893    4.2971 H   0  0  0  0  0  0  0  0  0  0  0  0
    4.3194   -1.6427    2.5644 H   0  0  0  0  0  0  0  0  0  0  0  0
    3.0435   -2.1638    1.4963 H   0  0  0  0  0  0  0  0  0  0  0  0
    3.2475    0.1754    0.4939 H   0  0  0  0  0  0  0  0  0  0  0  0
    4.6006    0.4387    1.5922 H   0  0  0  0  0  0  0  0  0  0  0  0
    5.2837   -0.2551   -0.7213 H   0  0  0  0  0  0  0  0  0  0  0  0
    5.9430   -3.4684   -1.7533 H   0  0  0  0  0  0  0  0  0  0  0  0
    7.3591   -2.9969   -0.8045 H   0  0  0  0  0  0  0  0  0  0  0  0
    6.5969   -1.8310   -1.9129 H   0  0  0  0  0  0  0  0  0  0  0  0
    4.6105   -4.1635    0.3956 H   0  0  0  0  0  0  0  0  0  0  0  0
    4.7812   -3.2023    1.8900 H   0  0  0  0  0  0  0  0  0  0  0  0
    6.2022   -3.9012    1.1333 H   0  0  0  0  0  0  0  0  0  0  0  0
    1.5705    0.0337    5.7276 H   0  0  0  0  0  0  0  0  0  0  0  0
    0.1890    0.8590    2.8119 H   0  0  0  0  0  0  0  0  0  0  0  0
   -1.1517    1.1041    3.7573 H   0  0  0  0  0  0  0  0  0  0  0  0
   -0.2378   -0.2851    4.1344 H   0  0  0  0  0  0  0  0  0  0  0  0
    1.7460    2.5316    3.2297 H   0  0  0  0  0  0  0  0  0  0  0  0
    0.1842    3.1403    3.3838 H   0  0  0  0  0  0  0  0  0  0  0  0
    2.9448    4.4372    2.7534 H   0  0  0  0  0  0  0  0  0  0  0  0
    2.5618    5.9751    3.5030 H   0  0  0  0  0  0  0  0  0  0  0  0
    1.3778    5.1591    2.5074 H   0  0  0  0  0  0  0  0  0  0  0  0
    3.7188    3.8676    4.8578 H   0  0  0  0  0  0  0  0  0  0  0  0
    3.0789    5.0258    5.8978 H   0  0  0  0  0  0  0  0  0  0  0  0
    3.2344    3.4450    7.4353 H   0  0  0  0  0  0  0  0  0  0  0  0
    1.6225    3.2027    6.9566 H   0  0  0  0  0  0  0  0  0  0  0  0
    5.0635    2.5205    6.4187 H   0  0  0  0  0  0  0  0  0  0  0  0
    4.6439    2.0101    4.8116 H   0  0  0  0  0  0  0  0  0  0  0  0
    5.1518    0.8557    6.0215 H   0  0  0  0  0  0  0  0  0  0  0  0
    3.9880    2.1913    9.0378 H   0  0  0  0  0  0  0  0  0  0  0  0
    5.2291    1.1507    8.2759 H   0  0  0  0  0  0  0  0  0  0  0  0
    4.2053    0.5311    9.5408 H   0  0  0  0  0  0  0  0  0  0  0  0
  1  2  2  0
  1 36  1  0
  1 37  1  0
  2  3  1  0
  2  4  1  0
  3 38  1  0
  3 39  1  0
  3 40  1  0
  4 22  1  0
  4  5  1  0
  4 41  1  6
  5  6  1  0
  5 42  1  0
  5 43  1  0
  6  7  1  0
  6  8  1  0
  6 44  1  1
  7 45  1  0
  8 34  1  0
  8  9  1  0
  8 46  1  1
  9 34  1  0
  9 10  2  0
 10 11  1  0
 10 47  1  0
 11 12  1  0
 11 48  1  0
 11 49  1  0
 12 13  1  0
 12 21  1  0
 12 50  1  6
 13 14  1  0
 13 15  1  0
 13 51  1  6
 14 52  1  0
 14 53  1  0
 14 54  1  0
 15 16  1  0
 15 55  1  0
 15 56  1  0
 16 17  1  0
 16 57  1  0
 16 58  1  0
 17 18  2  3
 17 59  1  0
 18 19  1  0
 18 20  1  0
 19 60  1  0
 19 61  1  0
 19 62  1  0
 20 63  1  0
 20 64  1  0
 20 65  1  0
 21 32  1  0
 21 22  1  0
 21 66  1  1
 22 23  1  6
 22 24  1  0
 23 67  1  0
 23 68  1  0
 23 69  1  0
 24 25  1  0
 24 70  1  0
 24 71  1  0
 25 26  1  6
 25 27  1  0
 25 30  1  0
 26 72  1  0
 26 73  1  0
 26 74  1  0
 27 28  2  0
 27 29  1  0
 30 31  1  0
 30 75  1  0
 30 76  1  0
 31 32  1  0
 31 77  1  0
 31 78  1  0
 32 33  1  6
 32 34  1  0
 33 79  1  0
 33 80  1  0
 33 81  1  0
 34 35  1  1
 35 82  1  0
 35 83  1  0
 35 84  1  0
M  CHG  1  29  -1
M  END
>  <i_m_ct_stereo_status>  (229) 
1

>  <s_m_source_file>  (229) 
/var/tmp/pbs.5076255.sched01/tmpq3cms3f1/82_sdm1vz9.sdf

>  <i_m_source_file_index>  (229) 
12

>  <i_lp_mmshare_version>  (229) 
48012

>  <i_f3d_flags>  (229) 
0

>  <s_epik_input>  (229) 
Tz1DKFtPSF0pW0NAQF0oW0NIMl0xKShbQ0gzXSlbQ0gyXVtDSDJdW0NAXShbQ0gzXSkoW0NASF0yW0NAXTEzW0NIM10pQzQoW0NIM10pW0NIXShbQ0BIXShbT0hdKVtDSDJdW0NASF0zQyg9W0NIMl0pW0NIM10pQzQ9W0NIXVtDSDJdW0NASF0yW0NASF0oW0NIM10pW0NIMl1bQ0gyXVtDSF09QyhbQ0gzXSlbQ0gzXQ==

>  <s_epik_cmdline>  (229) 
J2VwaWtfcHl0aG9uJywgJy1waHQnLCAnMi4wJywgJy1waCcsICc3LjAnLCAnLXRuJywgJzgnLCAnLW1hJywgJzIwMCcsICctaW1hZScsICc8aW5maWxlLm1hZT4nLCAnLW9tYWUnLCAnPG91dGZpbGUubWFlPic=

>  <r_epik_Ionization_Penalty>  (229) 
0.00584908

>  <r_epik_Ionization_Penalty_Charging>  (229) 
0.00584785

>  <r_epik_Ionization_Penalty_Neutral>  (229) 
1.23081e-06

>  <r_epik_State_Penalty>  (229) 
0.00429702

>  <r_epik_Charging_Adjusted_Penalty>  (229) 
0.0101449

>  <i_epik_Tot_Q>  (229) 
-1

>  <i_epik_Tot_abs_Q>  (229) 
1

>  <s_lp_Force_Field>  (229) 
OPLS3e

>  <r_lp_Energy>  (229) 
147.6

>  <b_lp_Chiralities_Consistent>  (229) 
1

>  <s_lp_Variant>  (229) 
67:0-2

>  <s_i_glide_gridfile>  (229) 
pfpi4k_grid

>  <i_i_glide_lignum>  (229) 
12

>  <i_i_glide_rotatable_bonds>  (229) 
7

>  <r_i_docking_score>  (229) 
-1.49107

>  <r_i_glide_ligand_efficiency>  (229) 
-0.042602

>  <r_i_glide_ligand_efficiency_sa>  (229) 
-0.139354

>  <r_i_glide_ligand_efficiency_ln>  (229) 
-0.327323

>  <r_i_glide_gscore>  (229) 
-1.49107

>  <r_i_glide_lipo>  (229) 
-0.249864

>  <r_i_glide_hbond>  (229) 
-0.0418835

>  <r_i_glide_metal>  (229) 
-0

>  <r_i_glide_rewards>  (229) 
-0.12457

>  <r_i_glide_evdw>  (229) 
-19.4802

>  <r_i_glide_ecoul>  (229) 
-3.41618

>  <r_i_glide_erotb>  (229) 
0.437131

>  <r_i_glide_esite>  (229) 
-0.0254467

>  <r_i_glide_emodel>  (229) 
-21.9652

>  <r_i_glide_energy>  (229) 
-22.8964

>  <r_i_glide_einternal>  (229) 
3.35959

>  <r_i_glide_intrahb_reward>  (229) 
-0

>  <i_i_glide_confnum>  (229) 
1

>  <i_i_glide_posenum>  (229) 
27

>  <r_i_glide_eff_state_penalty>  (229) 
0

>  <ligand_id>  (229) 
67

>  <original_smiles>  (229) 
C=C(C)C1CC(O)C2C3=CCC(C(C)CCC=C(C)C)C4C1(C)CC(C)(C(=O)O)CCC4(C)C32C

>  <smiles>  (229) 
[H]OC1([H])C([H])([H])C([H])(C(=C([H])[H])C([H])([H])[H])C2(C([H])([H])[H])C([H])([H])C(C(=O)[O-])(C([H])([H])[H])C([H])([H])C([H])([H])C3(C([H])([H])[H])C2([H])C([H])(C([H])(C([H])([H])[H])C([H])([H])C([H])([H])C([H])=C(C([H])([H])[H])C([H])([H])[H])C([H])([H])C([H])=C2C1([H])C23C([H])([H])[H]

$$$$
67:1:2
     RDKit          3D

 84 87  0  0  1  0  0  0  0  0999 V2000
   -1.4828    3.7282    7.3594 C   0  0  0  0  0  0  0  0  0  0  0  0
   -1.3780    2.8682    6.3252 C   0  0  0  0  0  0  0  0  0  0  0  0
   -2.3224    3.0342    5.1339 C   0  0  0  0  0  0  0  0  0  0  0  0
   -0.3946    1.6676    6.3261 C   0  0  2  0  0  0  0  0  0  0  0  0
    0.0167    1.2983    7.8168 C   0  0  0  0  0  0  0  0  0  0  0  0
    0.4849   -0.1104    8.2422 C   0  0  1  0  0  0  0  0  0  0  0  0
   -0.0731   -1.1724    7.4986 O   0  0  0  0  0  0  0  0  0  0  0  0
    1.9757   -0.2192    8.5640 C   0  0  1  0  0  0  0  0  0  0  0  0
    2.9496   -0.8130    7.6303 C   0  0  0  0  0  0  0  0  0  0  0  0
    3.0528   -1.7780    6.7034 C   0  0  0  0  0  0  0  0  0  0  0  0
    3.5547   -1.4845    5.3077 C   0  0  0  0  0  0  0  0  0  0  0  0
    2.7567   -0.3913    4.4810 C   0  0  1  0  0  0  0  0  0  0  0  0
    2.1078   -1.1337    3.2663 C   0  0  2  0  0  0  0  0  0  0  0  0
    1.0581   -2.1912    3.6739 C   0  0  0  0  0  0  0  0  0  0  0  0
    3.1367   -1.7995    2.2895 C   0  0  0  0  0  0  0  0  0  0  0  0
    3.9994   -0.8186    1.4715 C   0  0  0  0  0  0  0  0  0  0  0  0
    5.0638   -1.5401    0.6603 C   0  0  0  0  0  0  0  0  0  0  0  0
    5.0568   -1.7891   -0.6656 C   0  0  0  0  0  0  0  0  0  0  0  0
    6.2206   -2.4893   -1.3416 C   0  0  0  0  0  0  0  0  0  0  0  0
    3.9194   -1.4129   -1.5979 C   0  0  0  0  0  0  0  0  0  0  0  0
    1.9631    0.6836    5.4203 C   0  0  2  0  0  0  0  0  0  0  0  0
    0.6145    1.4998    5.0447 C   0  0  1  0  0  0  0  0  0  0  0  0
   -0.3082    0.6689    4.0935 C   0  0  0  0  0  0  0  0  0  0  0  0
    0.9626    2.7594    4.1166 C   0  0  0  0  0  0  0  0  0  0  0  0
    1.6373    4.1145    4.5390 C   0  0  1  0  0  0  0  0  0  0  0  0
    2.1619    4.7585    3.2351 C   0  0  0  0  0  0  0  0  0  0  0  0
    0.6746    5.2170    5.1079 C   0  0  0  0  0  0  0  0  0  0  0  0
   -0.4625    5.3289    4.5835 O   0  0  0  0  0  0  0  0  0  0  0  0
    1.0860    5.9343    6.0328 O   0  0  0  0  0  0  0  0  0  0  0  0
    2.8620    3.8918    5.4525 C   0  0  0  0  0  0  0  0  0  0  0  0
    2.6514    2.9503    6.6603 C   0  0  0  0  0  0  0  0  0  0  0  0
    2.9838    1.4286    6.4431 C   0  0  2  0  0  0  0  0  0  0  0  0
    4.4647    1.5006    5.9180 C   0  0  0  0  0  0  0  0  0  0  0  0
    3.0857    0.6367    7.8126 C   0  0  1  0  0  0  0  0  0  0  0  0
    4.1977    1.1105    8.7600 C   0  0  0  0  0  0  0  0  0  0  0  0
   -2.2017    4.5362    7.3317 H   0  0  0  0  0  0  0  0  0  0  0  0
   -0.8871    3.6740    8.2630 H   0  0  0  0  0  0  0  0  0  0  0  0
   -2.9469    2.1484    4.9829 H   0  0  0  0  0  0  0  0  0  0  0  0
   -1.7937    3.2971    4.2173 H   0  0  0  0  0  0  0  0  0  0  0  0
   -2.9970    3.8584    5.3343 H   0  0  0  0  0  0  0  0  0  0  0  0
   -1.1258    0.8659    6.2126 H   0  0  0  0  0  0  0  0  0  0  0  0
    0.6533    2.0187    8.3173 H   0  0  0  0  0  0  0  0  0  0  0  0
   -0.9041    1.3900    8.3958 H   0  0  0  0  0  0  0  0  0  0  0  0
    0.0356   -0.2612    9.2240 H   0  0  0  0  0  0  0  0  0  0  0  0
    0.3591   -1.1939    6.6522 H   0  0  0  0  0  0  0  0  0  0  0  0
    2.1268   -0.4581    9.6220 H   0  0  0  0  0  0  0  0  0  0  0  0
    2.4734   -2.6811    6.8074 H   0  0  0  0  0  0  0  0  0  0  0  0
    4.6096   -1.2449    5.3546 H   0  0  0  0  0  0  0  0  0  0  0  0
    3.5426   -2.4624    4.8392 H   0  0  0  0  0  0  0  0  0  0  0  0
    3.4936    0.2124    3.9654 H   0  0  0  0  0  0  0  0  0  0  0  0
    1.6444   -0.3778    2.6488 H   0  0  0  0  0  0  0  0  0  0  0  0
    1.4929   -3.1945    3.7110 H   0  0  0  0  0  0  0  0  0  0  0  0
    0.2627   -2.2192    2.9321 H   0  0  0  0  0  0  0  0  0  0  0  0
    0.6008   -1.9717    4.6369 H   0  0  0  0  0  0  0  0  0  0  0  0
    3.7996   -2.4974    2.8026 H   0  0  0  0  0  0  0  0  0  0  0  0
    2.5801   -2.4153    1.5781 H   0  0  0  0  0  0  0  0  0  0  0  0
    3.3646   -0.1871    0.8468 H   0  0  0  0  0  0  0  0  0  0  0  0
    4.5479   -0.1407    2.1234 H   0  0  0  0  0  0  0  0  0  0  0  0
    5.9104   -1.8824    1.2403 H   0  0  0  0  0  0  0  0  0  0  0  0
    6.6417   -1.8573   -2.1196 H   0  0  0  0  0  0  0  0  0  0  0  0
    5.8856   -3.4130   -1.8147 H   0  0  0  0  0  0  0  0  0  0  0  0
    7.0132   -2.7323   -0.6318 H   0  0  0  0  0  0  0  0  0  0  0  0
    4.2293   -0.6100   -2.2663 H   0  0  0  0  0  0  0  0  0  0  0  0
    3.0201   -1.0930   -1.0728 H   0  0  0  0  0  0  0  0  0  0  0  0
    3.6385   -2.2746   -2.2038 H   0  0  0  0  0  0  0  0  0  0  0  0
    1.4030   -0.0467    5.9613 H   0  0  0  0  0  0  0  0  0  0  0  0
    0.0184    0.6704    3.0639 H   0  0  0  0  0  0  0  0  0  0  0  0
   -1.2867    1.1340    3.9692 H   0  0  0  0  0  0  0  0  0  0  0  0
   -0.5032   -0.3377    4.4579 H   0  0  0  0  0  0  0  0  0  0  0  0
    1.6385    2.3280    3.3713 H   0  0  0  0  0  0  0  0  0  0  0  0
    0.1031    3.0277    3.5165 H   0  0  0  0  0  0  0  0  0  0  0  0
    2.8988    4.1222    2.7430 H   0  0  0  0  0  0  0  0  0  0  0  0
    2.6386    5.7185    3.4292 H   0  0  0  0  0  0  0  0  0  0  0  0
    1.3650    4.9237    2.5147 H   0  0  0  0  0  0  0  0  0  0  0  0
    3.7131    3.6129    4.8359 H   0  0  0  0  0  0  0  0  0  0  0  0
    3.1971    4.8451    5.8524 H   0  0  0  0  0  0  0  0  0  0  0  0
    3.2922    3.3432    7.4458 H   0  0  0  0  0  0  0  0  0  0  0  0
    1.6570    3.1601    7.0268 H   0  0  0  0  0  0  0  0  0  0  0  0
    5.0378    2.2809    6.4216 H   0  0  0  0  0  0  0  0  0  0  0  0
    4.5573    1.7221    4.8573 H   0  0  0  0  0  0  0  0  0  0  0  0
    5.0384    0.6009    6.1037 H   0  0  0  0  0  0  0  0  0  0  0  0
    4.0294    2.1394    9.0765 H   0  0  0  0  0  0  0  0  0  0  0  0
    5.1965    1.0041    8.3338 H   0  0  0  0  0  0  0  0  0  0  0  0
    4.1867    0.4936    9.6626 H   0  0  0  0  0  0  0  0  0  0  0  0
  1  2  2  0
  1 36  1  0
  1 37  1  0
  2  3  1  0
  2  4  1  0
  3 38  1  0
  3 39  1  0
  3 40  1  0
  4 22  1  0
  4  5  1  0
  4 41  1  6
  5  6  1  0
  5 42  1  0
  5 43  1  0
  6  7  1  0
  6  8  1  0
  6 44  1  1
  7 45  1  0
  8 34  1  0
  8  9  1  0
  8 46  1  1
  9 34  1  0
  9 10  2  0
 10 11  1  0
 10 47  1  0
 11 12  1  0
 11 48  1  0
 11 49  1  0
 12 13  1  0
 12 21  1  0
 12 50  1  6
 13 14  1  0
 13 15  1  0
 13 51  1  6
 14 52  1  0
 14 53  1  0
 14 54  1  0
 15 16  1  0
 15 55  1  0
 15 56  1  0
 16 17  1  0
 16 57  1  0
 16 58  1  0
 17 18  2  3
 17 59  1  0
 18 19  1  0
 18 20  1  0
 19 60  1  0
 19 61  1  0
 19 62  1  0
 20 63  1  0
 20 64  1  0
 20 65  1  0
 21 32  1  0
 21 22  1  0
 21 66  1  1
 22 23  1  6
 22 24  1  0
 23 67  1  0
 23 68  1  0
 23 69  1  0
 24 25  1  0
 24 70  1  0
 24 71  1  0
 25 26  1  6
 25 27  1  0
 25 30  1  0
 26 72  1  0
 26 73  1  0
 26 74  1  0
 27 28  2  0
 27 29  1  0
 30 31  1  0
 30 75  1  0
 30 76  1  0
 31 32  1  0
 31 77  1  0
 31 78  1  0
 32 33  1  6
 32 34  1  0
 33 79  1  0
 33 80  1  0
 33 81  1  0
 34 35  1  1
 35 82  1  0
 35 83  1  0
 35 84  1  0
M  CHG  1  29  -1
M  END
>  <i_m_ct_stereo_status>  (230) 
1

>  <s_m_source_file>  (230) 
/var/tmp/pbs.5076255.sched01/tmpq3cms3f1/82_sdm1vz9.sdf

>  <i_m_source_file_index>  (230) 
12

>  <i_lp_mmshare_version>  (230) 
48012

>  <i_f3d_flags>  (230) 
0

>  <s_epik_input>  (230) 
Tz1DKFtPSF0pW0NAQF0oW0NIMl0xKShbQ0gzXSlbQ0gyXVtDSDJdW0NAXShbQ0gzXSkoW0NASF0yW0NAXTEzW0NIM10pQzQoW0NIM10pW0NIXShbQ0BIXShbT0hdKVtDSDJdW0NASF0zQyg9W0NIMl0pW0NIM10pQzQ9W0NIXVtDSDJdW0NASF0yW0NASF0oW0NIM10pW0NIMl1bQ0gyXVtDSF09QyhbQ0gzXSlbQ0gzXQ==

>  <s_epik_cmdline>  (230) 
J2VwaWtfcHl0aG9uJywgJy1waHQnLCAnMi4wJywgJy1waCcsICc3LjAnLCAnLXRuJywgJzgnLCAnLW1hJywgJzIwMCcsICctaW1hZScsICc8aW5maWxlLm1hZT4nLCAnLW9tYWUnLCAnPG91dGZpbGUubWFlPic=

>  <r_epik_Ionization_Penalty>  (230) 
0.00584908

>  <r_epik_Ionization_Penalty_Charging>  (230) 
0.00584785

>  <r_epik_Ionization_Penalty_Neutral>  (230) 
1.23081e-06

>  <r_epik_State_Penalty>  (230) 
0.00429702

>  <r_epik_Charging_Adjusted_Penalty>  (230) 
0.0101449

>  <i_epik_Tot_Q>  (230) 
-1

>  <i_epik_Tot_abs_Q>  (230) 
1

>  <s_lp_Force_Field>  (230) 
OPLS3e

>  <r_lp_Energy>  (230) 
147.6

>  <b_lp_Chiralities_Consistent>  (230) 
1

>  <s_lp_Variant>  (230) 
67:0-2

>  <s_i_glide_gridfile>  (230) 
pfpi4k_grid

>  <i_i_glide_lignum>  (230) 
12

>  <i_i_glide_rotatable_bonds>  (230) 
7

>  <r_i_docking_score>  (230) 
-1.43126

>  <r_i_glide_ligand_efficiency>  (230) 
-0.0408932

>  <r_i_glide_ligand_efficiency_sa>  (230) 
-0.133764

>  <r_i_glide_ligand_efficiency_ln>  (230) 
-0.314194

>  <r_i_glide_gscore>  (230) 
-1.43126

>  <r_i_glide_lipo>  (230) 
-0.191507

>  <r_i_glide_hbond>  (230) 
-0.0304644

>  <r_i_glide_metal>  (230) 
-0

>  <r_i_glide_rewards>  (230) 
-0.12457

>  <r_i_glide_evdw>  (230) 
-18.4018

>  <r_i_glide_ecoul>  (230) 
-3.86146

>  <r_i_glide_erotb>  (230) 
0.437131

>  <r_i_glide_esite>  (230) 
-0.0225415

>  <r_i_glide_emodel>  (230) 
-22.5749

>  <r_i_glide_energy>  (230) 
-22.2633

>  <r_i_glide_einternal>  (230) 
2.58281

>  <r_i_glide_intrahb_reward>  (230) 
-0

>  <i_i_glide_confnum>  (230) 
2

>  <i_i_glide_posenum>  (230) 
20

>  <r_i_glide_eff_state_penalty>  (230) 
0

>  <ligand_id>  (230) 
67

>  <original_smiles>  (230) 
C=C(C)C1CC(O)C2C3=CCC(C(C)CCC=C(C)C)C4C1(C)CC(C)(C(=O)O)CCC4(C)C32C

>  <smiles>  (230) 
[H]OC1([H])C([H])([H])C([H])(C(=C([H])[H])C([H])([H])[H])C2(C([H])([H])[H])C([H])([H])C(C(=O)[O-])(C([H])([H])[H])C([H])([H])C([H])([H])C3(C([H])([H])[H])C2([H])C([H])(C([H])(C([H])([H])[H])C([H])([H])C([H])([H])C([H])=C(C([H])([H])[H])C([H])([H])[H])C([H])([H])C([H])=C2C1([H])C23C([H])([H])[H]

$$$$
68:0:0
     RDKit          3D

 85 89  0  0  1  0  0  0  0  0999 V2000
    5.4981   -9.5155    0.8868 C   0  0  0  0  0  0  0  0  0  0  0  0
    4.3542   -8.8145    0.8929 C   0  0  0  0  0  0  0  0  0  0  0  0
    4.3802   -7.3429    0.8940 C   0  0  0  0  0  0  0  0  0  0  0  0
    5.3861   -6.6652    0.6418 O   0  0  0  0  0  0  0  0  0  0  0  0
    3.1918   -6.8224    1.2619 O   0  0  0  0  0  0  0  0  0  0  0  0
    3.0316   -5.4762    1.7378 C   0  0  2  0  0  0  0  0  0  0  0  0
    3.6063   -4.4256    0.7726 C   0  0  0  0  0  0  0  0  0  0  0  0
    3.3091   -2.9844    1.2268 C   0  0  0  0  0  0  0  0  0  0  0  0
    3.7753   -2.6649    2.6776 C   0  0  1  0  0  0  0  0  0  0  0  0
    5.3329   -2.6247    2.7285 C   0  0  0  0  0  0  0  0  0  0  0  0
    3.1622   -1.2720    3.1015 C   0  0  2  0  0  0  0  0  0  0  0  0
    3.4451   -0.1020    2.1223 C   0  0  0  0  0  0  0  0  0  0  0  0
    2.7064    1.1941    2.4851 C   0  0  0  0  0  0  0  0  0  0  0  0
    2.9803    1.6260    3.9394 C   0  0  2  0  0  0  0  0  0  0  0  0
    2.5430    0.4485    4.8280 C   0  0  0  0  0  0  0  0  0  0  0  0
    1.4834    0.5748    5.6531 C   0  0  0  0  0  0  0  0  0  0  0  0
    0.6120    1.8047    5.7815 C   0  0  0  0  0  0  0  0  0  0  0  0
    0.8997    2.9026    4.7228 C   0  0  1  0  0  0  0  0  0  0  0  0
    0.0985    4.2482    4.9553 C   0  0  0  0  0  0  0  0  0  0  0  0
   -1.4065    3.9289    4.8539 C   0  0  0  0  0  0  0  0  0  0  0  0
    0.3553    4.9305    6.3287 C   0  0  0  0  0  0  0  0  0  0  0  0
    0.4339    5.2564    3.8122 C   0  0  1  0  0  0  0  0  0  0  0  0
   -0.1860    6.5233    4.0293 O   0  0  0  0  0  0  0  0  0  0  0  0
    1.9469    5.4501    3.6061 C   0  0  0  0  0  0  0  0  0  0  0  0
    2.6269    4.1099    3.3087 C   0  0  0  0  0  0  0  0  0  0  0  0
    2.4239    3.0271    4.4111 C   0  0  2  0  0  0  0  0  0  0  0  0
    3.2536    3.4351    5.6623 C   0  0  0  0  0  0  0  0  0  0  0  0
    3.3487   -0.8578    4.6108 C   0  0  2  0  0  0  0  0  0  0  0  0
    4.8167   -0.5730    5.0305 C   0  0  0  0  0  0  0  0  0  0  0  0
    2.8133   -2.0313    5.4789 C   0  0  0  0  0  0  0  0  0  0  0  0
    3.3865   -3.4124    5.1170 C   0  0  0  0  0  0  0  0  0  0  0  0
    3.1542   -3.7638    3.6229 C   0  0  2  0  0  0  0  0  0  0  0  0
    3.4418   -5.2697    3.2397 C   0  0  0  0  0  0  0  0  0  0  0  0
    2.5334   -6.1883    4.0969 C   0  0  0  0  0  0  0  0  0  0  0  0
    4.9070   -5.6785    3.5017 C   0  0  0  0  0  0  0  0  0  0  0  0
    6.4570   -9.0105    0.8690 H   0  0  0  0  0  0  0  0  0  0  0  0
    5.5191  -10.6002    0.8918 H   0  0  0  0  0  0  0  0  0  0  0  0
    3.4080   -9.3453    0.9059 H   0  0  0  0  0  0  0  0  0  0  0  0
    1.9617   -5.3326    1.7064 H   0  0  0  0  0  0  0  0  0  0  0  0
    4.6829   -4.5482    0.6684 H   0  0  0  0  0  0  0  0  0  0  0  0
    3.1803   -4.5721   -0.2181 H   0  0  0  0  0  0  0  0  0  0  0  0
    3.8238   -2.3285    0.5281 H   0  0  0  0  0  0  0  0  0  0  0  0
    2.2415   -2.7699    1.1211 H   0  0  0  0  0  0  0  0  0  0  0  0
    5.7304   -2.9850    3.6738 H   0  0  0  0  0  0  0  0  0  0  0  0
    5.7425   -1.6257    2.5818 H   0  0  0  0  0  0  0  0  0  0  0  0
    5.8048   -3.2348    1.9616 H   0  0  0  0  0  0  0  0  0  0  0  0
    2.0869   -1.4140    2.9991 H   0  0  0  0  0  0  0  0  0  0  0  0
    4.5153    0.0980    2.0489 H   0  0  0  0  0  0  0  0  0  0  0  0
    3.1192   -0.3658    1.1186 H   0  0  0  0  0  0  0  0  0  0  0  0
    3.0637    1.9456    1.7859 H   0  0  0  0  0  0  0  0  0  0  0  0
    1.6348    1.0884    2.3019 H   0  0  0  0  0  0  0  0  0  0  0  0
    4.0595    1.7146    4.0133 H   0  0  0  0  0  0  0  0  0  0  0  0
    1.1656   -0.2469    6.2793 H   0  0  0  0  0  0  0  0  0  0  0  0
   -0.4171    1.4706    5.6770 H   0  0  0  0  0  0  0  0  0  0  0  0
    0.7342    2.1673    6.7980 H   0  0  0  0  0  0  0  0  0  0  0  0
    0.4810    2.5088    3.7965 H   0  0  0  0  0  0  0  0  0  0  0  0
   -2.0019    4.8395    4.8807 H   0  0  0  0  0  0  0  0  0  0  0  0
   -1.7472    3.3057    5.6827 H   0  0  0  0  0  0  0  0  0  0  0  0
   -1.6474    3.4227    3.9215 H   0  0  0  0  0  0  0  0  0  0  0  0
   -0.4125    5.6819    6.5416 H   0  0  0  0  0  0  0  0  0  0  0  0
    1.2949    5.4669    6.3686 H   0  0  0  0  0  0  0  0  0  0  0  0
    0.3335    4.2308    7.1623 H   0  0  0  0  0  0  0  0  0  0  0  0
    0.0323    4.8518    2.8766 H   0  0  0  0  0  0  0  0  0  0  0  0
    0.0662    7.1115    3.3099 H   0  0  0  0  0  0  0  0  0  0  0  0
    2.1158    6.1135    2.7595 H   0  0  0  0  0  0  0  0  0  0  0  0
    2.4086    5.9466    4.4601 H   0  0  0  0  0  0  0  0  0  0  0  0
    2.1936    3.7750    2.3671 H   0  0  0  0  0  0  0  0  0  0  0  0
    3.6917    4.2593    3.1210 H   0  0  0  0  0  0  0  0  0  0  0  0
    3.0929    4.4610    5.9758 H   0  0  0  0  0  0  0  0  0  0  0  0
    4.3255    3.3601    5.4688 H   0  0  0  0  0  0  0  0  0  0  0  0
    3.0451    2.8010    6.5243 H   0  0  0  0  0  0  0  0  0  0  0  0
    5.3888   -1.4760    5.2300 H   0  0  0  0  0  0  0  0  0  0  0  0
    4.8440    0.0036    5.9546 H   0  0  0  0  0  0  0  0  0  0  0  0
    5.3709   -0.0071    4.2818 H   0  0  0  0  0  0  0  0  0  0  0  0
    3.0025   -1.8299    6.5346 H   0  0  0  0  0  0  0  0  0  0  0  0
    1.7324   -2.1109    5.3600 H   0  0  0  0  0  0  0  0  0  0  0  0
    4.4360   -3.4824    5.3937 H   0  0  0  0  0  0  0  0  0  0  0  0
    2.8745   -4.1370    5.7545 H   0  0  0  0  0  0  0  0  0  0  0  0
    2.0806   -3.6608    3.4955 H   0  0  0  0  0  0  0  0  0  0  0  0
    2.8614   -6.2265    5.1388 H   0  0  0  0  0  0  0  0  0  0  0  0
    2.5543   -7.2205    3.7416 H   0  0  0  0  0  0  0  0  0  0  0  0
    1.4925   -5.8660    4.0894 H   0  0  0  0  0  0  0  0  0  0  0  0
    5.2733   -5.3739    4.4940 H   0  0  0  0  0  0  0  0  0  0  0  0
    5.5700   -5.2631    2.7571 H   0  0  0  0  0  0  0  0  0  0  0  0
    5.0182   -6.7625    3.4610 H   0  0  0  0  0  0  0  0  0  0  0  0
  1  2  2  0
  1 36  1  0
  1 37  1  0
  2  3  1  0
  2 38  1  0
  3  4  2  0
  3  5  1  0
  5  6  1  0
  6 33  1  0
  6  7  1  0
  6 39  1  1
  7  8  1  0
  7 40  1  0
  7 41  1  0
  8  9  1  0
  8 42  1  0
  8 43  1  0
  9 32  1  0
  9 10  1  6
  9 11  1  0
 10 44  1  0
 10 45  1  0
 10 46  1  0
 11 28  1  0
 11 12  1  0
 11 47  1  1
 12 13  1  0
 12 48  1  0
 12 49  1  0
 13 14  1  0
 13 50  1  0
 13 51  1  0
 14 26  1  0
 14 15  1  0
 14 52  1  6
 15 16  2  0
 15 28  1  0
 16 17  1  0
 16 53  1  0
 17 18  1  0
 17 54  1  0
 17 55  1  0
 18 26  1  0
 18 19  1  0
 18 56  1  6
 19 20  1  0
 19 21  1  0
 19 22  1  0
 20 57  1  0
 20 58  1  0
 20 59  1  0
 21 60  1  0
 21 61  1  0
 21 62  1  0
 22 23  1  0
 22 24  1  0
 22 63  1  6
 23 64  1  0
 24 25  1  0
 24 65  1  0
 24 66  1  0
 25 26  1  0
 25 67  1  0
 25 68  1  0
 26 27  1  1
 27 69  1  0
 27 70  1  0
 27 71  1  0
 28 29  1  1
 28 30  1  0
 29 72  1  0
 29 73  1  0
 29 74  1  0
 30 31  1  0
 30 75  1  0
 30 76  1  0
 31 32  1  0
 31 77  1  0
 31 78  1  0
 32 33  1  0
 32 79  1  1
 33 34  1  0
 33 35  1  0
 34 80  1  0
 34 81  1  0
 34 82  1  0
 35 83  1  0
 35 84  1  0
 35 85  1  0
M  END
>  <i_m_ct_stereo_status>  (231) 
1

>  <s_m_source_file>  (231) 
/var/tmp/pbs.5076255.sched01/tmpq3cms3f1/82_sdm1vz9.sdf

>  <i_m_source_file_index>  (231) 
15

>  <i_lp_mmshare_version>  (231) 
48012

>  <i_f3d_flags>  (231) 
0

>  <s_epik_input>  (231) 
W0NIMl09W0NIXUMoPU8pT1tDQEhdKFtDSDJdW0NIMl0xKUMoW0NIM10pKFtDSDNdKVtDQEhdMltDSDJdW0NIMl1bQ0BAXShbQ0gzXSkoW0NAQEhdM1tDQF0xMltDSDNdKUM9NFtDQEBIXShbQ0gyXVtDSDJdMylbQ0BdNShbQ0gzXSlbQ0BASF0oW0NIMl1bQ0hdNClDKFtDSDNdKShbQ0gzXSlbQ0BASF0oW09IXSlbQ0gyXVtDSDJdNQ==

>  <s_epik_cmdline>  (231) 
J2VwaWtfcHl0aG9uJywgJy1waHQnLCAnMi4wJywgJy1waCcsICc3LjAnLCAnLXRuJywgJzgnLCAnLW1hJywgJzIwMCcsICctaW1hZScsICc8aW5maWxlLm1hZT4nLCAnLW9tYWUnLCAnPG91dGZpbGUubWFlPic=

>  <r_lp_tautomer_probability>  (231) 
1

>  <r_epik_Ionization_Penalty>  (231) 
2.5694e-06

>  <r_epik_Ionization_Penalty_Charging>  (231) 
0

>  <r_epik_Ionization_Penalty_Neutral>  (231) 
2.5694e-06

>  <r_epik_State_Penalty>  (231) 
-0

>  <r_epik_Charging_Adjusted_Penalty>  (231) 
0

>  <i_epik_Tot_Q>  (231) 
0

>  <i_epik_Tot_abs_Q>  (231) 
0

>  <s_epik_Chemistry_Notes>  (231) 
This compound has an ester and may undergo hydrolysis at high or low pH.

>  <s_lp_Force_Field>  (231) 
OPLS3e

>  <r_lp_Energy>  (231) 
81.5084

>  <b_lp_Chiralities_Consistent>  (231) 
1

>  <s_lp_Variant>  (231) 
68:0-1

>  <s_i_glide_gridfile>  (231) 
pfpi4k_grid

>  <i_i_glide_lignum>  (231) 
15

>  <i_i_glide_rotatable_bonds>  (231) 
4

>  <r_i_docking_score>  (231) 
-2.71901

>  <r_i_glide_ligand_efficiency>  (231) 
-0.077686

>  <r_i_glide_ligand_efficiency_sa>  (231) 
-0.254116

>  <r_i_glide_ligand_efficiency_ln>  (231) 
-0.596883

>  <r_i_glide_gscore>  (231) 
-2.71901

>  <r_i_glide_lipo>  (231) 
-0.1029

>  <r_i_glide_hbond>  (231) 
-0.175744

>  <r_i_glide_metal>  (231) 
-0

>  <r_i_glide_rewards>  (231) 
-0.278771

>  <r_i_glide_evdw>  (231) 
-25.4421

>  <r_i_glide_ecoul>  (231) 
-7.14924

>  <r_i_glide_erotb>  (231) 
0.182895

>  <r_i_glide_esite>  (231) 
0

>  <r_i_glide_emodel>  (231) 
-33.6828

>  <r_i_glide_energy>  (231) 
-32.5913

>  <r_i_glide_einternal>  (231) 
8.99025

>  <r_i_glide_intrahb_reward>  (231) 
-0

>  <i_i_glide_confnum>  (231) 
3

>  <i_i_glide_posenum>  (231) 
30

>  <r_i_glide_eff_state_penalty>  (231) 
0

>  <ligand_id>  (231) 
68

>  <original_smiles>  (231) 
C=CC(=O)OC1CCC2(C)C3CCC4C(=CCC5C(C)(C)C(O)CCC45C)C3(C)CCC2C1(C)C

>  <smiles>  (231) 
[H]OC1([H])C([H])([H])C([H])([H])C2(C([H])([H])[H])C3([H])C(=C([H])C([H])([H])C2([H])C1(C([H])([H])[H])C([H])([H])[H])C1(C([H])([H])[H])C([H])([H])C([H])([H])C2([H])C(C([H])([H])[H])(C([H])([H])[H])C([H])(OC(=O)C([H])=C([H])[H])C([H])([H])C([H])([H])C2(C([H])([H])[H])C1([H])C([H])([H])C3([H])[H]

$$$$
68:0:1
     RDKit          3D

 85 89  0  0  1  0  0  0  0  0999 V2000
    3.3621  -12.0125    2.8905 C   0  0  0  0  0  0  0  0  0  0  0  0
    2.3365  -11.1536    2.8539 C   0  0  0  0  0  0  0  0  0  0  0  0
    2.5883   -9.7119    2.9107 C   0  0  0  0  0  0  0  0  0  0  0  0
    3.7087   -9.1875    3.0874 O   0  0  0  0  0  0  0  0  0  0  0  0
    1.4612   -8.9945    2.7514 O   0  0  0  0  0  0  0  0  0  0  0  0
    1.3486   -7.5957    3.0563 C   0  0  2  0  0  0  0  0  0  0  0  0
    2.4601   -6.7470    2.4116 C   0  0  0  0  0  0  0  0  0  0  0  0
    2.2562   -5.2358    2.6516 C   0  0  0  0  0  0  0  0  0  0  0  0
    2.1044   -4.8376    4.1495 C   0  0  1  0  0  0  0  0  0  0  0  0
    3.4699   -5.0242    4.8734 C   0  0  0  0  0  0  0  0  0  0  0  0
    1.6209   -3.3343    4.2150 C   0  0  2  0  0  0  0  0  0  0  0  0
    2.5026   -2.3243    3.4322 C   0  0  0  0  0  0  0  0  0  0  0  0
    1.9379   -0.8980    3.3975 C   0  0  0  0  0  0  0  0  0  0  0  0
    1.6144   -0.3710    4.8109 C   0  0  2  0  0  0  0  0  0  0  0  0
    0.6342   -1.3767    5.4448 C   0  0  0  0  0  0  0  0  0  0  0  0
   -0.6387   -1.0202    5.7184 C   0  0  0  0  0  0  0  0  0  0  0  0
   -1.2526    0.3308    5.4255 C   0  0  0  0  0  0  0  0  0  0  0  0
   -0.3532    1.2615    4.5756 C   0  0  1  0  0  0  0  0  0  0  0  0
   -0.9274    2.7330    4.4028 C   0  0  0  0  0  0  0  0  0  0  0  0
   -2.2653    2.6496    3.6434 C   0  0  0  0  0  0  0  0  0  0  0  0
   -1.1647    3.5014    5.7289 C   0  0  0  0  0  0  0  0  0  0  0  0
    0.0415    3.5394    3.4950 C   0  0  1  0  0  0  0  0  0  0  0  0
   -0.3929    4.8667    3.2823 O   0  0  0  0  0  0  0  0  0  0  0  0
    1.5049    3.5121    3.9598 C   0  0  0  0  0  0  0  0  0  0  0  0
    1.9995    2.0610    4.0299 C   0  0  0  0  0  0  0  0  0  0  0  0
    1.1605    1.1354    4.9599 C   0  0  2  0  0  0  0  0  0  0  0  0
    1.4309    1.5382    6.4345 C   0  0  0  0  0  0  0  0  0  0  0  0
    1.2138   -2.8104    5.6454 C   0  0  2  0  0  0  0  0  0  0  0  0
    2.3870   -2.6985    6.6572 C   0  0  0  0  0  0  0  0  0  0  0  0
    0.1625   -3.7976    6.2281 C   0  0  0  0  0  0  0  0  0  0  0  0
    0.5802   -5.2735    6.1887 C   0  0  0  0  0  0  0  0  0  0  0  0
    0.9518   -5.7360    4.7546 C   0  0  2  0  0  0  0  0  0  0  0  0
    1.1089   -7.3027    4.5780 C   0  0  0  0  0  0  0  0  0  0  0  0
   -0.2205   -7.9905    4.9675 C   0  0  0  0  0  0  0  0  0  0  0  0
    2.2266   -7.8918    5.4620 C   0  0  0  0  0  0  0  0  0  0  0  0
    4.3760  -11.6644    2.9720 H   0  0  0  0  0  0  0  0  0  0  0  0
    3.2246  -13.0631    2.8373 H   0  0  0  0  0  0  0  0  0  0  0  0
    1.3128  -11.5208    2.7780 H   0  0  0  0  0  0  0  0  0  0  0  0
    0.4387   -7.3077    2.5481 H   0  0  0  0  0  0  0  0  0  0  0  0
    3.4319   -7.0570    2.7974 H   0  0  0  0  0  0  0  0  0  0  0  0
    2.4722   -6.9250    1.3332 H   0  0  0  0  0  0  0  0  0  0  0  0
    3.1236   -4.7345    2.2269 H   0  0  0  0  0  0  0  0  0  0  0  0
    1.3899   -4.8805    2.0822 H   0  0  0  0  0  0  0  0  0  0  0  0
    3.3581   -5.3422    5.9039 H   0  0  0  0  0  0  0  0  0  0  0  0
    4.0676   -4.1187    4.8891 H   0  0  0  0  0  0  0  0  0  0  0  0
    4.1038   -5.7690    4.4029 H   0  0  0  0  0  0  0  0  0  0  0  0
    0.6812   -3.3292    3.6570 H   0  0  0  0  0  0  0  0  0  0  0  0
    3.5138   -2.2991    3.8324 H   0  0  0  0  0  0  0  0  0  0  0  0
    2.5919   -2.6386    2.3978 H   0  0  0  0  0  0  0  0  0  0  0  0
    2.6927   -0.2818    2.9143 H   0  0  0  0  0  0  0  0  0  0  0  0
    1.0481   -0.8631    2.7677 H   0  0  0  0  0  0  0  0  0  0  0  0
    2.5508   -0.4361    5.3537 H   0  0  0  0  0  0  0  0  0  0  0  0
   -1.3276   -1.7259    6.1531 H   0  0  0  0  0  0  0  0  0  0  0  0
   -2.1759    0.1431    4.8896 H   0  0  0  0  0  0  0  0  0  0  0  0
   -1.5087    0.7717    6.3804 H   0  0  0  0  0  0  0  0  0  0  0  0
   -0.3994    0.8449    3.5655 H   0  0  0  0  0  0  0  0  0  0  0  0
   -2.6632    3.6331    3.3938 H   0  0  0  0  0  0  0  0  0  0  0  0
   -3.0040    2.1463    4.2543 H   0  0  0  0  0  0  0  0  0  0  0  0
   -2.1646    2.0940    2.7148 H   0  0  0  0  0  0  0  0  0  0  0  0
   -1.8002    4.3697    5.5536 H   0  0  0  0  0  0  0  0  0  0  0  0
   -0.2531    3.8934    6.1594 H   0  0  0  0  0  0  0  0  0  0  0  0
   -1.6640    2.8998    6.4825 H   0  0  0  0  0  0  0  0  0  0  0  0
    0.0147    3.0688    2.5113 H   0  0  0  0  0  0  0  0  0  0  0  0
   -0.1994    5.0632    2.3659 H   0  0  0  0  0  0  0  0  0  0  0  0
    2.1179    4.0569    3.2418 H   0  0  0  0  0  0  0  0  0  0  0  0
    1.6336    4.0264    4.9108 H   0  0  0  0  0  0  0  0  0  0  0  0
    1.9578    1.7010    3.0021 H   0  0  0  0  0  0  0  0  0  0  0  0
    3.0495    2.0376    4.3227 H   0  0  0  0  0  0  0  0  0  0  0  0
    1.3344    2.6003    6.6157 H   0  0  0  0  0  0  0  0  0  0  0  0
    2.4487    1.2889    6.7278 H   0  0  0  0  0  0  0  0  0  0  0  0
    0.7686    1.0300    7.1316 H   0  0  0  0  0  0  0  0  0  0  0  0
    2.6486   -3.6495    7.1080 H   0  0  0  0  0  0  0  0  0  0  0  0
    2.1171   -2.0430    7.4826 H   0  0  0  0  0  0  0  0  0  0  0  0
    3.2952   -2.2988    6.2108 H   0  0  0  0  0  0  0  0  0  0  0  0
   -0.0771   -3.5196    7.2531 H   0  0  0  0  0  0  0  0  0  0  0  0
   -0.7607   -3.7252    5.6576 H   0  0  0  0  0  0  0  0  0  0  0  0
    1.3833   -5.4695    6.8926 H   0  0  0  0  0  0  0  0  0  0  0  0
   -0.2685   -5.8503    6.5528 H   0  0  0  0  0  0  0  0  0  0  0  0
    0.0699   -5.4921    4.1627 H   0  0  0  0  0  0  0  0  0  0  0  0
   -0.3668   -7.9764    6.0459 H   0  0  0  0  0  0  0  0  0  0  0  0
   -0.2309   -9.0411    4.6842 H   0  0  0  0  0  0  0  0  0  0  0  0
   -1.0854   -7.5222    4.5010 H   0  0  0  0  0  0  0  0  0  0  0  0
    2.1728   -7.5488    6.5026 H   0  0  0  0  0  0  0  0  0  0  0  0
    3.2047   -7.6568    5.0692 H   0  0  0  0  0  0  0  0  0  0  0  0
    2.1509   -8.9754    5.4968 H   0  0  0  0  0  0  0  0  0  0  0  0
  1  2  2  0
  1 36  1  0
  1 37  1  0
  2  3  1  0
  2 38  1  0
  3  4  2  0
  3  5  1  0
  5  6  1  0
  6 33  1  0
  6  7  1  0
  6 39  1  6
  7  8  1  0
  7 40  1  0
  7 41  1  0
  8  9  1  0
  8 42  1  0
  8 43  1  0
  9 32  1  0
  9 10  1  1
  9 11  1  0
 10 44  1  0
 10 45  1  0
 10 46  1  0
 11 28  1  0
 11 12  1  0
 11 47  1  6
 12 13  1  0
 12 48  1  0
 12 49  1  0
 13 14  1  0
 13 50  1  0
 13 51  1  0
 14 26  1  0
 14 15  1  0
 14 52  1  1
 15 16  2  0
 15 28  1  0
 16 17  1  0
 16 53  1  0
 17 18  1  0
 17 54  1  0
 17 55  1  0
 18 26  1  0
 18 19  1  0
 18 56  1  6
 19 20  1  0
 19 21  1  0
 19 22  1  0
 20 57  1  0
 20 58  1  0
 20 59  1  0
 21 60  1  0
 21 61  1  0
 21 62  1  0
 22 23  1  0
 22 24  1  0
 22 63  1  6
 23 64  1  0
 24 25  1  0
 24 65  1  0
 24 66  1  0
 25 26  1  0
 25 67  1  0
 25 68  1  0
 26 27  1  1
 27 69  1  0
 27 70  1  0
 27 71  1  0
 28 29  1  1
 28 30  1  0
 29 72  1  0
 29 73  1  0
 29 74  1  0
 30 31  1  0
 30 75  1  0
 30 76  1  0
 31 32  1  0
 31 77  1  0
 31 78  1  0
 32 33  1  0
 32 79  1  6
 33 34  1  0
 33 35  1  0
 34 80  1  0
 34 81  1  0
 34 82  1  0
 35 83  1  0
 35 84  1  0
 35 85  1  0
M  END
>  <i_m_ct_stereo_status>  (232) 
1

>  <s_m_source_file>  (232) 
/var/tmp/pbs.5076255.sched01/tmpq3cms3f1/82_sdm1vz9.sdf

>  <i_m_source_file_index>  (232) 
15

>  <i_lp_mmshare_version>  (232) 
48012

>  <i_f3d_flags>  (232) 
0

>  <s_epik_input>  (232) 
W0NIMl09W0NIXUMoPU8pT1tDQEhdKFtDSDJdW0NIMl0xKUMoW0NIM10pKFtDSDNdKVtDQEhdMltDSDJdW0NIMl1bQ0BAXShbQ0gzXSkoW0NAQEhdM1tDQF0xMltDSDNdKUM9NFtDQEBIXShbQ0gyXVtDSDJdMylbQ0BdNShbQ0gzXSlbQ0BASF0oW0NIMl1bQ0hdNClDKFtDSDNdKShbQ0gzXSlbQ0BASF0oW09IXSlbQ0gyXVtDSDJdNQ==

>  <s_epik_cmdline>  (232) 
J2VwaWtfcHl0aG9uJywgJy1waHQnLCAnMi4wJywgJy1waCcsICc3LjAnLCAnLXRuJywgJzgnLCAnLW1hJywgJzIwMCcsICctaW1hZScsICc8aW5maWxlLm1hZT4nLCAnLW9tYWUnLCAnPG91dGZpbGUubWFlPic=

>  <r_lp_tautomer_probability>  (232) 
1

>  <r_epik_Ionization_Penalty>  (232) 
2.5694e-06

>  <r_epik_Ionization_Penalty_Charging>  (232) 
0

>  <r_epik_Ionization_Penalty_Neutral>  (232) 
2.5694e-06

>  <r_epik_State_Penalty>  (232) 
-0

>  <r_epik_Charging_Adjusted_Penalty>  (232) 
0

>  <i_epik_Tot_Q>  (232) 
0

>  <i_epik_Tot_abs_Q>  (232) 
0

>  <s_epik_Chemistry_Notes>  (232) 
This compound has an ester and may undergo hydrolysis at high or low pH.

>  <s_lp_Force_Field>  (232) 
OPLS3e

>  <r_lp_Energy>  (232) 
81.5084

>  <b_lp_Chiralities_Consistent>  (232) 
1

>  <s_lp_Variant>  (232) 
68:0-1

>  <s_i_glide_gridfile>  (232) 
pfpi4k_grid

>  <i_i_glide_lignum>  (232) 
15

>  <i_i_glide_rotatable_bonds>  (232) 
4

>  <r_i_docking_score>  (232) 
-2.19247

>  <r_i_glide_ligand_efficiency>  (232) 
-0.0626419

>  <r_i_glide_ligand_efficiency_sa>  (232) 
-0.204906

>  <r_i_glide_ligand_efficiency_ln>  (232) 
-0.481295

>  <r_i_glide_gscore>  (232) 
-2.19247

>  <r_i_glide_lipo>  (232) 
-0.0152246

>  <r_i_glide_hbond>  (232) 
-0.146072

>  <r_i_glide_metal>  (232) 
-0

>  <r_i_glide_rewards>  (232) 
-0.117698

>  <r_i_glide_evdw>  (232) 
-27.6939

>  <r_i_glide_ecoul>  (232) 
-5.22396

>  <r_i_glide_erotb>  (232) 
0.261278

>  <r_i_glide_esite>  (232) 
-0.00646369

>  <r_i_glide_emodel>  (232) 
-32.1066

>  <r_i_glide_energy>  (232) 
-32.9178

>  <r_i_glide_einternal>  (232) 
8.97836

>  <r_i_glide_intrahb_reward>  (232) 
-0

>  <i_i_glide_confnum>  (232) 
3

>  <i_i_glide_posenum>  (232) 
27

>  <r_i_glide_eff_state_penalty>  (232) 
0

>  <ligand_id>  (232) 
68

>  <original_smiles>  (232) 
C=CC(=O)OC1CCC2(C)C3CCC4C(=CCC5C(C)(C)C(O)CCC45C)C3(C)CCC2C1(C)C

>  <smiles>  (232) 
[H]OC1([H])C([H])([H])C([H])([H])C2(C([H])([H])[H])C3([H])C(=C([H])C([H])([H])C2([H])C1(C([H])([H])[H])C([H])([H])[H])C1(C([H])([H])[H])C([H])([H])C([H])([H])C2([H])C(C([H])([H])[H])(C([H])([H])[H])C([H])(OC(=O)C([H])=C([H])[H])C([H])([H])C([H])([H])C2(C([H])([H])[H])C1([H])C([H])([H])C3([H])[H]

$$$$
68:0:2
     RDKit          3D

 85 89  0  0  1  0  0  0  0  0999 V2000
    6.1802  -10.1203    0.9988 C   0  0  0  0  0  0  0  0  0  0  0  0
    5.0811   -9.3580    0.8441 C   0  0  0  0  0  0  0  0  0  0  0  0
    5.0797   -7.9473    1.2456 C   0  0  0  0  0  0  0  0  0  0  0  0
    6.0546   -7.3615    1.7407 O   0  0  0  0  0  0  0  0  0  0  0  0
    3.8860   -7.3573    1.0096 O   0  0  0  0  0  0  0  0  0  0  0  0
    3.5071   -6.0829    1.5503 C   0  0  2  0  0  0  0  0  0  0  0  0
    4.5581   -4.9870    1.3065 C   0  0  0  0  0  0  0  0  0  0  0  0
    4.0840   -3.6043    1.7973 C   0  0  0  0  0  0  0  0  0  0  0  0
    3.6383   -3.5718    3.2887 C   0  0  1  0  0  0  0  0  0  0  0  0
    4.8846   -3.7442    4.2071 C   0  0  0  0  0  0  0  0  0  0  0  0
    2.9158   -2.1914    3.5626 C   0  0  2  0  0  0  0  0  0  0  0  0
    3.7350   -0.9298    3.1738 C   0  0  0  0  0  0  0  0  0  0  0  0
    2.9608    0.3879    3.3200 C   0  0  0  0  0  0  0  0  0  0  0  0
    2.3400    0.5421    4.7242 C   0  0  2  0  0  0  0  0  0  0  0  0
    1.4485   -0.6942    4.9502 C   0  0  0  0  0  0  0  0  0  0  0  0
    0.1056   -0.5639    5.0490 C   0  0  0  0  0  0  0  0  0  0  0  0
   -0.6643    0.7304    4.9178 C   0  0  0  0  0  0  0  0  0  0  0  0
    0.1984    1.9337    4.4472 C   0  0  1  0  0  0  0  0  0  0  0  0
   -0.5690    3.3246    4.4611 C   0  0  0  0  0  0  0  0  0  0  0  0
   -1.7592    3.2308    3.4771 C   0  0  0  0  0  0  0  0  0  0  0  0
   -1.1134    3.7300    5.8509 C   0  0  0  0  0  0  0  0  0  0  0  0
    0.3916    4.4412    3.9352 C   0  0  1  0  0  0  0  0  0  0  0  0
   -0.1860    5.7342    3.9999 O   0  0  0  0  0  0  0  0  0  0  0  0
    1.7487    4.4703    4.6493 C   0  0  0  0  0  0  0  0  0  0  0  0
    2.4497    3.1122    4.5226 C   0  0  0  0  0  0  0  0  0  0  0  0
    1.6317    1.9082    5.0774 C   0  0  2  0  0  0  0  0  0  0  0  0
    1.6008    2.0043    6.6288 C   0  0  0  0  0  0  0  0  0  0  0  0
    2.2079   -2.0486    4.9654 C   0  0  2  0  0  0  0  0  0  0  0  0
    3.1749   -2.0248    6.1815 C   0  0  0  0  0  0  0  0  0  0  0  0
    1.2499   -3.2644    5.1284 C   0  0  0  0  0  0  0  0  0  0  0  0
    1.9051   -4.6323    4.8811 C   0  0  0  0  0  0  0  0  0  0  0  0
    2.5626   -4.7139    3.4769 C   0  0  2  0  0  0  0  0  0  0  0  0
    2.9918   -6.1692    3.0287 C   0  0  0  0  0  0  0  0  0  0  0  0
    1.7410   -7.0835    3.0225 C   0  0  0  0  0  0  0  0  0  0  0  0
    4.0443   -6.7983    3.9636 C   0  0  0  0  0  0  0  0  0  0  0  0
    7.0723   -9.6889    1.4207 H   0  0  0  0  0  0  0  0  0  0  0  0
    6.2190  -11.1583    0.7056 H   0  0  0  0  0  0  0  0  0  0  0  0
    4.1927   -9.7950    0.4145 H   0  0  0  0  0  0  0  0  0  0  0  0
    2.6553   -5.7998    0.9497 H   0  0  0  0  0  0  0  0  0  0  0  0
    5.4957   -5.2444    1.7968 H   0  0  0  0  0  0  0  0  0  0  0  0
    4.7684   -4.9141    0.2400 H   0  0  0  0  0  0  0  0  0  0  0  0
    4.9111   -2.9142    1.6490 H   0  0  0  0  0  0  0  0  0  0  0  0
    3.2735   -3.2436    1.1585 H   0  0  0  0  0  0  0  0  0  0  0  0
    4.6670   -4.2956    5.1171 H   0  0  0  0  0  0  0  0  0  0  0  0
    5.3219   -2.7967    4.5151 H   0  0  0  0  0  0  0  0  0  0  0  0
    5.6987   -4.2801    3.7258 H   0  0  0  0  0  0  0  0  0  0  0  0
    2.0867   -2.1747    2.8535 H   0  0  0  0  0  0  0  0  0  0  0  0
    4.6579   -0.8691    3.7504 H   0  0  0  0  0  0  0  0  0  0  0  0
    4.0348   -0.9908    2.1312 H   0  0  0  0  0  0  0  0  0  0  0  0
    3.6747    1.1862    3.1168 H   0  0  0  0  0  0  0  0  0  0  0  0
    2.1864    0.4540    2.5537 H   0  0  0  0  0  0  0  0  0  0  0  0
    3.1812    0.4747    5.4069 H   0  0  0  0  0  0  0  0  0  0  0  0
   -0.5205   -1.4283    5.2085 H   0  0  0  0  0  0  0  0  0  0  0  0
   -1.4542    0.5520    4.1935 H   0  0  0  0  0  0  0  0  0  0  0  0
   -1.1373    0.9123    5.8778 H   0  0  0  0  0  0  0  0  0  0  0  0
    0.3784    1.7472    3.3871 H   0  0  0  0  0  0  0  0  0  0  0  0
   -2.2580    4.1926    3.3520 H   0  0  0  0  0  0  0  0  0  0  0  0
   -2.5195    2.5268    3.8238 H   0  0  0  0  0  0  0  0  0  0  0  0
   -1.4317    2.9122    2.4906 H   0  0  0  0  0  0  0  0  0  0  0  0
   -1.8449    4.5322    5.7341 H   0  0  0  0  0  0  0  0  0  0  0  0
   -0.3618    4.1312    6.5171 H   0  0  0  0  0  0  0  0  0  0  0  0
   -1.6370    2.9286    6.3654 H   0  0  0  0  0  0  0  0  0  0  0  0
    0.5983    4.2312    2.8836 H   0  0  0  0  0  0  0  0  0  0  0  0
    0.2156    6.2821    3.3245 H   0  0  0  0  0  0  0  0  0  0  0  0
    2.3794    5.2325    4.1905 H   0  0  0  0  0  0  0  0  0  0  0  0
    1.6399    4.7671    5.6903 H   0  0  0  0  0  0  0  0  0  0  0  0
    2.6290    2.9877    3.4556 H   0  0  0  0  0  0  0  0  0  0  0  0
    3.4328    3.1523    4.9971 H   0  0  0  0  0  0  0  0  0  0  0  0
    1.3096    2.9800    6.9985 H   0  0  0  0  0  0  0  0  0  0  0  0
    2.5879    1.8224    7.0547 H   0  0  0  0  0  0  0  0  0  0  0  0
    0.9270    1.2752    7.0766 H   0  0  0  0  0  0  0  0  0  0  0  0
    3.5153   -3.0129    6.4771 H   0  0  0  0  0  0  0  0  0  0  0  0
    2.6797   -1.6081    7.0575 H   0  0  0  0  0  0  0  0  0  0  0  0
    4.0672   -1.4277    6.0012 H   0  0  0  0  0  0  0  0  0  0  0  0
    0.8054   -3.2560    6.1244 H   0  0  0  0  0  0  0  0  0  0  0  0
    0.4306   -3.1847    4.4137 H   0  0  0  0  0  0  0  0  0  0  0  0
    2.6063   -4.8821    5.6730 H   0  0  0  0  0  0  0  0  0  0  0  0
    1.1109   -5.3760    4.9621 H   0  0  0  0  0  0  0  0  0  0  0  0
    1.7593   -4.4518    2.7928 H   0  0  0  0  0  0  0  0  0  0  0  0
    1.4145   -7.3275    4.0359 H   0  0  0  0  0  0  0  0  0  0  0  0
    1.9461   -8.0404    2.5408 H   0  0  0  0  0  0  0  0  0  0  0  0
    0.8995   -6.6330    2.4996 H   0  0  0  0  0  0  0  0  0  0  0  0
    3.7772   -6.7065    5.0280 H   0  0  0  0  0  0  0  0  0  0  0  0
    5.0224   -6.3653    3.8165 H   0  0  0  0  0  0  0  0  0  0  0  0
    4.1410   -7.8654    3.7711 H   0  0  0  0  0  0  0  0  0  0  0  0
  1  2  2  0
  1 36  1  0
  1 37  1  0
  2  3  1  0
  2 38  1  0
  3  4  2  0
  3  5  1  0
  5  6  1  0
  6 33  1  0
  6  7  1  0
  6 39  1  6
  7  8  1  0
  7 40  1  0
  7 41  1  0
  8  9  1  0
  8 42  1  0
  8 43  1  0
  9 32  1  0
  9 10  1  1
  9 11  1  0
 10 44  1  0
 10 45  1  0
 10 46  1  0
 11 28  1  0
 11 12  1  0
 11 47  1  6
 12 13  1  0
 12 48  1  0
 12 49  1  0
 13 14  1  0
 13 50  1  0
 13 51  1  0
 14 26  1  0
 14 15  1  0
 14 52  1  1
 15 16  2  0
 15 28  1  0
 16 17  1  0
 16 53  1  0
 17 18  1  0
 17 54  1  0
 17 55  1  0
 18 26  1  0
 18 19  1  0
 18 56  1  6
 19 20  1  0
 19 21  1  0
 19 22  1  0
 20 57  1  0
 20 58  1  0
 20 59  1  0
 21 60  1  0
 21 61  1  0
 21 62  1  0
 22 23  1  0
 22 24  1  0
 22 63  1  6
 23 64  1  0
 24 25  1  0
 24 65  1  0
 24 66  1  0
 25 26  1  0
 25 67  1  0
 25 68  1  0
 26 27  1  1
 27 69  1  0
 27 70  1  0
 27 71  1  0
 28 29  1  1
 28 30  1  0
 29 72  1  0
 29 73  1  0
 29 74  1  0
 30 31  1  0
 30 75  1  0
 30 76  1  0
 31 32  1  0
 31 77  1  0
 31 78  1  0
 32 33  1  0
 32 79  1  6
 33 34  1  0
 33 35  1  0
 34 80  1  0
 34 81  1  0
 34 82  1  0
 35 83  1  0
 35 84  1  0
 35 85  1  0
M  END
>  <i_m_ct_stereo_status>  (233) 
1

>  <s_m_source_file>  (233) 
/var/tmp/pbs.5076255.sched01/tmpq3cms3f1/82_sdm1vz9.sdf

>  <i_m_source_file_index>  (233) 
15

>  <i_lp_mmshare_version>  (233) 
48012

>  <i_f3d_flags>  (233) 
0

>  <s_epik_input>  (233) 
W0NIMl09W0NIXUMoPU8pT1tDQEhdKFtDSDJdW0NIMl0xKUMoW0NIM10pKFtDSDNdKVtDQEhdMltDSDJdW0NIMl1bQ0BAXShbQ0gzXSkoW0NAQEhdM1tDQF0xMltDSDNdKUM9NFtDQEBIXShbQ0gyXVtDSDJdMylbQ0BdNShbQ0gzXSlbQ0BASF0oW0NIMl1bQ0hdNClDKFtDSDNdKShbQ0gzXSlbQ0BASF0oW09IXSlbQ0gyXVtDSDJdNQ==

>  <s_epik_cmdline>  (233) 
J2VwaWtfcHl0aG9uJywgJy1waHQnLCAnMi4wJywgJy1waCcsICc3LjAnLCAnLXRuJywgJzgnLCAnLW1hJywgJzIwMCcsICctaW1hZScsICc8aW5maWxlLm1hZT4nLCAnLW9tYWUnLCAnPG91dGZpbGUubWFlPic=

>  <r_lp_tautomer_probability>  (233) 
1

>  <r_epik_Ionization_Penalty>  (233) 
2.5694e-06

>  <r_epik_Ionization_Penalty_Charging>  (233) 
0

>  <r_epik_Ionization_Penalty_Neutral>  (233) 
2.5694e-06

>  <r_epik_State_Penalty>  (233) 
-0

>  <r_epik_Charging_Adjusted_Penalty>  (233) 
0

>  <i_epik_Tot_Q>  (233) 
0

>  <i_epik_Tot_abs_Q>  (233) 
0

>  <s_epik_Chemistry_Notes>  (233) 
This compound has an ester and may undergo hydrolysis at high or low pH.

>  <s_lp_Force_Field>  (233) 
OPLS3e

>  <r_lp_Energy>  (233) 
81.5084

>  <b_lp_Chiralities_Consistent>  (233) 
1

>  <s_lp_Variant>  (233) 
68:0-1

>  <s_i_glide_gridfile>  (233) 
pfpi4k_grid

>  <i_i_glide_lignum>  (233) 
15

>  <i_i_glide_rotatable_bonds>  (233) 
4

>  <r_i_docking_score>  (233) 
-2.0953

>  <r_i_glide_ligand_efficiency>  (233) 
-0.0598659

>  <r_i_glide_ligand_efficiency_sa>  (233) 
-0.195825

>  <r_i_glide_ligand_efficiency_ln>  (233) 
-0.459966

>  <r_i_glide_gscore>  (233) 
-2.0953

>  <r_i_glide_lipo>  (233) 
-0.111513

>  <r_i_glide_hbond>  (233) 
-0.0171945

>  <r_i_glide_metal>  (233) 
-0

>  <r_i_glide_rewards>  (233) 
-0.205134

>  <r_i_glide_evdw>  (233) 
-28.6788

>  <r_i_glide_ecoul>  (233) 
-3.92533

>  <r_i_glide_erotb>  (233) 
0.261278

>  <r_i_glide_esite>  (233) 
0

>  <r_i_glide_emodel>  (233) 
-32.4508

>  <r_i_glide_energy>  (233) 
-32.6042

>  <r_i_glide_einternal>  (233) 
8.41575

>  <r_i_glide_intrahb_reward>  (233) 
-0

>  <i_i_glide_confnum>  (233) 
3

>  <i_i_glide_posenum>  (233) 
2

>  <r_i_glide_eff_state_penalty>  (233) 
0

>  <ligand_id>  (233) 
68

>  <original_smiles>  (233) 
C=CC(=O)OC1CCC2(C)C3CCC4C(=CCC5C(C)(C)C(O)CCC45C)C3(C)CCC2C1(C)C

>  <smiles>  (233) 
[H]OC1([H])C([H])([H])C([H])([H])C2(C([H])([H])[H])C3([H])C(=C([H])C([H])([H])C2([H])C1(C([H])([H])[H])C([H])([H])[H])C1(C([H])([H])[H])C([H])([H])C([H])([H])C2([H])C(C([H])([H])[H])(C([H])([H])[H])C([H])(OC(=O)C([H])=C([H])[H])C([H])([H])C([H])([H])C2(C([H])([H])[H])C1([H])C([H])([H])C3([H])[H]

$$$$
69:0:0
     RDKit          3D

 65 71  0  0  1  0  0  0  0  0999 V2000
    4.8924   -3.1707    5.3881 C   0  0  0  0  0  0  0  0  0  0  0  0
    3.7051   -2.4660    5.8130 O   0  0  0  0  0  0  0  0  0  0  0  0
    3.1985   -1.3008    5.0829 C   0  0  2  0  0  0  0  0  0  0  0  0
    4.1897   -0.2209    5.6869 C   0  0  0  0  0  0  0  0  0  0  0  0
    3.5994    0.3131    6.9897 C   0  0  0  0  0  0  0  0  0  0  0  0
    2.1238    0.0521    6.8411 C   0  0  0  0  0  0  0  0  0  0  0  0
    1.2749    0.6350    7.4979 O   0  0  0  0  0  0  0  0  0  0  0  0
    1.8653   -1.0267    5.7867 C   0  0  1  0  0  0  0  0  0  0  0  0
    0.6395   -0.9945    4.8117 C   0  0  2  0  0  0  0  0  0  0  0  0
   -0.6318   -1.1545    5.7739 C   0  0  1  0  0  0  0  0  0  0  0  0
   -1.9123   -0.7116    5.3756 O   0  0  0  0  0  0  0  0  0  0  0  0
   -0.7173   -2.6439    6.0060 C   0  0  0  0  0  0  0  0  0  0  0  0
    0.0622   -3.3558    5.1976 C   0  0  0  0  0  0  0  0  0  0  0  0
    0.7697   -2.4813    4.1970 C   0  0  2  0  0  0  0  0  0  0  0  0
    2.1763   -2.9408    3.8205 N   0  0  0  0  0  0  0  0  0  0  0  0
    2.2616   -4.0644    2.8939 C   0  0  0  0  0  0  0  0  0  0  0  0
    2.9586   -1.7218    3.5119 C   0  0  2  0  0  0  0  0  0  0  0  0
    4.3661   -1.3815    2.9518 C   0  0  0  0  0  0  0  0  0  0  0  0
    4.3498    0.1995    2.6933 C   0  0  0  0  0  0  0  0  0  0  0  0
    2.9601    1.0402    2.7888 C   0  0  1  0  0  0  0  0  0  0  0  0
    1.7073    0.2153    2.5358 C   0  0  1  0  0  0  0  0  0  0  0  0
    2.0800   -1.1607    2.2616 C   0  0  1  0  0  0  0  0  0  0  0  0
    2.6192   -1.2653    0.9441 O   0  0  0  0  0  0  0  0  0  0  0  0
    0.6680    0.2588    3.7140 C   0  0  1  0  0  0  0  0  0  0  0  0
   -0.7092    0.5301    3.0250 C   0  0  0  0  0  0  0  0  0  0  0  0
   -1.1421    1.9263    3.4655 C   0  0  0  0  0  0  0  0  0  0  0  0
    0.1890    2.6676    3.5866 C   0  0  0  0  0  0  0  0  0  0  0  0
    1.1027    1.6363    4.2742 C   0  0  2  0  0  0  0  0  0  0  0  0
    2.5804    1.8020    4.0205 N   0  0  2  0  0  0  0  0  0  0  0  0
    3.0881    3.1958    4.1022 C   0  0  0  0  0  0  0  0  0  0  0  0
    5.1215   -3.9994    6.0476 H   0  0  0  0  0  0  0  0  0  0  0  0
    5.7862   -2.5330    5.3576 H   0  0  0  0  0  0  0  0  0  0  0  0
    4.7746   -3.6030    4.3886 H   0  0  0  0  0  0  0  0  0  0  0  0
    5.1814   -0.6076    5.9041 H   0  0  0  0  0  0  0  0  0  0  0  0
    4.3692    0.6626    5.1078 H   0  0  0  0  0  0  0  0  0  0  0  0
    3.9698   -0.2280    7.8602 H   0  0  0  0  0  0  0  0  0  0  0  0
    3.7922    1.3775    7.1236 H   0  0  0  0  0  0  0  0  0  0  0  0
    1.6968   -1.8805    6.4434 H   0  0  0  0  0  0  0  0  0  0  0  0
   -0.5006   -0.6897    6.7445 H   0  0  0  0  0  0  0  0  0  0  0  0
   -1.8164    0.0321    4.7978 H   0  0  0  0  0  0  0  0  0  0  0  0
   -1.3704   -3.0641    6.7573 H   0  0  0  0  0  0  0  0  0  0  0  0
    0.1215   -4.4337    5.1881 H   0  0  0  0  0  0  0  0  0  0  0  0
    0.0872   -2.5833    3.3534 H   0  0  0  0  0  0  0  0  0  0  0  0
    3.3031   -4.3573    2.7506 H   0  0  0  0  0  0  0  0  0  0  0  0
    1.8358   -3.8331    1.9178 H   0  0  0  0  0  0  0  0  0  0  0  0
    1.7369   -4.9313    3.2997 H   0  0  0  0  0  0  0  0  0  0  0  0
    5.2192   -1.5662    3.5972 H   0  0  0  0  0  0  0  0  0  0  0  0
    4.5798   -1.9378    2.0302 H   0  0  0  0  0  0  0  0  0  0  0  0
    5.1486    0.6647    3.2604 H   0  0  0  0  0  0  0  0  0  0  0  0
    4.6925    0.3298    1.6646 H   0  0  0  0  0  0  0  0  0  0  0  0
    3.0230    1.7875    1.9993 H   0  0  0  0  0  0  0  0  0  0  0  0
    1.3095    0.6493    1.6156 H   0  0  0  0  0  0  0  0  0  0  0  0
    1.1477   -1.6636    2.0163 H   0  0  0  0  0  0  0  0  0  0  0  0
    1.9407   -1.0652    0.2842 H   0  0  0  0  0  0  0  0  0  0  0  0
   -0.6508    0.5692    1.9364 H   0  0  0  0  0  0  0  0  0  0  0  0
   -1.4565   -0.2376    3.1664 H   0  0  0  0  0  0  0  0  0  0  0  0
   -1.8276    2.3921    2.7517 H   0  0  0  0  0  0  0  0  0  0  0  0
   -1.6418    1.8830    4.4367 H   0  0  0  0  0  0  0  0  0  0  0  0
    0.5493    2.9257    2.5865 H   0  0  0  0  0  0  0  0  0  0  0  0
    0.0883    3.5919    4.1594 H   0  0  0  0  0  0  0  0  0  0  0  0
    0.8711    1.7414    5.3288 H   0  0  0  0  0  0  0  0  0  0  0  0
    2.7234    3.8083    3.2748 H   0  0  0  0  0  0  0  0  0  0  0  0
    4.1789    3.1856    4.0778 H   0  0  0  0  0  0  0  0  0  0  0  0
    2.7784    3.6511    5.0466 H   0  0  0  0  0  0  0  0  0  0  0  0
    3.0200    1.2986    4.7825 H   0  0  0  0  0  0  0  0  0  0  0  0
  1  2  1  0
  1 31  1  0
  1 32  1  0
  1 33  1  0
  3  2  1  1
  3  8  1  0
  3 17  1  0
  3  4  1  0
  4  5  1  0
  4 34  1  0
  4 35  1  0
  5  6  1  0
  5 36  1  0
  5 37  1  0
  6  7  2  0
  6  8  1  0
  8  9  1  0
  8 38  1  1
  9 14  1  0
  9 24  1  6
  9 10  1  0
 10 11  1  0
 10 12  1  0
 10 39  1  1
 11 40  1  0
 12 13  2  0
 12 41  1  0
 13 14  1  0
 13 42  1  0
 14 15  1  0
 14 43  1  6
 15 16  1  0
 15 17  1  0
 16 44  1  0
 16 45  1  0
 16 46  1  0
 17 22  1  0
 17 18  1  6
 18 19  1  0
 18 47  1  0
 18 48  1  0
 19 20  1  0
 19 49  1  0
 19 50  1  0
 20 29  1  0
 20 21  1  0
 20 51  1  6
 21 22  1  0
 21 24  1  0
 21 52  1  6
 22 23  1  0
 22 53  1  6
 23 54  1  0
 24 28  1  0
 24 25  1  6
 25 26  1  0
 25 55  1  0
 25 56  1  0
 26 27  1  0
 26 57  1  0
 26 58  1  0
 27 28  1  0
 27 59  1  0
 27 60  1  0
 28 29  1  0
 28 61  1  1
 29 30  1  0
 29 65  1  1
 30 62  1  0
 30 63  1  0
 30 64  1  0
M  CHG  1  29   1
M  END
>  <i_m_ct_stereo_status>  (234) 
1

>  <s_m_source_file>  (234) 
/var/tmp/pbs.5076255.sched01/tmpq3cms3f1/82_sdm1vz9.sdf

>  <i_m_source_file_index>  (234) 
16

>  <i_lp_mmshare_version>  (234) 
48012

>  <i_f3d_flags>  (234) 
0

>  <s_epik_input>  (234) 
W09IXVtDQEhdMVtDSF09W0NIXVtDQEBIXTJOKFtDSDNdKVtDQEBdKFtDQEBIXTNbT0hdKShbQ0BdNChPW0NIM10pW0NASF01Qyg9TylbQ0gyXVtDSDJdNClbQ0gyXVtDSDJdW0NAQEhdKFtDQEBIXTNbQ0BdNjdbQ0BAXTEyNSlOKFtDSDNdKVtDQEhdN1tDSDJdW0NIMl1bQ0gyXTY=

>  <s_epik_cmdline>  (234) 
J2VwaWtfcHl0aG9uJywgJy1waHQnLCAnMi4wJywgJy1waCcsICc3LjAnLCAnLXRuJywgJzgnLCAnLW1hJywgJzIwMCcsICctaW1hZScsICc8aW5maWxlLm1hZT4nLCAnLW9tYWUnLCAnPG91dGZpbGUubWFlPic=

>  <r_lp_tautomer_probability>  (234) 
1

>  <r_epik_Ionization_Penalty>  (234) 
0.0904795

>  <r_epik_Ionization_Penalty_Charging>  (234) 
0.000798887

>  <r_epik_Ionization_Penalty_Neutral>  (234) 
0.0896806

>  <r_epik_State_Penalty>  (234) 
0.08375

>  <r_epik_Charging_Adjusted_Penalty>  (234) 
0.0845489

>  <i_epik_Tot_Q>  (234) 
1

>  <i_epik_Tot_abs_Q>  (234) 
1

>  <s_lp_Force_Field>  (234) 
OPLS3e

>  <r_lp_Energy>  (234) 
192.606

>  <b_lp_Chiralities_Consistent>  (234) 
1

>  <s_lp_Variant>  (234) 
69:0-1

>  <s_i_glide_gridfile>  (234) 
pfpi4k_grid

>  <i_i_glide_lignum>  (234) 
16

>  <i_i_glide_rotatable_bonds>  (234) 
3

>  <r_i_docking_score>  (234) 
-3.15313

>  <r_i_glide_ligand_efficiency>  (234) 
-0.105104

>  <r_i_glide_ligand_efficiency_sa>  (234) 
-0.326584

>  <r_i_glide_ligand_efficiency_ln>  (234) 
-0.716426

>  <r_i_glide_gscore>  (234) 
-3.15313

>  <r_i_glide_lipo>  (234) 
-0.0914218

>  <r_i_glide_hbond>  (234) 
-0.16

>  <r_i_glide_metal>  (234) 
-0

>  <r_i_glide_rewards>  (234) 
-0.575825

>  <r_i_glide_evdw>  (234) 
-16.8485

>  <r_i_glide_ecoul>  (234) 
-9.83982

>  <r_i_glide_erotb>  (234) 
0

>  <r_i_glide_esite>  (234) 
-0.0074864

>  <r_i_glide_emodel>  (234) 
-28.1743

>  <r_i_glide_energy>  (234) 
-26.6883

>  <r_i_glide_einternal>  (234) 
7.50473

>  <r_i_glide_intrahb_reward>  (234) 
-0

>  <i_i_glide_confnum>  (234) 
2

>  <i_i_glide_posenum>  (234) 
9

>  <r_i_glide_eff_state_penalty>  (234) 
0

>  <ligand_id>  (234) 
69

>  <original_smiles>  (234) 
COC12CCC(=O)C1C13C(O)C=CC1N(C)C21CCC2C(C1O)C31CCCC1N2C

>  <smiles>  (234) 
[H]OC1([H])C([H])=C([H])C2([H])N(C([H])([H])[H])C34C([H])([H])C([H])([H])C5([H])C([H])(C3([H])O[H])C3(C([H])([H])C([H])([H])C([H])([H])C3([H])[N+]5([H])C([H])([H])[H])C12C1([H])C(=O)C([H])([H])C([H])([H])C14OC([H])([H])[H]

$$$$
69:0:1
     RDKit          3D

 65 71  0  0  1  0  0  0  0  0999 V2000
   -0.6867    4.6777    8.7711 C   0  0  0  0  0  0  0  0  0  0  0  0
    0.5831    4.8322    8.1253 O   0  0  0  0  0  0  0  0  0  0  0  0
    0.9702    4.1676    6.8759 C   0  0  2  0  0  0  0  0  0  0  0  0
    1.3093    5.5367    6.1611 C   0  0  0  0  0  0  0  0  0  0  0  0
    0.1041    5.9604    5.3369 C   0  0  0  0  0  0  0  0  0  0  0  0
   -0.6123    4.6554    5.0781 C   0  0  0  0  0  0  0  0  0  0  0  0
   -1.4821    4.5444    4.2382 O   0  0  0  0  0  0  0  0  0  0  0  0
   -0.2072    3.5929    6.0944 C   0  0  1  0  0  0  0  0  0  0  0  0
   -0.0350    2.0746    5.7976 C   0  0  2  0  0  0  0  0  0  0  0  0
   -1.5307    1.6121    5.4895 C   0  0  1  0  0  0  0  0  0  0  0  0
   -1.7771    0.4704    4.7046 O   0  0  0  0  0  0  0  0  0  0  0  0
   -2.1125    1.3568    6.8597 C   0  0  0  0  0  0  0  0  0  0  0  0
   -1.1985    1.3304    7.8353 C   0  0  0  0  0  0  0  0  0  0  0  0
    0.1857    1.5008    7.2970 C   0  0  2  0  0  0  0  0  0  0  0  0
    1.1123    2.3065    8.2101 N   0  0  0  0  0  0  0  0  0  0  0  0
    1.6611    1.6213    9.3750 C   0  0  0  0  0  0  0  0  0  0  0  0
    2.0416    3.0053    7.3165 C   0  0  2  0  0  0  0  0  0  0  0  0
    3.2946    3.9016    7.4957 C   0  0  0  0  0  0  0  0  0  0  0  0
    3.9110    4.0827    6.0083 C   0  0  0  0  0  0  0  0  0  0  0  0
    3.3071    3.2180    4.7713 C   0  0  1  0  0  0  0  0  0  0  0  0
    2.6661    1.8927    5.1721 C   0  0  1  0  0  0  0  0  0  0  0  0
    2.7468    1.7437    6.6107 C   0  0  1  0  0  0  0  0  0  0  0  0
    4.0863    1.4145    6.9880 O   0  0  0  0  0  0  0  0  0  0  0  0
    1.1747    1.7493    4.7141 C   0  0  1  0  0  0  0  0  0  0  0  0
    1.0694    0.3203    4.0966 C   0  0  0  0  0  0  0  0  0  0  0  0
    0.8091    0.5416    2.6035 C   0  0  0  0  0  0  0  0  0  0  0  0
    1.6025    1.8160    2.3030 C   0  0  0  0  0  0  0  0  0  0  0  0
    1.2786    2.7173    3.5055 C   0  0  2  0  0  0  0  0  0  0  0  0
    2.2913    3.7783    3.8440 N   0  0  2  0  0  0  0  0  0  0  0  0
    2.8237    4.5307    2.7006 C   0  0  0  0  0  0  0  0  0  0  0  0
   -0.6336    5.0508    9.7926 H   0  0  0  0  0  0  0  0  0  0  0  0
   -0.9919    3.6411    8.8713 H   0  0  0  0  0  0  0  0  0  0  0  0
   -1.4754    5.2254    8.2502 H   0  0  0  0  0  0  0  0  0  0  0  0
    1.5723    6.3298    6.8659 H   0  0  0  0  0  0  0  0  0  0  0  0
    2.1006    5.5498    5.4383 H   0  0  0  0  0  0  0  0  0  0  0  0
   -0.5462    6.6227    5.9061 H   0  0  0  0  0  0  0  0  0  0  0  0
    0.3807    6.4390    4.3963 H   0  0  0  0  0  0  0  0  0  0  0  0
   -1.1099    3.6390    6.6877 H   0  0  0  0  0  0  0  0  0  0  0  0
   -2.1502    2.3918    5.0465 H   0  0  0  0  0  0  0  0  0  0  0  0
   -2.3757    0.6997    4.0045 H   0  0  0  0  0  0  0  0  0  0  0  0
   -3.1730    1.2508    7.0146 H   0  0  0  0  0  0  0  0  0  0  0  0
   -1.4048    1.1636    8.8773 H   0  0  0  0  0  0  0  0  0  0  0  0
    0.4966    0.4563    7.2570 H   0  0  0  0  0  0  0  0  0  0  0  0
    2.2630    2.3080    9.9749 H   0  0  0  0  0  0  0  0  0  0  0  0
    2.2894    0.7732    9.1057 H   0  0  0  0  0  0  0  0  0  0  0  0
    0.8574    1.2634   10.0137 H   0  0  0  0  0  0  0  0  0  0  0  0
    3.0780    4.8640    7.9574 H   0  0  0  0  0  0  0  0  0  0  0  0
    4.0231    3.4629    8.1817 H   0  0  0  0  0  0  0  0  0  0  0  0
    4.0522    5.1338    5.7553 H   0  0  0  0  0  0  0  0  0  0  0  0
    4.9463    3.7624    6.0999 H   0  0  0  0  0  0  0  0  0  0  0  0
    4.1757    2.9658    4.1654 H   0  0  0  0  0  0  0  0  0  0  0  0
    3.3111    1.1447    4.7083 H   0  0  0  0  0  0  0  0  0  0  0  0
    2.3570    0.7491    6.8179 H   0  0  0  0  0  0  0  0  0  0  0  0
    4.3229    0.6019    6.5864 H   0  0  0  0  0  0  0  0  0  0  0  0
    1.9932   -0.2554    4.1641 H   0  0  0  0  0  0  0  0  0  0  0  0
    0.3740   -0.3513    4.5909 H   0  0  0  0  0  0  0  0  0  0  0  0
    1.1186   -0.3130    1.9920 H   0  0  0  0  0  0  0  0  0  0  0  0
   -0.2591    0.7129    2.4300 H   0  0  0  0  0  0  0  0  0  0  0  0
    2.6655    1.5805    2.2421 H   0  0  0  0  0  0  0  0  0  0  0  0
    1.2886    2.2590    1.3586 H   0  0  0  0  0  0  0  0  0  0  0  0
    0.3270    3.1537    3.2328 H   0  0  0  0  0  0  0  0  0  0  0  0
    3.4207    3.8472    2.0985 H   0  0  0  0  0  0  0  0  0  0  0  0
    3.4618    5.3498    3.0222 H   0  0  0  0  0  0  0  0  0  0  0  0
    2.0194    4.9321    2.0893 H   0  0  0  0  0  0  0  0  0  0  0  0
    1.7887    4.4542    4.3993 H   0  0  0  0  0  0  0  0  0  0  0  0
  1  2  1  0
  1 31  1  0
  1 32  1  0
  1 33  1  0
  3  2  1  1
  3  8  1  0
  3 17  1  0
  3  4  1  0
  4  5  1  0
  4 34  1  0
  4 35  1  0
  5  6  1  0
  5 36  1  0
  5 37  1  0
  6  7  2  0
  6  8  1  0
  8  9  1  0
  8 38  1  1
  9 14  1  0
  9 24  1  6
  9 10  1  0
 10 11  1  0
 10 12  1  0
 10 39  1  6
 11 40  1  0
 12 13  2  0
 12 41  1  0
 13 14  1  0
 13 42  1  0
 14 15  1  0
 14 43  1  6
 15 16  1  0
 15 17  1  0
 16 44  1  0
 16 45  1  0
 16 46  1  0
 17 22  1  0
 17 18  1  1
 18 19  1  0
 18 47  1  0
 18 48  1  0
 19 20  1  0
 19 49  1  0
 19 50  1  0
 20 29  1  0
 20 21  1  0
 20 51  1  6
 21 22  1  0
 21 24  1  0
 21 52  1  6
 22 23  1  0
 22 53  1  6
 23 54  1  0
 24 28  1  0
 24 25  1  6
 25 26  1  0
 25 55  1  0
 25 56  1  0
 26 27  1  0
 26 57  1  0
 26 58  1  0
 27 28  1  0
 27 59  1  0
 27 60  1  0
 28 29  1  0
 28 61  1  6
 29 30  1  0
 29 65  1  1
 30 62  1  0
 30 63  1  0
 30 64  1  0
M  CHG  1  29   1
M  END
>  <i_m_ct_stereo_status>  (235) 
1

>  <s_m_source_file>  (235) 
/var/tmp/pbs.5076255.sched01/tmpq3cms3f1/82_sdm1vz9.sdf

>  <i_m_source_file_index>  (235) 
16

>  <i_lp_mmshare_version>  (235) 
48012

>  <i_f3d_flags>  (235) 
0

>  <s_epik_input>  (235) 
W09IXVtDQEhdMVtDSF09W0NIXVtDQEBIXTJOKFtDSDNdKVtDQEBdKFtDQEBIXTNbT0hdKShbQ0BdNChPW0NIM10pW0NASF01Qyg9TylbQ0gyXVtDSDJdNClbQ0gyXVtDSDJdW0NAQEhdKFtDQEBIXTNbQ0BdNjdbQ0BAXTEyNSlOKFtDSDNdKVtDQEhdN1tDSDJdW0NIMl1bQ0gyXTY=

>  <s_epik_cmdline>  (235) 
J2VwaWtfcHl0aG9uJywgJy1waHQnLCAnMi4wJywgJy1waCcsICc3LjAnLCAnLXRuJywgJzgnLCAnLW1hJywgJzIwMCcsICctaW1hZScsICc8aW5maWxlLm1hZT4nLCAnLW9tYWUnLCAnPG91dGZpbGUubWFlPic=

>  <r_lp_tautomer_probability>  (235) 
1

>  <r_epik_Ionization_Penalty>  (235) 
0.0904795

>  <r_epik_Ionization_Penalty_Charging>  (235) 
0.000798887

>  <r_epik_Ionization_Penalty_Neutral>  (235) 
0.0896806

>  <r_epik_State_Penalty>  (235) 
0.08375

>  <r_epik_Charging_Adjusted_Penalty>  (235) 
0.0845489

>  <i_epik_Tot_Q>  (235) 
1

>  <i_epik_Tot_abs_Q>  (235) 
1

>  <s_lp_Force_Field>  (235) 
OPLS3e

>  <r_lp_Energy>  (235) 
192.606

>  <b_lp_Chiralities_Consistent>  (235) 
1

>  <s_lp_Variant>  (235) 
69:0-1

>  <s_i_glide_gridfile>  (235) 
pfpi4k_grid

>  <i_i_glide_lignum>  (235) 
16

>  <i_i_glide_rotatable_bonds>  (235) 
3

>  <r_i_docking_score>  (235) 
-2.76715

>  <r_i_glide_ligand_efficiency>  (235) 
-0.0922384

>  <r_i_glide_ligand_efficiency_sa>  (235) 
-0.286606

>  <r_i_glide_ligand_efficiency_ln>  (235) 
-0.628727

>  <r_i_glide_gscore>  (235) 
-2.76715

>  <r_i_glide_lipo>  (235) 
-0.0262398

>  <r_i_glide_hbond>  (235) 
-0.371607

>  <r_i_glide_metal>  (235) 
-0

>  <r_i_glide_rewards>  (235) 
-0.575825

>  <r_i_glide_evdw>  (235) 
-17.2767

>  <r_i_glide_ecoul>  (235) 
-5.73144

>  <r_i_glide_erotb>  (235) 
0

>  <r_i_glide_esite>  (235) 
-0.0699265

>  <r_i_glide_emodel>  (235) 
-25.008

>  <r_i_glide_energy>  (235) 
-23.0082

>  <r_i_glide_einternal>  (235) 
5.22115

>  <r_i_glide_intrahb_reward>  (235) 
-0

>  <i_i_glide_confnum>  (235) 
2

>  <i_i_glide_posenum>  (235) 
17

>  <r_i_glide_eff_state_penalty>  (235) 
0

>  <ligand_id>  (235) 
69

>  <original_smiles>  (235) 
COC12CCC(=O)C1C13C(O)C=CC1N(C)C21CCC2C(C1O)C31CCCC1N2C

>  <smiles>  (235) 
[H]OC1([H])C([H])=C([H])C2([H])N(C([H])([H])[H])C34C([H])([H])C([H])([H])C5([H])C([H])(C3([H])O[H])C3(C([H])([H])C([H])([H])C([H])([H])C3([H])[N+]5([H])C([H])([H])[H])C12C1([H])C(=O)C([H])([H])C([H])([H])C14OC([H])([H])[H]

$$$$
69:0:2
     RDKit          3D

 65 71  0  0  1  0  0  0  0  0999 V2000
    0.7173    5.9652    5.6508 C   0  0  0  0  0  0  0  0  0  0  0  0
    0.4949    4.7255    6.3313 O   0  0  0  0  0  0  0  0  0  0  0  0
    1.0845    3.4434    5.9493 C   0  0  2  0  0  0  0  0  0  0  0  0
    2.6222    3.8162    6.0242 C   0  0  0  0  0  0  0  0  0  0  0  0
    3.0950    4.1932    4.6144 C   0  0  0  0  0  0  0  0  0  0  0  0
    2.0825    3.5197    3.7240 C   0  0  0  0  0  0  0  0  0  0  0  0
    2.3031    3.2800    2.5438 O   0  0  0  0  0  0  0  0  0  0  0  0
    0.7950    3.1753    4.4778 C   0  0  1  0  0  0  0  0  0  0  0  0
   -0.0392    1.8721    4.2657 C   0  0  2  0  0  0  0  0  0  0  0  0
   -0.6011    2.0545    2.7817 C   0  0  1  0  0  0  0  0  0  0  0  0
   -0.9787    0.9225    2.0513 O   0  0  0  0  0  0  0  0  0  0  0  0
   -1.8343    2.9114    2.9654 C   0  0  0  0  0  0  0  0  0  0  0  0
   -2.2097    3.0397    4.2336 C   0  0  0  0  0  0  0  0  0  0  0  0
   -1.3468    2.2250    5.1508 C   0  0  2  0  0  0  0  0  0  0  0  0
   -1.0906    2.8585    6.5172 N   0  0  0  0  0  0  0  0  0  0  0  0
   -2.1746    2.7928    7.4904 C   0  0  0  0  0  0  0  0  0  0  0  0
    0.2544    2.4100    6.9252 C   0  0  2  0  0  0  0  0  0  0  0  0
    1.1256    2.5488    8.1986 C   0  0  0  0  0  0  0  0  0  0  0  0
    2.3802    1.5542    7.9729 C   0  0  0  0  0  0  0  0  0  0  0  0
    2.3850    0.5301    6.7011 C   0  0  1  0  0  0  0  0  0  0  0  0
    0.9951    0.1489    6.2047 C   0  0  1  0  0  0  0  0  0  0  0  0
   -0.0054    0.8261    6.9958 C   0  0  1  0  0  0  0  0  0  0  0  0
   -0.1703    0.1930    8.2688 O   0  0  0  0  0  0  0  0  0  0  0  0
    0.7585    0.4715    4.6823 C   0  0  1  0  0  0  0  0  0  0  0  0
    0.1060   -0.8201    4.0884 C   0  0  0  0  0  0  0  0  0  0  0  0
    1.1360   -1.4026    3.1181 C   0  0  0  0  0  0  0  0  0  0  0  0
    2.4655   -1.0563    3.7899 C   0  0  0  0  0  0  0  0  0  0  0  0
    2.2533    0.3975    4.2694 C   0  0  2  0  0  0  0  0  0  0  0  0
    3.0926    0.8303    5.4347 N   0  0  2  0  0  0  0  0  0  0  0  0
    4.5073    0.4382    5.3855 C   0  0  0  0  0  0  0  0  0  0  0  0
    0.0340    6.7015    6.0767 H   0  0  0  0  0  0  0  0  0  0  0  0
    0.5148    5.9350    4.5802 H   0  0  0  0  0  0  0  0  0  0  0  0
    1.7208    6.3570    5.8117 H   0  0  0  0  0  0  0  0  0  0  0  0
    2.8128    4.6202    6.7354 H   0  0  0  0  0  0  0  0  0  0  0  0
    3.3148    3.0529    6.3133 H   0  0  0  0  0  0  0  0  0  0  0  0
    3.0626    5.2685    4.4419 H   0  0  0  0  0  0  0  0  0  0  0  0
    4.1040    3.8443    4.4058 H   0  0  0  0  0  0  0  0  0  0  0  0
    0.1432    3.9746    4.1394 H   0  0  0  0  0  0  0  0  0  0  0  0
    0.0830    2.5607    2.1140 H   0  0  0  0  0  0  0  0  0  0  0  0
   -0.9184    1.1092    1.1187 H   0  0  0  0  0  0  0  0  0  0  0  0
   -2.3321    3.3724    2.1238 H   0  0  0  0  0  0  0  0  0  0  0  0
   -3.0575    3.6025    4.5869 H   0  0  0  0  0  0  0  0  0  0  0  0
   -1.9692    1.3349    5.2447 H   0  0  0  0  0  0  0  0  0  0  0  0
   -1.8943    3.3323    8.3991 H   0  0  0  0  0  0  0  0  0  0  0  0
   -2.4301    1.7715    7.7665 H   0  0  0  0  0  0  0  0  0  0  0  0
   -3.0682    3.2747    7.0943 H   0  0  0  0  0  0  0  0  0  0  0  0
    1.4581    3.5721    8.3824 H   0  0  0  0  0  0  0  0  0  0  0  0
    0.5770    2.3074    9.1093 H   0  0  0  0  0  0  0  0  0  0  0  0
    3.3345    2.0739    8.0904 H   0  0  0  0  0  0  0  0  0  0  0  0
    2.4014    0.9237    8.8602 H   0  0  0  0  0  0  0  0  0  0  0  0
    2.8430   -0.3846    7.0895 H   0  0  0  0  0  0  0  0  0  0  0  0
    0.9262   -0.9187    6.4141 H   0  0  0  0  0  0  0  0  0  0  0  0
   -0.9490    0.4506    6.6238 H   0  0  0  0  0  0  0  0  0  0  0  0
    0.5859    0.3708    8.7967 H   0  0  0  0  0  0  0  0  0  0  0  0
   -0.0794   -1.5986    4.8276 H   0  0  0  0  0  0  0  0  0  0  0  0
   -0.8894   -0.6939    3.6801 H   0  0  0  0  0  0  0  0  0  0  0  0
    1.0045   -2.4757    2.9576 H   0  0  0  0  0  0  0  0  0  0  0  0
    1.0586   -0.9074    2.1458 H   0  0  0  0  0  0  0  0  0  0  0  0
    2.6361   -1.7353    4.6247 H   0  0  0  0  0  0  0  0  0  0  0  0
    3.3043   -1.1480    3.0979 H   0  0  0  0  0  0  0  0  0  0  0  0
    2.4565    0.9868    3.3838 H   0  0  0  0  0  0  0  0  0  0  0  0
    4.6431   -0.6436    5.4857 H   0  0  0  0  0  0  0  0  0  0  0  0
    5.0688    0.9210    6.1926 H   0  0  0  0  0  0  0  0  0  0  0  0
    4.9604    0.7513    4.4388 H   0  0  0  0  0  0  0  0  0  0  0  0
    3.0795    1.8458    5.3745 H   0  0  0  0  0  0  0  0  0  0  0  0
  1  2  1  0
  1 31  1  0
  1 32  1  0
  1 33  1  0
  3  2  1  1
  3  8  1  0
  3 17  1  0
  3  4  1  0
  4  5  1  0
  4 34  1  0
  4 35  1  0
  5  6  1  0
  5 36  1  0
  5 37  1  0
  6  7  2  0
  6  8  1  0
  8  9  1  0
  8 38  1  6
  9 14  1  0
  9 24  1  6
  9 10  1  0
 10 11  1  0
 10 12  1  0
 10 39  1  6
 11 40  1  0
 12 13  2  0
 12 41  1  0
 13 14  1  0
 13 42  1  0
 14 15  1  0
 14 43  1  1
 15 16  1  0
 15 17  1  0
 16 44  1  0
 16 45  1  0
 16 46  1  0
 17 22  1  0
 17 18  1  1
 18 19  1  0
 18 47  1  0
 18 48  1  0
 19 20  1  0
 19 49  1  0
 19 50  1  0
 20 29  1  0
 20 21  1  0
 20 51  1  1
 21 22  1  0
 21 24  1  0
 21 52  1  6
 22 23  1  0
 22 53  1  6
 23 54  1  0
 24 28  1  0
 24 25  1  6
 25 26  1  0
 25 55  1  0
 25 56  1  0
 26 27  1  0
 26 57  1  0
 26 58  1  0
 27 28  1  0
 27 59  1  0
 27 60  1  0
 28 29  1  0
 28 61  1  6
 29 30  1  0
 29 65  1  6
 30 62  1  0
 30 63  1  0
 30 64  1  0
M  CHG  1  29   1
M  END
>  <i_m_ct_stereo_status>  (236) 
1

>  <s_m_source_file>  (236) 
/var/tmp/pbs.5076255.sched01/tmpq3cms3f1/82_sdm1vz9.sdf

>  <i_m_source_file_index>  (236) 
16

>  <i_lp_mmshare_version>  (236) 
48012

>  <i_f3d_flags>  (236) 
0

>  <s_epik_input>  (236) 
W09IXVtDQEhdMVtDSF09W0NIXVtDQEBIXTJOKFtDSDNdKVtDQEBdKFtDQEBIXTNbT0hdKShbQ0BdNChPW0NIM10pW0NASF01Qyg9TylbQ0gyXVtDSDJdNClbQ0gyXVtDSDJdW0NAQEhdKFtDQEBIXTNbQ0BdNjdbQ0BAXTEyNSlOKFtDSDNdKVtDQEhdN1tDSDJdW0NIMl1bQ0gyXTY=

>  <s_epik_cmdline>  (236) 
J2VwaWtfcHl0aG9uJywgJy1waHQnLCAnMi4wJywgJy1waCcsICc3LjAnLCAnLXRuJywgJzgnLCAnLW1hJywgJzIwMCcsICctaW1hZScsICc8aW5maWxlLm1hZT4nLCAnLW9tYWUnLCAnPG91dGZpbGUubWFlPic=

>  <r_lp_tautomer_probability>  (236) 
1

>  <r_epik_Ionization_Penalty>  (236) 
0.0904795

>  <r_epik_Ionization_Penalty_Charging>  (236) 
0.000798887

>  <r_epik_Ionization_Penalty_Neutral>  (236) 
0.0896806

>  <r_epik_State_Penalty>  (236) 
0.08375

>  <r_epik_Charging_Adjusted_Penalty>  (236) 
0.0845489

>  <i_epik_Tot_Q>  (236) 
1

>  <i_epik_Tot_abs_Q>  (236) 
1

>  <s_lp_Force_Field>  (236) 
OPLS3e

>  <r_lp_Energy>  (236) 
192.606

>  <b_lp_Chiralities_Consistent>  (236) 
1

>  <s_lp_Variant>  (236) 
69:0-1

>  <s_i_glide_gridfile>  (236) 
pfpi4k_grid

>  <i_i_glide_lignum>  (236) 
16

>  <i_i_glide_rotatable_bonds>  (236) 
3

>  <r_i_docking_score>  (236) 
-2.20839

>  <r_i_glide_ligand_efficiency>  (236) 
-0.073613

>  <r_i_glide_ligand_efficiency_sa>  (236) 
-0.228733

>  <r_i_glide_ligand_efficiency_ln>  (236) 
-0.50177

>  <r_i_glide_gscore>  (236) 
-2.20839

>  <r_i_glide_lipo>  (236) 
-0.0921896

>  <r_i_glide_hbond>  (236) 
-0.131786

>  <r_i_glide_metal>  (236) 
-0

>  <r_i_glide_rewards>  (236) 
-0.575825

>  <r_i_glide_evdw>  (236) 
-19.9364

>  <r_i_glide_ecoul>  (236) 
-2.53968

>  <r_i_glide_erotb>  (236) 
0

>  <r_i_glide_esite>  (236) 
-0.0308169

>  <r_i_glide_emodel>  (236) 
-26.1632

>  <r_i_glide_energy>  (236) 
-22.4761

>  <r_i_glide_einternal>  (236) 
0.567515

>  <r_i_glide_intrahb_reward>  (236) 
-0

>  <i_i_glide_confnum>  (236) 
1

>  <i_i_glide_posenum>  (236) 
2

>  <r_i_glide_eff_state_penalty>  (236) 
0

>  <ligand_id>  (236) 
69

>  <original_smiles>  (236) 
COC12CCC(=O)C1C13C(O)C=CC1N(C)C21CCC2C(C1O)C31CCCC1N2C

>  <smiles>  (236) 
[H]OC1([H])C([H])=C([H])C2([H])N(C([H])([H])[H])C34C([H])([H])C([H])([H])C5([H])C([H])(C3([H])O[H])C3(C([H])([H])C([H])([H])C([H])([H])C3([H])[N+]5([H])C([H])([H])[H])C12C1([H])C(=O)C([H])([H])C([H])([H])C14OC([H])([H])[H]

$$$$
69:1:0
     RDKit          3D

 66 72  0  0  1  0  0  0  0  0999 V2000
    6.3729   -3.8386   -0.9471 C   0  0  0  0  0  0  0  0  0  0  0  0
    5.7133   -2.7744   -0.2649 O   0  0  0  0  0  0  0  0  0  0  0  0
    5.1531   -2.8924    1.0594 C   0  0  2  0  0  0  0  0  0  0  0  0
    6.4892   -3.1075    1.8283 C   0  0  0  0  0  0  0  0  0  0  0  0
    6.6926   -4.6130    2.0784 C   0  0  0  0  0  0  0  0  0  0  0  0
    5.3084   -5.1557    1.9616 C   0  0  0  0  0  0  0  0  0  0  0  0
    5.0017   -6.2547    2.4013 O   0  0  0  0  0  0  0  0  0  0  0  0
    4.3744   -4.1680    1.2630 C   0  0  1  0  0  0  0  0  0  0  0  0
    2.9016   -3.9039    1.6678 C   0  0  2  0  0  0  0  0  0  0  0  0
    2.2196   -5.3207    1.3651 C   0  0  1  0  0  0  0  0  0  0  0  0
    1.0188   -5.7263    1.9743 O   0  0  0  0  0  0  0  0  0  0  0  0
    1.9909   -5.2667   -0.1236 C   0  0  0  0  0  0  0  0  0  0  0  0
    2.1931   -4.0720   -0.6899 C   0  0  0  0  0  0  0  0  0  0  0  0
    2.4443   -3.0408    0.3633 C   0  0  2  0  0  0  0  0  0  0  0  0
    3.2804   -1.8131   -0.0077 N   0  0  2  0  0  0  0  0  0  0  0  0
    3.6638   -1.5698   -1.4194 C   0  0  0  0  0  0  0  0  0  0  0  0
    4.1989   -1.5759    1.1263 C   0  0  2  0  0  0  0  0  0  0  0  0
    5.2063   -0.4665    1.4612 C   0  0  0  0  0  0  0  0  0  0  0  0
    5.4208   -0.5393    3.0620 C   0  0  0  0  0  0  0  0  0  0  0  0
    4.4398   -1.4673    3.9748 C   0  0  1  0  0  0  0  0  0  0  0  0
    3.0737   -1.7058    3.3638 C   0  0  1  0  0  0  0  0  0  0  0  0
    2.9990   -1.0622    2.0723 C   0  0  1  0  0  0  0  0  0  0  0  0
    2.8019    0.3430    2.2188 O   0  0  0  0  0  0  0  0  0  0  0  0
    2.7108   -3.2195    3.1715 C   0  0  1  0  0  0  0  0  0  0  0  0
    1.2607   -3.3787    3.7322 C   0  0  0  0  0  0  0  0  0  0  0  0
    1.3767   -4.2914    4.9482 C   0  0  0  0  0  0  0  0  0  0  0  0
    2.7287   -3.8797    5.5314 C   0  0  0  0  0  0  0  0  0  0  0  0
    3.6273   -3.7581    4.2912 C   0  0  2  0  0  0  0  0  0  0  0  0
    4.8107   -2.8377    4.4284 N   0  0  2  0  0  0  0  0  0  0  0  0
    5.5253   -2.9276    5.7197 C   0  0  0  0  0  0  0  0  0  0  0  0
    6.5014   -3.5209   -1.9796 H   0  0  0  0  0  0  0  0  0  0  0  0
    5.8037   -4.7670   -0.9854 H   0  0  0  0  0  0  0  0  0  0  0  0
    7.3686   -4.0339   -0.5466 H   0  0  0  0  0  0  0  0  0  0  0  0
    7.3493   -2.6775    1.3044 H   0  0  0  0  0  0  0  0  0  0  0  0
    6.4940   -2.6393    2.7783 H   0  0  0  0  0  0  0  0  0  0  0  0
    7.3619   -5.0680    1.3490 H   0  0  0  0  0  0  0  0  0  0  0  0
    7.0213   -4.9017    3.0753 H   0  0  0  0  0  0  0  0  0  0  0  0
    4.3123   -4.6576    0.3051 H   0  0  0  0  0  0  0  0  0  0  0  0
    2.8655   -6.1836    1.5384 H   0  0  0  0  0  0  0  0  0  0  0  0
    1.2130   -6.0922    2.8197 H   0  0  0  0  0  0  0  0  0  0  0  0
    1.7164   -6.1497   -0.6768 H   0  0  0  0  0  0  0  0  0  0  0  0
    2.0435   -3.8634   -1.7370 H   0  0  0  0  0  0  0  0  0  0  0  0
    1.4548   -2.6579    0.5058 H   0  0  0  0  0  0  0  0  0  0  0  0
    4.0697   -2.4418   -1.9151 H   0  0  0  0  0  0  0  0  0  0  0  0
    4.3872   -0.7662   -1.4875 H   0  0  0  0  0  0  0  0  0  0  0  0
    2.7964   -1.2685   -1.9905 H   0  0  0  0  0  0  0  0  0  0  0  0
    6.1567   -0.5766    0.9401 H   0  0  0  0  0  0  0  0  0  0  0  0
    4.8678    0.5157    1.1329 H   0  0  0  0  0  0  0  0  0  0  0  0
    6.4802   -0.6470    3.2936 H   0  0  0  0  0  0  0  0  0  0  0  0
    5.2589    0.4813    3.4134 H   0  0  0  0  0  0  0  0  0  0  0  0
    4.2877   -0.8920    4.8832 H   0  0  0  0  0  0  0  0  0  0  0  0
    2.3848   -1.1933    4.0405 H   0  0  0  0  0  0  0  0  0  0  0  0
    1.9629   -1.2321    1.7824 H   0  0  0  0  0  0  0  0  0  0  0  0
    2.3637    0.6969    1.4598 H   0  0  0  0  0  0  0  0  0  0  0  0
    0.8264   -2.4474    4.0979 H   0  0  0  0  0  0  0  0  0  0  0  0
    0.5249   -3.6853    3.0033 H   0  0  0  0  0  0  0  0  0  0  0  0
    0.5458   -4.1688    5.6476 H   0  0  0  0  0  0  0  0  0  0  0  0
    1.3913   -5.3399    4.6435 H   0  0  0  0  0  0  0  0  0  0  0  0
    2.6129   -2.9290    6.0547 H   0  0  0  0  0  0  0  0  0  0  0  0
    3.0903   -4.6177    6.2475 H   0  0  0  0  0  0  0  0  0  0  0  0
    3.9395   -4.7730    4.1098 H   0  0  0  0  0  0  0  0  0  0  0  0
    4.9287   -2.5734    6.5531 H   0  0  0  0  0  0  0  0  0  0  0  0
    6.4404   -2.3476    5.7450 H   0  0  0  0  0  0  0  0  0  0  0  0
    5.8089   -3.9556    5.9191 H   0  0  0  0  0  0  0  0  0  0  0  0
    5.4627   -3.1637    3.7317 H   0  0  0  0  0  0  0  0  0  0  0  0
    2.5690   -1.0973    0.0814 H   0  0  0  0  0  0  0  0  0  0  0  0
  1  2  1  0
  1 31  1  0
  1 32  1  0
  1 33  1  0
  3  2  1  6
  3  8  1  0
  3 17  1  0
  3  4  1  0
  4  5  1  0
  4 34  1  0
  4 35  1  0
  5  6  1  0
  5 36  1  0
  5 37  1  0
  6  7  2  0
  6  8  1  0
  8  9  1  0
  8 38  1  6
  9 14  1  0
  9 24  1  1
  9 10  1  0
 10 11  1  0
 10 12  1  0
 10 39  1  6
 11 40  1  0
 12 13  2  0
 12 41  1  0
 13 14  1  0
 13 42  1  0
 14 15  1  0
 14 43  1  1
 15 16  1  0
 15 17  1  0
 15 66  1  1
 16 44  1  0
 16 45  1  0
 16 46  1  0
 17 22  1  0
 17 18  1  6
 18 19  1  0
 18 47  1  0
 18 48  1  0
 19 20  1  0
 19 49  1  0
 19 50  1  0
 20 29  1  0
 20 21  1  0
 20 51  1  1
 21 22  1  0
 21 24  1  0
 21 52  1  1
 22 23  1  0
 22 53  1  6
 23 54  1  0
 24 28  1  0
 24 25  1  1
 25 26  1  0
 25 55  1  0
 25 56  1  0
 26 27  1  0
 26 57  1  0
 26 58  1  0
 27 28  1  0
 27 59  1  0
 27 60  1  0
 28 29  1  0
 28 61  1  6
 29 30  1  0
 29 65  1  6
 30 62  1  0
 30 63  1  0
 30 64  1  0
M  CHG  2  15   1  29   1
M  END
>  <i_m_ct_stereo_status>  (237) 
1

>  <s_m_source_file>  (237) 
/var/tmp/pbs.5076255.sched01/tmpq3cms3f1/82_sdm1vz9.sdf

>  <i_m_source_file_index>  (237) 
17

>  <i_lp_mmshare_version>  (237) 
48012

>  <i_f3d_flags>  (237) 
0

>  <s_epik_input>  (237) 
W09IXVtDQEhdMVtDSF09W0NIXVtDQEBIXTJOKFtDSDNdKVtDQEBdKFtDQEBIXTNbT0hdKShbQ0BdNChPW0NIM10pW0NASF01Qyg9TylbQ0gyXVtDSDJdNClbQ0gyXVtDSDJdW0NAQEhdKFtDQEBIXTNbQ0BdNjdbQ0BAXTEyNSlOKFtDSDNdKVtDQEhdN1tDSDJdW0NIMl1bQ0gyXTY=

>  <s_epik_cmdline>  (237) 
J2VwaWtfcHl0aG9uJywgJy1waHQnLCAnMi4wJywgJy1waCcsICc3LjAnLCAnLXRuJywgJzgnLCAnLW1hJywgJzIwMCcsICctaW1hZScsICc8aW5maWxlLm1hZT4nLCAnLW9tYWUnLCAnPG91dGZpbGUubWFlPic=

>  <r_lp_tautomer_probability>  (237) 
1

>  <r_epik_Ionization_Penalty>  (237) 
1.17155

>  <r_epik_Ionization_Penalty_Charging>  (237) 
1.17146

>  <r_epik_Ionization_Penalty_Neutral>  (237) 
9.59938e-05

>  <r_epik_State_Penalty>  (237) 
1.21049

>  <r_epik_Charging_Adjusted_Penalty>  (237) 
2.38194

>  <i_epik_Tot_Q>  (237) 
2

>  <i_epik_Tot_abs_Q>  (237) 
2

>  <s_lp_Force_Field>  (237) 
OPLS3e

>  <r_lp_Energy>  (237) 
215.256

>  <b_lp_Chiralities_Consistent>  (237) 
1

>  <s_lp_Variant>  (237) 
69:0-2

>  <s_i_glide_gridfile>  (237) 
pfpi4k_grid

>  <i_i_glide_lignum>  (237) 
17

>  <i_i_glide_rotatable_bonds>  (237) 
3

>  <r_i_docking_score>  (237) 
-3.0711

>  <r_i_glide_ligand_efficiency>  (237) 
-0.10237

>  <r_i_glide_ligand_efficiency_sa>  (237) 
-0.318087

>  <r_i_glide_ligand_efficiency_ln>  (237) 
-0.697786

>  <r_i_glide_gscore>  (237) 
-3.0711

>  <r_i_glide_lipo>  (237) 
-0.564872

>  <r_i_glide_hbond>  (237) 
-0.220587

>  <r_i_glide_metal>  (237) 
-0

>  <r_i_glide_rewards>  (237) 
-0.606473

>  <r_i_glide_evdw>  (237) 
-8.12888

>  <r_i_glide_ecoul>  (237) 
-7.92904

>  <r_i_glide_erotb>  (237) 
0

>  <r_i_glide_esite>  (237) 
-0.0833646

>  <r_i_glide_emodel>  (237) 
-17.046

>  <r_i_glide_energy>  (237) 
-16.0579

>  <r_i_glide_einternal>  (237) 
1.36106

>  <r_i_glide_intrahb_reward>  (237) 
-0

>  <i_i_glide_confnum>  (237) 
2

>  <i_i_glide_posenum>  (237) 
1

>  <r_i_glide_eff_state_penalty>  (237) 
0

>  <ligand_id>  (237) 
69

>  <original_smiles>  (237) 
COC12CCC(=O)C1C13C(O)C=CC1N(C)C21CCC2C(C1O)C31CCCC1N2C

>  <smiles>  (237) 
[H]OC1([H])C([H])=C([H])C2([H])C13C1([H])C(=O)C([H])([H])C([H])([H])C1(OC([H])([H])[H])C1(C([H])([H])C([H])([H])C4([H])C([H])(C1([H])O[H])C31C([H])([H])C([H])([H])C([H])([H])C1([H])[N+]4([H])C([H])([H])[H])[N+]2([H])C([H])([H])[H]

$$$$
69:1:1
     RDKit          3D

 66 72  0  0  1  0  0  0  0  0999 V2000
    5.3362   -3.6340   -1.7188 C   0  0  0  0  0  0  0  0  0  0  0  0
    5.5893   -2.8339   -0.5732 O   0  0  0  0  0  0  0  0  0  0  0  0
    5.0562   -3.1202    0.7476 C   0  0  2  0  0  0  0  0  0  0  0  0
    6.4191   -3.4912    1.4070 C   0  0  0  0  0  0  0  0  0  0  0  0
    6.5814   -5.0024    1.3964 C   0  0  0  0  0  0  0  0  0  0  0  0
    5.1679   -5.5039    1.3012 C   0  0  0  0  0  0  0  0  0  0  0  0
    4.8387   -6.6654    1.5013 O   0  0  0  0  0  0  0  0  0  0  0  0
    4.2421   -4.4045    0.8125 C   0  0  1  0  0  0  0  0  0  0  0  0
    2.8008   -4.1354    1.3084 C   0  0  2  0  0  0  0  0  0  0  0  0
    1.9843   -5.4158    0.8223 C   0  0  1  0  0  0  0  0  0  0  0  0
    0.8090   -5.8743    1.4452 O   0  0  0  0  0  0  0  0  0  0  0  0
    1.6567   -5.0633   -0.6117 C   0  0  0  0  0  0  0  0  0  0  0  0
    1.8993   -3.8236   -1.0109 C   0  0  0  0  0  0  0  0  0  0  0  0
    2.3356   -3.0355    0.1862 C   0  0  2  0  0  0  0  0  0  0  0  0
    3.1894   -1.7573   -0.0225 N   0  0  2  0  0  0  0  0  0  0  0  0
    3.5136   -1.2348   -1.4128 C   0  0  0  0  0  0  0  0  0  0  0  0
    4.1671   -1.7745    1.1063 C   0  0  2  0  0  0  0  0  0  0  0  0
    5.2074   -0.7693    1.5611 C   0  0  0  0  0  0  0  0  0  0  0  0
    5.5005   -1.1384    3.0993 C   0  0  0  0  0  0  0  0  0  0  0  0
    4.5351   -2.1694    3.8962 C   0  0  1  0  0  0  0  0  0  0  0  0
    3.1274   -2.2674    3.3477 C   0  0  1  0  0  0  0  0  0  0  0  0
    3.0207   -1.3995    2.1928 C   0  0  1  0  0  0  0  0  0  0  0  0
    2.8876   -0.0368    2.6082 O   0  0  0  0  0  0  0  0  0  0  0  0
    2.6902   -3.7162    2.9250 C   0  0  1  0  0  0  0  0  0  0  0  0
    1.2736   -3.9170    3.5694 C   0  0  0  0  0  0  0  0  0  0  0  0
    1.4143   -5.0473    4.5724 C   0  0  0  0  0  0  0  0  0  0  0  0
    2.8071   -4.7890    5.1351 C   0  0  0  0  0  0  0  0  0  0  0  0
    3.6295   -4.4795    3.8747 C   0  0  2  0  0  0  0  0  0  0  0  0
    4.8750   -3.6291    4.0766 N   0  0  2  0  0  0  0  0  0  0  0  0
    5.6707   -3.9714    5.3035 C   0  0  0  0  0  0  0  0  0  0  0  0
    5.6693   -3.0720   -2.6034 H   0  0  0  0  0  0  0  0  0  0  0  0
    4.2754   -3.7679   -1.9107 H   0  0  0  0  0  0  0  0  0  0  0  0
    5.8499   -4.5865   -1.7026 H   0  0  0  0  0  0  0  0  0  0  0  0
    7.2621   -3.0071    0.8996 H   0  0  0  0  0  0  0  0  0  0  0  0
    6.5342   -3.2159    2.4297 H   0  0  0  0  0  0  0  0  0  0  0  0
    7.1611   -5.3442    0.5404 H   0  0  0  0  0  0  0  0  0  0  0  0
    7.0416   -5.3862    2.3040 H   0  0  0  0  0  0  0  0  0  0  0  0
    4.0671   -4.8105   -0.1826 H   0  0  0  0  0  0  0  0  0  0  0  0
    2.5943   -6.3155    0.7735 H   0  0  0  0  0  0  0  0  0  0  0  0
    0.9290   -6.7893    1.7097 H   0  0  0  0  0  0  0  0  0  0  0  0
    1.2837   -5.8183   -1.2716 H   0  0  0  0  0  0  0  0  0  0  0  0
    1.7098   -3.4238   -2.0007 H   0  0  0  0  0  0  0  0  0  0  0  0
    1.4112   -2.6320    0.5072 H   0  0  0  0  0  0  0  0  0  0  0  0
    3.7304   -2.0132   -2.1193 H   0  0  0  0  0  0  0  0  0  0  0  0
    4.2643   -0.4489   -1.2968 H   0  0  0  0  0  0  0  0  0  0  0  0
    2.6265   -0.6853   -1.7845 H   0  0  0  0  0  0  0  0  0  0  0  0
    6.1234   -0.8306    0.9763 H   0  0  0  0  0  0  0  0  0  0  0  0
    4.9054    0.2669    1.4475 H   0  0  0  0  0  0  0  0  0  0  0  0
    6.5525   -1.3088    3.1906 H   0  0  0  0  0  0  0  0  0  0  0  0
    5.4077   -0.1967    3.6431 H   0  0  0  0  0  0  0  0  0  0  0  0
    4.4605   -1.7843    4.9156 H   0  0  0  0  0  0  0  0  0  0  0  0
    2.5051   -1.8618    4.1501 H   0  0  0  0  0  0  0  0  0  0  0  0
    1.9613   -1.4702    1.9613 H   0  0  0  0  0  0  0  0  0  0  0  0
    2.5606    0.4844    1.8873 H   0  0  0  0  0  0  0  0  0  0  0  0
    0.9081   -3.0467    4.1057 H   0  0  0  0  0  0  0  0  0  0  0  0
    0.4661   -4.0866    2.8828 H   0  0  0  0  0  0  0  0  0  0  0  0
    0.6298   -5.0180    5.3252 H   0  0  0  0  0  0  0  0  0  0  0  0
    1.3669   -6.0130    4.0739 H   0  0  0  0  0  0  0  0  0  0  0  0
    2.7654   -3.9338    5.8129 H   0  0  0  0  0  0  0  0  0  0  0  0
    3.1843   -5.6549    5.6813 H   0  0  0  0  0  0  0  0  0  0  0  0
    3.9002   -5.4556    3.4951 H   0  0  0  0  0  0  0  0  0  0  0  0
    5.1227   -3.7337    6.2216 H   0  0  0  0  0  0  0  0  0  0  0  0
    6.5965   -3.4100    5.2972 H   0  0  0  0  0  0  0  0  0  0  0  0
    5.9092   -5.0348    5.2963 H   0  0  0  0  0  0  0  0  0  0  0  0
    5.4768   -3.8592    3.2904 H   0  0  0  0  0  0  0  0  0  0  0  0
    2.4858   -1.1004    0.2773 H   0  0  0  0  0  0  0  0  0  0  0  0
  1  2  1  0
  1 31  1  0
  1 32  1  0
  1 33  1  0
  3  2  1  6
  3  8  1  0
  3 17  1  0
  3  4  1  0
  4  5  1  0
  4 34  1  0
  4 35  1  0
  5  6  1  0
  5 36  1  0
  5 37  1  0
  6  7  2  0
  6  8  1  0
  8  9  1  0
  8 38  1  6
  9 14  1  0
  9 24  1  1
  9 10  1  0
 10 11  1  0
 10 12  1  0
 10 39  1  6
 11 40  1  0
 12 13  2  0
 12 41  1  0
 13 14  1  0
 13 42  1  0
 14 15  1  0
 14 43  1  1
 15 16  1  0
 15 17  1  0
 15 66  1  1
 16 44  1  0
 16 45  1  0
 16 46  1  0
 17 22  1  0
 17 18  1  6
 18 19  1  0
 18 47  1  0
 18 48  1  0
 19 20  1  0
 19 49  1  0
 19 50  1  0
 20 29  1  0
 20 21  1  0
 20 51  1  1
 21 22  1  0
 21 24  1  0
 21 52  1  1
 22 23  1  0
 22 53  1  6
 23 54  1  0
 24 28  1  0
 24 25  1  1
 25 26  1  0
 25 55  1  0
 25 56  1  0
 26 27  1  0
 26 57  1  0
 26 58  1  0
 27 28  1  0
 27 59  1  0
 27 60  1  0
 28 29  1  0
 28 61  1  6
 29 30  1  0
 29 65  1  6
 30 62  1  0
 30 63  1  0
 30 64  1  0
M  CHG  2  15   1  29   1
M  END
>  <i_m_ct_stereo_status>  (238) 
1

>  <s_m_source_file>  (238) 
/var/tmp/pbs.5076255.sched01/tmpq3cms3f1/82_sdm1vz9.sdf

>  <i_m_source_file_index>  (238) 
17

>  <i_lp_mmshare_version>  (238) 
48012

>  <i_f3d_flags>  (238) 
0

>  <s_epik_input>  (238) 
W09IXVtDQEhdMVtDSF09W0NIXVtDQEBIXTJOKFtDSDNdKVtDQEBdKFtDQEBIXTNbT0hdKShbQ0BdNChPW0NIM10pW0NASF01Qyg9TylbQ0gyXVtDSDJdNClbQ0gyXVtDSDJdW0NAQEhdKFtDQEBIXTNbQ0BdNjdbQ0BAXTEyNSlOKFtDSDNdKVtDQEhdN1tDSDJdW0NIMl1bQ0gyXTY=

>  <s_epik_cmdline>  (238) 
J2VwaWtfcHl0aG9uJywgJy1waHQnLCAnMi4wJywgJy1waCcsICc3LjAnLCAnLXRuJywgJzgnLCAnLW1hJywgJzIwMCcsICctaW1hZScsICc8aW5maWxlLm1hZT4nLCAnLW9tYWUnLCAnPG91dGZpbGUubWFlPic=

>  <r_lp_tautomer_probability>  (238) 
1

>  <r_epik_Ionization_Penalty>  (238) 
1.17155

>  <r_epik_Ionization_Penalty_Charging>  (238) 
1.17146

>  <r_epik_Ionization_Penalty_Neutral>  (238) 
9.59938e-05

>  <r_epik_State_Penalty>  (238) 
1.21049

>  <r_epik_Charging_Adjusted_Penalty>  (238) 
2.38194

>  <i_epik_Tot_Q>  (238) 
2

>  <i_epik_Tot_abs_Q>  (238) 
2

>  <s_lp_Force_Field>  (238) 
OPLS3e

>  <r_lp_Energy>  (238) 
215.256

>  <b_lp_Chiralities_Consistent>  (238) 
1

>  <s_lp_Variant>  (238) 
69:0-2

>  <s_i_glide_gridfile>  (238) 
pfpi4k_grid

>  <i_i_glide_lignum>  (238) 
17

>  <i_i_glide_rotatable_bonds>  (238) 
3

>  <r_i_docking_score>  (238) 
-3.05175

>  <r_i_glide_ligand_efficiency>  (238) 
-0.101725

>  <r_i_glide_ligand_efficiency_sa>  (238) 
-0.316084

>  <r_i_glide_ligand_efficiency_ln>  (238) 
-0.693392

>  <r_i_glide_gscore>  (238) 
-3.05175

>  <r_i_glide_lipo>  (238) 
-0.541153

>  <r_i_glide_hbond>  (238) 
-0.224855

>  <r_i_glide_metal>  (238) 
-0

>  <r_i_glide_rewards>  (238) 
-0.648365

>  <r_i_glide_evdw>  (238) 
1.35559

>  <r_i_glide_ecoul>  (238) 
-10.7435

>  <r_i_glide_erotb>  (238) 
0

>  <r_i_glide_esite>  (238) 
-0.0936356

>  <r_i_glide_emodel>  (238) 
-4.38942

>  <r_i_glide_energy>  (238) 
-9.3879

>  <r_i_glide_einternal>  (238) 
6.91112

>  <r_i_glide_intrahb_reward>  (238) 
-0

>  <i_i_glide_confnum>  (238) 
2

>  <i_i_glide_posenum>  (238) 
22

>  <r_i_glide_eff_state_penalty>  (238) 
0

>  <ligand_id>  (238) 
69

>  <original_smiles>  (238) 
COC12CCC(=O)C1C13C(O)C=CC1N(C)C21CCC2C(C1O)C31CCCC1N2C

>  <smiles>  (238) 
[H]OC1([H])C([H])=C([H])C2([H])C13C1([H])C(=O)C([H])([H])C([H])([H])C1(OC([H])([H])[H])C1(C([H])([H])C([H])([H])C4([H])C([H])(C1([H])O[H])C31C([H])([H])C([H])([H])C([H])([H])C1([H])[N+]4([H])C([H])([H])[H])[N+]2([H])C([H])([H])[H]

$$$$
69:1:2
     RDKit          3D

 66 72  0  0  1  0  0  0  0  0999 V2000
    6.2077   -3.6831   -1.3936 C   0  0  0  0  0  0  0  0  0  0  0  0
    5.5450   -2.7634   -0.5292 O   0  0  0  0  0  0  0  0  0  0  0  0
    5.0875   -3.0748    0.8048 C   0  0  2  0  0  0  0  0  0  0  0  0
    6.4551   -3.4397    1.4684 C   0  0  0  0  0  0  0  0  0  0  0  0
    6.6098   -4.9642    1.4577 C   0  0  0  0  0  0  0  0  0  0  0  0
    5.1999   -5.4640    1.3168 C   0  0  0  0  0  0  0  0  0  0  0  0
    4.8558   -6.6191    1.5623 O   0  0  0  0  0  0  0  0  0  0  0  0
    4.2798   -4.3607    0.8138 C   0  0  1  0  0  0  0  0  0  0  0  0
    2.8433   -4.1213    1.3541 C   0  0  2  0  0  0  0  0  0  0  0  0
    2.0359   -5.4091    0.8855 C   0  0  1  0  0  0  0  0  0  0  0  0
    0.8514   -5.8667    1.5196 O   0  0  0  0  0  0  0  0  0  0  0  0
    1.6970   -5.0831   -0.5391 C   0  0  0  0  0  0  0  0  0  0  0  0
    1.9257   -3.8535   -0.9559 C   0  0  0  0  0  0  0  0  0  0  0  0
    2.3753   -3.0400    0.2251 C   0  0  2  0  0  0  0  0  0  0  0  0
    3.1893   -1.7726    0.0105 N   0  0  2  0  0  0  0  0  0  0  0  0
    3.5179   -1.3229   -1.3816 C   0  0  0  0  0  0  0  0  0  0  0  0
    4.1685   -1.7531    1.1268 C   0  0  2  0  0  0  0  0  0  0  0  0
    5.2060   -0.7271    1.5595 C   0  0  0  0  0  0  0  0  0  0  0  0
    5.5035   -1.0690    3.0969 C   0  0  0  0  0  0  0  0  0  0  0  0
    4.5547   -2.1220    3.9190 C   0  0  1  0  0  0  0  0  0  0  0  0
    3.1440   -2.2233    3.3757 C   0  0  1  0  0  0  0  0  0  0  0  0
    3.0325   -1.3715    2.2184 C   0  0  1  0  0  0  0  0  0  0  0  0
    2.8484   -0.0007    2.5618 O   0  0  0  0  0  0  0  0  0  0  0  0
    2.7236   -3.6783    2.9557 C   0  0  1  0  0  0  0  0  0  0  0  0
    1.3074   -3.8853    3.5905 C   0  0  0  0  0  0  0  0  0  0  0  0
    1.4497   -4.9903    4.6279 C   0  0  0  0  0  0  0  0  0  0  0  0
    2.8431   -4.7201    5.1847 C   0  0  0  0  0  0  0  0  0  0  0  0
    3.6718   -4.4226    3.9182 C   0  0  2  0  0  0  0  0  0  0  0  0
    4.9005   -3.5688    4.1090 N   0  0  2  0  0  0  0  0  0  0  0  0
    5.6831   -3.8884    5.3268 C   0  0  0  0  0  0  0  0  0  0  0  0
    6.2515   -3.2414   -2.3891 H   0  0  0  0  0  0  0  0  0  0  0  0
    5.6868   -4.6329   -1.4930 H   0  0  0  0  0  0  0  0  0  0  0  0
    7.2357   -3.8523   -1.0790 H   0  0  0  0  0  0  0  0  0  0  0  0
    7.2842   -2.9557    0.9539 H   0  0  0  0  0  0  0  0  0  0  0  0
    6.5676   -3.1569    2.4805 H   0  0  0  0  0  0  0  0  0  0  0  0
    7.1860   -5.3201    0.6077 H   0  0  0  0  0  0  0  0  0  0  0  0
    7.0680   -5.3441    2.3645 H   0  0  0  0  0  0  0  0  0  0  0  0
    4.1213   -4.6695   -0.2163 H   0  0  0  0  0  0  0  0  0  0  0  0
    2.6287   -6.3135    0.8457 H   0  0  0  0  0  0  0  0  0  0  0  0
    1.0620   -6.5355    2.1481 H   0  0  0  0  0  0  0  0  0  0  0  0
    1.3059   -5.8565   -1.1659 H   0  0  0  0  0  0  0  0  0  0  0  0
    1.7176   -3.4619   -1.9502 H   0  0  0  0  0  0  0  0  0  0  0  0
    1.4424   -2.6457    0.5540 H   0  0  0  0  0  0  0  0  0  0  0  0
    3.8381   -2.1582   -2.0150 H   0  0  0  0  0  0  0  0  0  0  0  0
    4.2815   -0.5417   -1.3349 H   0  0  0  0  0  0  0  0  0  0  0  0
    2.6212   -0.8949   -1.8648 H   0  0  0  0  0  0  0  0  0  0  0  0
    6.1128   -0.7956    0.9621 H   0  0  0  0  0  0  0  0  0  0  0  0
    4.8801    0.3016    1.4124 H   0  0  0  0  0  0  0  0  0  0  0  0
    6.5664   -1.2322    3.1883 H   0  0  0  0  0  0  0  0  0  0  0  0
    5.4056   -0.1259    3.6311 H   0  0  0  0  0  0  0  0  0  0  0  0
    4.4800   -1.7103    4.9273 H   0  0  0  0  0  0  0  0  0  0  0  0
    2.5160   -1.8146    4.1719 H   0  0  0  0  0  0  0  0  0  0  0  0
    1.9802   -1.4588    1.9812 H   0  0  0  0  0  0  0  0  0  0  0  0
    3.6531    0.3474    2.9090 H   0  0  0  0  0  0  0  0  0  0  0  0
    0.9221   -3.0179    4.1254 H   0  0  0  0  0  0  0  0  0  0  0  0
    0.5161   -4.0437    2.8809 H   0  0  0  0  0  0  0  0  0  0  0  0
    0.6745   -4.9575    5.3933 H   0  0  0  0  0  0  0  0  0  0  0  0
    1.4124   -5.9740    4.1580 H   0  0  0  0  0  0  0  0  0  0  0  0
    2.8065   -3.8573    5.8535 H   0  0  0  0  0  0  0  0  0  0  0  0
    3.2335   -5.5734    5.7423 H   0  0  0  0  0  0  0  0  0  0  0  0
    3.9371   -5.4064    3.5495 H   0  0  0  0  0  0  0  0  0  0  0  0
    5.1513   -3.6398    6.2529 H   0  0  0  0  0  0  0  0  0  0  0  0
    6.6034   -3.3021    5.3141 H   0  0  0  0  0  0  0  0  0  0  0  0
    5.9526   -4.9514    5.3359 H   0  0  0  0  0  0  0  0  0  0  0  0
    5.4979   -3.7993    3.3213 H   0  0  0  0  0  0  0  0  0  0  0  0
    2.4903   -1.0778    0.2664 H   0  0  0  0  0  0  0  0  0  0  0  0
  1  2  1  0
  1 31  1  0
  1 32  1  0
  1 33  1  0
  3  2  1  6
  3  8  1  0
  3 17  1  0
  3  4  1  0
  4  5  1  0
  4 34  1  0
  4 35  1  0
  5  6  1  0
  5 36  1  0
  5 37  1  0
  6  7  2  0
  6  8  1  0
  8  9  1  0
  8 38  1  6
  9 14  1  0
  9 24  1  1
  9 10  1  0
 10 11  1  0
 10 12  1  0
 10 39  1  6
 11 40  1  0
 12 13  2  0
 12 41  1  0
 13 14  1  0
 13 42  1  0
 14 15  1  0
 14 43  1  1
 15 16  1  0
 15 17  1  0
 15 66  1  1
 16 44  1  0
 16 45  1  0
 16 46  1  0
 17 22  1  0
 17 18  1  6
 18 19  1  0
 18 47  1  0
 18 48  1  0
 19 20  1  0
 19 49  1  0
 19 50  1  0
 20 29  1  0
 20 21  1  0
 20 51  1  1
 21 22  1  0
 21 24  1  0
 21 52  1  1
 22 23  1  0
 22 53  1  6
 23 54  1  0
 24 28  1  0
 24 25  1  1
 25 26  1  0
 25 55  1  0
 25 56  1  0
 26 27  1  0
 26 57  1  0
 26 58  1  0
 27 28  1  0
 27 59  1  0
 27 60  1  0
 28 29  1  0
 28 61  1  6
 29 30  1  0
 29 65  1  6
 30 62  1  0
 30 63  1  0
 30 64  1  0
M  CHG  2  15   1  29   1
M  END
>  <i_m_ct_stereo_status>  (239) 
1

>  <s_m_source_file>  (239) 
/var/tmp/pbs.5076255.sched01/tmpq3cms3f1/82_sdm1vz9.sdf

>  <i_m_source_file_index>  (239) 
17

>  <i_lp_mmshare_version>  (239) 
48012

>  <i_f3d_flags>  (239) 
0

>  <s_epik_input>  (239) 
W09IXVtDQEhdMVtDSF09W0NIXVtDQEBIXTJOKFtDSDNdKVtDQEBdKFtDQEBIXTNbT0hdKShbQ0BdNChPW0NIM10pW0NASF01Qyg9TylbQ0gyXVtDSDJdNClbQ0gyXVtDSDJdW0NAQEhdKFtDQEBIXTNbQ0BdNjdbQ0BAXTEyNSlOKFtDSDNdKVtDQEhdN1tDSDJdW0NIMl1bQ0gyXTY=

>  <s_epik_cmdline>  (239) 
J2VwaWtfcHl0aG9uJywgJy1waHQnLCAnMi4wJywgJy1waCcsICc3LjAnLCAnLXRuJywgJzgnLCAnLW1hJywgJzIwMCcsICctaW1hZScsICc8aW5maWxlLm1hZT4nLCAnLW9tYWUnLCAnPG91dGZpbGUubWFlPic=

>  <r_lp_tautomer_probability>  (239) 
1

>  <r_epik_Ionization_Penalty>  (239) 
1.17155

>  <r_epik_Ionization_Penalty_Charging>  (239) 
1.17146

>  <r_epik_Ionization_Penalty_Neutral>  (239) 
9.59938e-05

>  <r_epik_State_Penalty>  (239) 
1.21049

>  <r_epik_Charging_Adjusted_Penalty>  (239) 
2.38194

>  <i_epik_Tot_Q>  (239) 
2

>  <i_epik_Tot_abs_Q>  (239) 
2

>  <s_lp_Force_Field>  (239) 
OPLS3e

>  <r_lp_Energy>  (239) 
215.256

>  <b_lp_Chiralities_Consistent>  (239) 
1

>  <s_lp_Variant>  (239) 
69:0-2

>  <s_i_glide_gridfile>  (239) 
pfpi4k_grid

>  <i_i_glide_lignum>  (239) 
17

>  <i_i_glide_rotatable_bonds>  (239) 
3

>  <r_i_docking_score>  (239) 
-3.00998

>  <r_i_glide_ligand_efficiency>  (239) 
-0.100333

>  <r_i_glide_ligand_efficiency_sa>  (239) 
-0.311757

>  <r_i_glide_ligand_efficiency_ln>  (239) 
-0.6839

>  <r_i_glide_gscore>  (239) 
-3.00998

>  <r_i_glide_lipo>  (239) 
-0.584425

>  <r_i_glide_hbond>  (239) 
-0.221015

>  <r_i_glide_metal>  (239) 
-0

>  <r_i_glide_rewards>  (239) 
-0.646564

>  <r_i_glide_evdw>  (239) 
-1.41611

>  <r_i_glide_ecoul>  (239) 
-9.30654

>  <r_i_glide_erotb>  (239) 
0

>  <r_i_glide_esite>  (239) 
-0.0911887

>  <r_i_glide_emodel>  (239) 
-11.7494

>  <r_i_glide_energy>  (239) 
-10.7226

>  <r_i_glide_einternal>  (239) 
0.768079

>  <r_i_glide_intrahb_reward>  (239) 
-0

>  <i_i_glide_confnum>  (239) 
1

>  <i_i_glide_posenum>  (239) 
28

>  <r_i_glide_eff_state_penalty>  (239) 
0

>  <ligand_id>  (239) 
69

>  <original_smiles>  (239) 
COC12CCC(=O)C1C13C(O)C=CC1N(C)C21CCC2C(C1O)C31CCCC1N2C

>  <smiles>  (239) 
[H]OC1([H])C([H])=C([H])C2([H])C13C1([H])C(=O)C([H])([H])C([H])([H])C1(OC([H])([H])[H])C1(C([H])([H])C([H])([H])C4([H])C([H])(C1([H])O[H])C31C([H])([H])C([H])([H])C([H])([H])C1([H])[N+]4([H])C([H])([H])[H])[N+]2([H])C([H])([H])[H]

$$$$
70:0:0
     RDKit          3D

 35 37  0  0  1  0  0  0  0  0999 V2000
    0.1055    0.2966    5.1937 O   0  0  0  0  0  0  0  0  0  0  0  0
   -0.5108    1.1917    4.6126 C   0  0  0  0  0  0  0  0  0  0  0  0
   -1.9324    1.5511    4.9845 C   0  0  0  0  0  0  0  0  0  0  0  0
   -2.2258    2.8023    4.1536 C   0  0  0  0  0  0  0  0  0  0  0  0
   -1.0521    2.9331    3.1675 C   0  0  0  0  0  0  0  0  0  0  0  0
   -0.0619    1.9609    3.6121 N   0  0  0  0  0  0  0  0  0  0  0  0
    1.2787    1.9127    3.0230 C   0  0  0  0  0  0  0  0  0  0  0  0
    1.4321    0.7274    2.0525 C   0  0  0  0  0  0  0  0  0  0  0  0
    2.9031    0.4321    1.7140 C   0  0  0  0  0  0  0  0  0  0  0  0
    3.0150   -0.6454    0.7402 N   0  0  0  0  0  0  0  0  0  0  0  0
    4.2597   -1.0781    0.2719 C   0  0  0  0  0  0  0  0  0  0  0  0
    5.3773   -0.7914    0.9803 N   0  0  0  0  0  0  0  0  0  0  0  0
    6.5506   -1.2586    0.5557 C   0  0  0  0  0  0  0  0  0  0  0  0
    6.8191   -1.9744   -0.5357 N   0  0  0  0  0  0  0  0  0  0  0  0
    5.6854   -2.2621   -1.2450 C   0  0  0  0  0  0  0  0  0  0  0  0
    5.6943   -3.2075   -2.7220 S   0  0  0  0  0  0  0  0  0  0  0  0
    3.9714   -3.0533   -2.8714 C   0  0  0  0  0  0  0  0  0  0  0  0
    3.3830   -2.3170   -1.8744 C   0  0  0  0  0  0  0  0  0  0  0  0
    4.3600   -1.8471   -0.9124 C   0  0  0  0  0  0  0  0  0  0  0  0
   -2.5751    0.7177    4.7036 H   0  0  0  0  0  0  0  0  0  0  0  0
   -2.0244    1.7310    6.0561 H   0  0  0  0  0  0  0  0  0  0  0  0
   -3.1827    2.7203    3.6375 H   0  0  0  0  0  0  0  0  0  0  0  0
   -2.2808    3.6745    4.8056 H   0  0  0  0  0  0  0  0  0  0  0  0
   -1.3674    2.6880    2.1531 H   0  0  0  0  0  0  0  0  0  0  0  0
   -0.6534    3.9488    3.1553 H   0  0  0  0  0  0  0  0  0  0  0  0
    1.5051    2.8521    2.5082 H   0  0  0  0  0  0  0  0  0  0  0  0
    2.0007    1.8244    3.8351 H   0  0  0  0  0  0  0  0  0  0  0  0
    0.9904   -0.1715    2.4813 H   0  0  0  0  0  0  0  0  0  0  0  0
    0.8528    0.9373    1.1512 H   0  0  0  0  0  0  0  0  0  0  0  0
    3.3809    1.3293    1.3238 H   0  0  0  0  0  0  0  0  0  0  0  0
    3.4331    0.1403    2.6211 H   0  0  0  0  0  0  0  0  0  0  0  0
    7.4071   -1.0114    1.1685 H   0  0  0  0  0  0  0  0  0  0  0  0
    3.4658   -3.5340   -3.6934 H   0  0  0  0  0  0  0  0  0  0  0  0
    2.3218   -2.1176   -1.8061 H   0  0  0  0  0  0  0  0  0  0  0  0
    2.1782   -0.8001    0.1569 H   0  0  0  0  0  0  0  0  0  0  0  0
  1  2  2  0
  2  6  1  0
  2  3  1  0
  3  4  1  0
  3 20  1  0
  3 21  1  0
  4  5  1  0
  4 22  1  0
  4 23  1  0
  5  6  1  0
  5 24  1  0
  5 25  1  0
  6  7  1  0
  7  8  1  0
  7 26  1  0
  7 27  1  0
  8  9  1  0
  8 28  1  0
  8 29  1  0
  9 10  1  0
  9 30  1  0
  9 31  1  0
 10 11  1  0
 10 35  1  0
 11 19  1  0
 11 12  2  0
 12 13  1  0
 13 14  2  0
 13 32  1  0
 14 15  1  0
 15 19  2  0
 15 16  1  0
 16 17  1  0
 17 18  2  0
 17 33  1  0
 18 19  1  0
 18 34  1  0
M  END
>  <i_m_ct_stereo_status>  (240) 
1

>  <s_m_source_file>  (240) 
/var/tmp/pbs.5076255.sched01/tmpq3cms3f1/82_sdm1vz9.sdf

>  <i_m_source_file_index>  (240) 
18

>  <i_lp_mmshare_version>  (240) 
48012

>  <i_f3d_flags>  (240) 
0

>  <s_epik_input>  (240) 
Tz1DMVtDSDJdW0NIMl1bQ0gyXU4xW0NIMl1bQ0gyXVtDSDJdL049YygvbltjSF1bbkhdMiljKGMyMylbY0hdW2NIXXMz

>  <s_epik_cmdline>  (240) 
J2VwaWtfcHl0aG9uJywgJy1waHQnLCAnMi4wJywgJy1waCcsICc3LjAnLCAnLXRuJywgJzgnLCAnLW1hJywgJzIwMCcsICctaW1hZScsICc8aW5maWxlLm1hZT4nLCAnLW9tYWUnLCAnPG91dGZpbGUubWFlPic=

>  <r_epik_Ionization_Penalty>  (240) 
0.00015648

>  <r_epik_Ionization_Penalty_Charging>  (240) 
0

>  <r_epik_Ionization_Penalty_Neutral>  (240) 
0.00015648

>  <r_epik_State_Penalty>  (240) 
0.00755756

>  <r_epik_Charging_Adjusted_Penalty>  (240) 
0.00755756

>  <i_epik_Tot_Q>  (240) 
0

>  <i_epik_Tot_abs_Q>  (240) 
0

>  <s_lp_Force_Field>  (240) 
OPLS3e

>  <r_lp_Energy>  (240) 
15.6033

>  <b_lp_Chiralities_Consistent>  (240) 
1

>  <s_lp_Variant>  (240) 
70:0-1

>  <s_i_glide_gridfile>  (240) 
pfpi4k_grid

>  <i_i_glide_lignum>  (240) 
18

>  <i_i_glide_rotatable_bonds>  (240) 
5

>  <r_i_docking_score>  (240) 
-3.86412

>  <r_i_glide_ligand_efficiency>  (240) 
-0.203374

>  <r_i_glide_ligand_efficiency_sa>  (240) 
-0.542685

>  <r_i_glide_ligand_efficiency_ln>  (240) 
-0.979636

>  <r_i_glide_gscore>  (240) 
-3.86412

>  <r_i_glide_lipo>  (240) 
-0.295676

>  <r_i_glide_hbond>  (240) 
-0.32

>  <r_i_glide_metal>  (240) 
-0

>  <r_i_glide_rewards>  (240) 
-1.53076

>  <r_i_glide_evdw>  (240) 
-25.8494

>  <r_i_glide_ecoul>  (240) 
-6.72363

>  <r_i_glide_erotb>  (240) 
0.706664

>  <r_i_glide_esite>  (240) 
-0.123328

>  <r_i_glide_emodel>  (240) 
-40.6403

>  <r_i_glide_energy>  (240) 
-32.573

>  <r_i_glide_einternal>  (240) 
0.854179

>  <r_i_glide_intrahb_reward>  (240) 
-0

>  <i_i_glide_confnum>  (240) 
4

>  <i_i_glide_posenum>  (240) 
13

>  <r_i_glide_eff_state_penalty>  (240) 
0

>  <ligand_id>  (240) 
70

>  <original_smiles>  (240) 
O=C1CCCN1CCCN=c1nc[nH]c2sccc12

>  <smiles>  (240) 
[H]c1nc(N([H])C([H])([H])C([H])([H])C([H])([H])N2C(=O)C([H])([H])C([H])([H])C2([H])[H])c2c([H])c([H])sc2n1

$$$$
70:0:1
     RDKit          3D

 35 37  0  0  1  0  0  0  0  0999 V2000
   -1.0497    0.6439    2.4933 O   0  0  0  0  0  0  0  0  0  0  0  0
   -0.9721    1.7502    3.0232 C   0  0  0  0  0  0  0  0  0  0  0  0
   -2.1860    2.4649    3.5851 C   0  0  0  0  0  0  0  0  0  0  0  0
   -1.5922    3.6706    4.3218 C   0  0  0  0  0  0  0  0  0  0  0  0
   -0.1132    3.7168    3.9016 C   0  0  0  0  0  0  0  0  0  0  0  0
    0.1452    2.4584    3.2127 N   0  0  0  0  0  0  0  0  0  0  0  0
    1.5198    2.1108    2.8157 C   0  0  0  0  0  0  0  0  0  0  0  0
    1.6471    0.8310    1.9633 C   0  0  0  0  0  0  0  0  0  0  0  0
    3.0714    0.3962    1.6373 C   0  0  0  0  0  0  0  0  0  0  0  0
    3.0450   -0.6673    0.6454 N   0  0  0  0  0  0  0  0  0  0  0  0
    4.2272   -1.2116    0.1545 C   0  0  0  0  0  0  0  0  0  0  0  0
    5.3705   -1.0660    0.8694 N   0  0  0  0  0  0  0  0  0  0  0  0
    6.4960   -1.6078    0.4115 C   0  0  0  0  0  0  0  0  0  0  0  0
    6.6910   -2.2877   -0.7210 N   0  0  0  0  0  0  0  0  0  0  0  0
    5.5279   -2.4488   -1.4351 C   0  0  0  0  0  0  0  0  0  0  0  0
    5.4334   -3.3525   -2.9437 S   0  0  0  0  0  0  0  0  0  0  0  0
    3.7391   -2.9949   -3.0789 C   0  0  0  0  0  0  0  0  0  0  0  0
    3.2410   -2.2560   -2.0437 C   0  0  0  0  0  0  0  0  0  0  0  0
    4.2592   -1.9343   -1.0699 C   0  0  0  0  0  0  0  0  0  0  0  0
   -2.8471    2.7599    2.7631 H   0  0  0  0  0  0  0  0  0  0  0  0
   -2.7049    1.7922    4.2667 H   0  0  0  0  0  0  0  0  0  0  0  0
   -2.1237    4.5819    4.0491 H   0  0  0  0  0  0  0  0  0  0  0  0
   -1.6760    3.5320    5.4035 H   0  0  0  0  0  0  0  0  0  0  0  0
    0.0707    4.5458    3.2214 H   0  0  0  0  0  0  0  0  0  0  0  0
    0.5460    3.8569    4.7572 H   0  0  0  0  0  0  0  0  0  0  0  0
    1.9448    2.9467    2.2603 H   0  0  0  0  0  0  0  0  0  0  0  0
    2.1388    2.0109    3.7059 H   0  0  0  0  0  0  0  0  0  0  0  0
    1.1680   -0.0023    2.4813 H   0  0  0  0  0  0  0  0  0  0  0  0
    1.0898    0.9699    1.0338 H   0  0  0  0  0  0  0  0  0  0  0  0
    3.6743    1.2303    1.2622 H   0  0  0  0  0  0  0  0  0  0  0  0
    3.5394    0.0152    2.5497 H   0  0  0  0  0  0  0  0  0  0  0  0
    7.3630   -1.4578    1.0420 H   0  0  0  0  0  0  0  0  0  0  0  0
    3.1819   -3.3743   -3.9248 H   0  0  0  0  0  0  0  0  0  0  0  0
    2.2212   -1.9379   -1.9408 H   0  0  0  0  0  0  0  0  0  0  0  0
    2.1808   -0.7637    0.0996 H   0  0  0  0  0  0  0  0  0  0  0  0
  1  2  2  0
  2  6  1  0
  2  3  1  0
  3  4  1  0
  3 20  1  0
  3 21  1  0
  4  5  1  0
  4 22  1  0
  4 23  1  0
  5  6  1  0
  5 24  1  0
  5 25  1  0
  6  7  1  0
  7  8  1  0
  7 26  1  0
  7 27  1  0
  8  9  1  0
  8 28  1  0
  8 29  1  0
  9 10  1  0
  9 30  1  0
  9 31  1  0
 10 11  1  0
 10 35  1  0
 11 19  1  0
 11 12  2  0
 12 13  1  0
 13 14  2  0
 13 32  1  0
 14 15  1  0
 15 19  2  0
 15 16  1  0
 16 17  1  0
 17 18  2  0
 17 33  1  0
 18 19  1  0
 18 34  1  0
M  END
>  <i_m_ct_stereo_status>  (241) 
1

>  <s_m_source_file>  (241) 
/var/tmp/pbs.5076255.sched01/tmpq3cms3f1/82_sdm1vz9.sdf

>  <i_m_source_file_index>  (241) 
18

>  <i_lp_mmshare_version>  (241) 
48012

>  <i_f3d_flags>  (241) 
0

>  <s_epik_input>  (241) 
Tz1DMVtDSDJdW0NIMl1bQ0gyXU4xW0NIMl1bQ0gyXVtDSDJdL049YygvbltjSF1bbkhdMiljKGMyMylbY0hdW2NIXXMz

>  <s_epik_cmdline>  (241) 
J2VwaWtfcHl0aG9uJywgJy1waHQnLCAnMi4wJywgJy1waCcsICc3LjAnLCAnLXRuJywgJzgnLCAnLW1hJywgJzIwMCcsICctaW1hZScsICc8aW5maWxlLm1hZT4nLCAnLW9tYWUnLCAnPG91dGZpbGUubWFlPic=

>  <r_epik_Ionization_Penalty>  (241) 
0.00015648

>  <r_epik_Ionization_Penalty_Charging>  (241) 
0

>  <r_epik_Ionization_Penalty_Neutral>  (241) 
0.00015648

>  <r_epik_State_Penalty>  (241) 
0.00755756

>  <r_epik_Charging_Adjusted_Penalty>  (241) 
0.00755756

>  <i_epik_Tot_Q>  (241) 
0

>  <i_epik_Tot_abs_Q>  (241) 
0

>  <s_lp_Force_Field>  (241) 
OPLS3e

>  <r_lp_Energy>  (241) 
15.6033

>  <b_lp_Chiralities_Consistent>  (241) 
1

>  <s_lp_Variant>  (241) 
70:0-1

>  <s_i_glide_gridfile>  (241) 
pfpi4k_grid

>  <i_i_glide_lignum>  (241) 
18

>  <i_i_glide_rotatable_bonds>  (241) 
5

>  <r_i_docking_score>  (241) 
-3.66746

>  <r_i_glide_ligand_efficiency>  (241) 
-0.193024

>  <r_i_glide_ligand_efficiency_sa>  (241) 
-0.515067

>  <r_i_glide_ligand_efficiency_ln>  (241) 
-0.929781

>  <r_i_glide_gscore>  (241) 
-3.66746

>  <r_i_glide_lipo>  (241) 
-0.392425

>  <r_i_glide_hbond>  (241) 
-0.249189

>  <r_i_glide_metal>  (241) 
-0

>  <r_i_glide_rewards>  (241) 
-1.5613

>  <r_i_glide_evdw>  (241) 
-27.6445

>  <r_i_glide_ecoul>  (241) 
-3.96515

>  <r_i_glide_erotb>  (241) 
0.706664

>  <r_i_glide_esite>  (241) 
-0.194215

>  <r_i_glide_emodel>  (241) 
-35.3497

>  <r_i_glide_energy>  (241) 
-31.6096

>  <r_i_glide_einternal>  (241) 
7.98957

>  <r_i_glide_intrahb_reward>  (241) 
-0

>  <i_i_glide_confnum>  (241) 
4

>  <i_i_glide_posenum>  (241) 
12

>  <r_i_glide_eff_state_penalty>  (241) 
0

>  <ligand_id>  (241) 
70

>  <original_smiles>  (241) 
O=C1CCCN1CCCN=c1nc[nH]c2sccc12

>  <smiles>  (241) 
[H]c1nc(N([H])C([H])([H])C([H])([H])C([H])([H])N2C(=O)C([H])([H])C([H])([H])C2([H])[H])c2c([H])c([H])sc2n1

$$$$
70:0:2
     RDKit          3D

 35 37  0  0  1  0  0  0  0  0999 V2000
    6.2820   -3.2191   -2.2717 O   0  0  0  0  0  0  0  0  0  0  0  0
    5.1392   -3.0607   -2.6956 C   0  0  0  0  0  0  0  0  0  0  0  0
    4.5384   -3.9288   -3.7854 C   0  0  0  0  0  0  0  0  0  0  0  0
    3.0908   -3.4330   -3.8854 C   0  0  0  0  0  0  0  0  0  0  0  0
    3.0199   -2.1616   -3.0290 C   0  0  0  0  0  0  0  0  0  0  0  0
    4.2735   -2.1259   -2.2912 N   0  0  0  0  0  0  0  0  0  0  0  0
    4.5153   -1.1109   -1.2677 C   0  0  0  0  0  0  0  0  0  0  0  0
    4.4390   -1.7123    0.1497 C   0  0  0  0  0  0  0  0  0  0  0  0
    4.4163   -0.6519    1.2581 C   0  0  0  0  0  0  0  0  0  0  0  0
    3.0743   -0.1017    1.4186 N   0  0  0  0  0  0  0  0  0  0  0  0
    2.6496    0.4642    2.6291 C   0  0  0  0  0  0  0  0  0  0  0  0
    3.5074    0.5705    3.6699 N   0  0  0  0  0  0  0  0  0  0  0  0
    3.0724    1.0878    4.8206 C   0  0  0  0  0  0  0  0  0  0  0  0
    1.8543    1.5327    5.1313 N   0  0  0  0  0  0  0  0  0  0  0  0
    0.9934    1.4296    4.0797 C   0  0  0  0  0  0  0  0  0  0  0  0
   -0.6938    1.9221    4.1615 S   0  0  0  0  0  0  0  0  0  0  0  0
   -0.9399    1.4327    2.5133 C   0  0  0  0  0  0  0  0  0  0  0  0
    0.1765    0.9180    1.9017 C   0  0  0  0  0  0  0  0  0  0  0  0
    1.3112    0.9034    2.7910 C   0  0  0  0  0  0  0  0  0  0  0  0
    5.0649   -3.7946   -4.7215 H   0  0  0  0  0  0  0  0  0  0  0  0
    4.6241   -4.9849   -3.5352 H   0  0  0  0  0  0  0  0  0  0  0  0
    2.8121   -3.2201   -4.9116 H   0  0  0  0  0  0  0  0  0  0  0  0
    2.3912   -4.1845   -3.5247 H   0  0  0  0  0  0  0  0  0  0  0  0
    2.9254   -1.2750   -3.6610 H   0  0  0  0  0  0  0  0  0  0  0  0
    2.1595   -2.1946   -2.3611 H   0  0  0  0  0  0  0  0  0  0  0  0
    5.4985   -0.6641   -1.4195 H   0  0  0  0  0  0  0  0  0  0  0  0
    3.8136   -0.2937   -1.3952 H   0  0  0  0  0  0  0  0  0  0  0  0
    3.5761   -2.3734    0.2540 H   0  0  0  0  0  0  0  0  0  0  0  0
    5.3067   -2.3522    0.2929 H   0  0  0  0  0  0  0  0  0  0  0  0
    4.7433   -1.1198    2.1887 H   0  0  0  0  0  0  0  0  0  0  0  0
    5.1301    0.1451    1.0326 H   0  0  0  0  0  0  0  0  0  0  0  0
    3.8097    1.1407    5.6108 H   0  0  0  0  0  0  0  0  0  0  0  0
   -1.9123    1.5633    2.0571 H   0  0  0  0  0  0  0  0  0  0  0  0
    0.2177    0.5665    0.8826 H   0  0  0  0  0  0  0  0  0  0  0  0
    2.3932   -0.2615    0.6827 H   0  0  0  0  0  0  0  0  0  0  0  0
  1  2  2  0
  2  6  1  0
  2  3  1  0
  3  4  1  0
  3 20  1  0
  3 21  1  0
  4  5  1  0
  4 22  1  0
  4 23  1  0
  5  6  1  0
  5 24  1  0
  5 25  1  0
  6  7  1  0
  7  8  1  0
  7 26  1  0
  7 27  1  0
  8  9  1  0
  8 28  1  0
  8 29  1  0
  9 10  1  0
  9 30  1  0
  9 31  1  0
 10 11  1  0
 10 35  1  0
 11 19  1  0
 11 12  2  0
 12 13  1  0
 13 14  2  0
 13 32  1  0
 14 15  1  0
 15 19  2  0
 15 16  1  0
 16 17  1  0
 17 18  2  0
 17 33  1  0
 18 19  1  0
 18 34  1  0
M  END
>  <i_m_ct_stereo_status>  (242) 
1

>  <s_m_source_file>  (242) 
/var/tmp/pbs.5076255.sched01/tmpq3cms3f1/82_sdm1vz9.sdf

>  <i_m_source_file_index>  (242) 
18

>  <i_lp_mmshare_version>  (242) 
48012

>  <i_f3d_flags>  (242) 
0

>  <s_epik_input>  (242) 
Tz1DMVtDSDJdW0NIMl1bQ0gyXU4xW0NIMl1bQ0gyXVtDSDJdL049YygvbltjSF1bbkhdMiljKGMyMylbY0hdW2NIXXMz

>  <s_epik_cmdline>  (242) 
J2VwaWtfcHl0aG9uJywgJy1waHQnLCAnMi4wJywgJy1waCcsICc3LjAnLCAnLXRuJywgJzgnLCAnLW1hJywgJzIwMCcsICctaW1hZScsICc8aW5maWxlLm1hZT4nLCAnLW9tYWUnLCAnPG91dGZpbGUubWFlPic=

>  <r_epik_Ionization_Penalty>  (242) 
0.00015648

>  <r_epik_Ionization_Penalty_Charging>  (242) 
0

>  <r_epik_Ionization_Penalty_Neutral>  (242) 
0.00015648

>  <r_epik_State_Penalty>  (242) 
0.00755756

>  <r_epik_Charging_Adjusted_Penalty>  (242) 
0.00755756

>  <i_epik_Tot_Q>  (242) 
0

>  <i_epik_Tot_abs_Q>  (242) 
0

>  <s_lp_Force_Field>  (242) 
OPLS3e

>  <r_lp_Energy>  (242) 
15.6033

>  <b_lp_Chiralities_Consistent>  (242) 
1

>  <s_lp_Variant>  (242) 
70:0-1

>  <s_i_glide_gridfile>  (242) 
pfpi4k_grid

>  <i_i_glide_lignum>  (242) 
18

>  <i_i_glide_rotatable_bonds>  (242) 
5

>  <r_i_docking_score>  (242) 
-3.15703

>  <r_i_glide_ligand_efficiency>  (242) 
-0.16616

>  <r_i_glide_ligand_efficiency_sa>  (242) 
-0.443381

>  <r_i_glide_ligand_efficiency_ln>  (242) 
-0.800376

>  <r_i_glide_gscore>  (242) 
-3.15703

>  <r_i_glide_lipo>  (242) 
-0.214351

>  <r_i_glide_hbond>  (242) 
-0.0381374

>  <r_i_glide_metal>  (242) 
-0

>  <r_i_glide_rewards>  (242) 
-1.81584

>  <r_i_glide_evdw>  (242) 
-26.6694

>  <r_i_glide_ecoul>  (242) 
-2.97747

>  <r_i_glide_erotb>  (242) 
0.706664

>  <r_i_glide_esite>  (242) 
-0.0152735

>  <r_i_glide_emodel>  (242) 
-34.8712

>  <r_i_glide_energy>  (242) 
-29.6469

>  <r_i_glide_einternal>  (242) 
3.33052

>  <r_i_glide_intrahb_reward>  (242) 
-0

>  <i_i_glide_confnum>  (242) 
3

>  <i_i_glide_posenum>  (242) 
17

>  <r_i_glide_eff_state_penalty>  (242) 
0

>  <ligand_id>  (242) 
70

>  <original_smiles>  (242) 
O=C1CCCN1CCCN=c1nc[nH]c2sccc12

>  <smiles>  (242) 
[H]c1nc(N([H])C([H])([H])C([H])([H])C([H])([H])N2C(=O)C([H])([H])C([H])([H])C2([H])[H])c2c([H])c([H])sc2n1

$$$$
70:1:0
     RDKit          3D

 36 38  0  0  1  0  0  0  0  0999 V2000
   -1.6590    1.3398    8.3688 O   0  0  0  0  0  0  0  0  0  0  0  0
   -1.9249    2.4834    8.7128 C   0  0  0  0  0  0  0  0  0  0  0  0
   -1.5957    3.0088   10.0873 C   0  0  0  0  0  0  0  0  0  0  0  0
   -1.9617    4.4892    9.9873 C   0  0  0  0  0  0  0  0  0  0  0  0
   -2.7192    4.6606    8.6588 C   0  0  0  0  0  0  0  0  0  0  0  0
   -2.5288    3.4042    7.9521 N   0  0  0  0  0  0  0  0  0  0  0  0
   -3.0006    3.1929    6.5810 C   0  0  0  0  0  0  0  0  0  0  0  0
   -1.8800    2.6411    5.6898 C   0  0  0  0  0  0  0  0  0  0  0  0
   -2.2497    2.6601    4.1868 C   0  0  0  0  0  0  0  0  0  0  0  0
   -1.3402    1.8453    3.3795 N   0  0  0  0  0  0  0  0  0  0  0  0
   -0.0696    2.0465    3.1117 C   0  0  0  0  0  0  0  0  0  0  0  0
    0.5100    1.0261    2.3970 N   0  0  0  0  0  0  0  0  0  0  0  0
    1.7737    1.0956    2.0928 C   0  0  0  0  0  0  0  0  0  0  0  0
    2.5876    2.1480    2.5049 N   0  0  0  0  0  0  0  0  0  0  0  0
    2.0473    3.1889    3.2255 C   0  0  0  0  0  0  0  0  0  0  0  0
    2.9064    4.5906    3.7964 S   0  0  0  0  0  0  0  0  0  0  0  0
    1.4392    5.2364    4.5071 C   0  0  0  0  0  0  0  0  0  0  0  0
    0.3494    4.4435    4.2305 C   0  0  0  0  0  0  0  0  0  0  0  0
    0.7110    3.2346    3.5593 C   0  0  0  0  0  0  0  0  0  0  0  0
    3.5656    2.2467    2.2305 H   0  0  0  0  0  0  0  0  0  0  0  0
   -2.2049    2.4751   10.8168 H   0  0  0  0  0  0  0  0  0  0  0  0
   -0.5423    2.8419   10.3083 H   0  0  0  0  0  0  0  0  0  0  0  0
   -2.5664    4.8010   10.8372 H   0  0  0  0  0  0  0  0  0  0  0  0
   -1.0521    5.0896    9.9830 H   0  0  0  0  0  0  0  0  0  0  0  0
   -3.7840    4.8219    8.8330 H   0  0  0  0  0  0  0  0  0  0  0  0
   -2.3263    5.5044    8.0885 H   0  0  0  0  0  0  0  0  0  0  0  0
   -3.8418    2.5101    6.6124 H   0  0  0  0  0  0  0  0  0  0  0  0
   -3.3631    4.1295    6.1545 H   0  0  0  0  0  0  0  0  0  0  0  0
   -0.9961    3.2392    5.9333 H   0  0  0  0  0  0  0  0  0  0  0  0
   -1.6217    1.6087    5.9527 H   0  0  0  0  0  0  0  0  0  0  0  0
   -3.2238    2.2023    4.0371 H   0  0  0  0  0  0  0  0  0  0  0  0
   -2.3197    3.6494    3.7324 H   0  0  0  0  0  0  0  0  0  0  0  0
    2.2708    0.3202    1.4866 H   0  0  0  0  0  0  0  0  0  0  0  0
    1.4666    6.1650    5.0608 H   0  0  0  0  0  0  0  0  0  0  0  0
   -0.6519    4.7389    4.5168 H   0  0  0  0  0  0  0  0  0  0  0  0
   -1.7268    1.0016    2.9988 H   0  0  0  0  0  0  0  0  0  0  0  0
  1  2  2  0
  2  6  1  0
  2  3  1  0
  3  4  1  0
  3 21  1  0
  3 22  1  0
  4  5  1  0
  4 23  1  0
  4 24  1  0
  5  6  1  0
  5 25  1  0
  5 26  1  0
  6  7  1  0
  7  8  1  0
  7 27  1  0
  7 28  1  0
  8  9  1  0
  8 29  1  0
  8 30  1  0
  9 10  1  0
  9 31  1  0
  9 32  1  0
 10 11  2  3
 10 36  1  0
 11 19  1  0
 11 12  1  0
 12 13  2  0
 13 14  1  0
 13 33  1  0
 14 20  1  0
 14 15  1  0
 15 19  2  0
 15 16  1  0
 16 17  1  0
 17 18  2  0
 17 34  1  0
 18 19  1  0
 18 35  1  0
M  CHG  1  10   1
M  END
>  <i_m_ct_stereo_status>  (243) 
1

>  <s_m_source_file>  (243) 
/var/tmp/pbs.5076255.sched01/tmpq3cms3f1/82_sdm1vz9.sdf

>  <i_m_source_file_index>  (243) 
19

>  <i_lp_mmshare_version>  (243) 
48012

>  <i_f3d_flags>  (243) 
0

>  <s_epik_input>  (243) 
Tz1DMVtDSDJdW0NIMl1bQ0gyXU4xW0NIMl1bQ0gyXVtDSDJdL049YygvbltjSF1bbkhdMiljKGMyMylbY0hdW2NIXXMz

>  <s_epik_cmdline>  (243) 
J2VwaWtfcHl0aG9uJywgJy1waHQnLCAnMi4wJywgJy1waCcsICc3LjAnLCAnLXRuJywgJzgnLCAnLW1hJywgJzIwMCcsICctaW1hZScsICc8aW5maWxlLm1hZT4nLCAnLW9tYWUnLCAnPG91dGZpbGUubWFlPic=

>  <r_epik_Ionization_Penalty>  (243) 
0.353127

>  <r_epik_Ionization_Penalty_Charging>  (243) 
1.76996e-05

>  <r_epik_Ionization_Penalty_Neutral>  (243) 
0.353109

>  <r_epik_State_Penalty>  (243) 
2.58807

>  <r_epik_Charging_Adjusted_Penalty>  (243) 
2.58808

>  <i_epik_Tot_Q>  (243) 
1

>  <i_epik_Tot_abs_Q>  (243) 
1

>  <s_epik_Chemistry_Notes>  (243) 
This compound has an imine and may undergo hydrolysis.

>  <s_lp_Force_Field>  (243) 
OPLS3e

>  <r_lp_Energy>  (243) 
22.9517

>  <b_lp_Chiralities_Consistent>  (243) 
1

>  <s_lp_Variant>  (243) 
70:0-2

>  <s_i_glide_gridfile>  (243) 
pfpi4k_grid

>  <i_i_glide_lignum>  (243) 
19

>  <i_i_glide_rotatable_bonds>  (243) 
4

>  <r_i_docking_score>  (243) 
-3.58174

>  <r_i_glide_ligand_efficiency>  (243) 
-0.188513

>  <r_i_glide_ligand_efficiency_sa>  (243) 
-0.503028

>  <r_i_glide_ligand_efficiency_ln>  (243) 
-0.908048

>  <r_i_glide_gscore>  (243) 
-3.58174

>  <r_i_glide_lipo>  (243) 
-0.292962

>  <r_i_glide_hbond>  (243) 
-0.365

>  <r_i_glide_metal>  (243) 
-0

>  <r_i_glide_rewards>  (243) 
-1.64006

>  <r_i_glide_evdw>  (243) 
-20.2824

>  <r_i_glide_ecoul>  (243) 
-5.76436

>  <r_i_glide_erotb>  (243) 
0.702216

>  <r_i_glide_esite>  (243) 
-0.107157

>  <r_i_glide_emodel>  (243) 
-32.6091

>  <r_i_glide_energy>  (243) 
-26.0468

>  <r_i_glide_einternal>  (243) 
3.335

>  <r_i_glide_intrahb_reward>  (243) 
-0

>  <i_i_glide_confnum>  (243) 
3

>  <i_i_glide_posenum>  (243) 
39

>  <r_i_glide_eff_state_penalty>  (243) 
0

>  <ligand_id>  (243) 
70

>  <original_smiles>  (243) 
O=C1CCCN1CCCN=c1nc[nH]c2sccc12

>  <smiles>  (243) 
[H]c1sc2c(c1[H])c(=[N+]([H])C([H])([H])C([H])([H])C([H])([H])N1C(=O)C([H])([H])C([H])([H])C1([H])[H])nc([H])n2[H]

$$$$
70:1:1
     RDKit          3D

 36 38  0  0  1  0  0  0  0  0999 V2000
    6.8705   -1.5067   -0.2826 O   0  0  0  0  0  0  0  0  0  0  0  0
    6.0228   -2.2707   -0.7417 C   0  0  0  0  0  0  0  0  0  0  0  0
    6.3746   -3.5862   -1.3915 C   0  0  0  0  0  0  0  0  0  0  0  0
    5.0136   -4.2264   -1.6776 C   0  0  0  0  0  0  0  0  0  0  0  0
    3.9680   -3.1309   -1.4191 C   0  0  0  0  0  0  0  0  0  0  0  0
    4.7041   -2.0677   -0.7536 N   0  0  0  0  0  0  0  0  0  0  0  0
    4.0323   -0.8793   -0.2485 C   0  0  0  0  0  0  0  0  0  0  0  0
    4.0254   -0.8337    1.2864 C   0  0  0  0  0  0  0  0  0  0  0  0
    3.4182    0.4571    1.8320 C   0  0  0  0  0  0  0  0  0  0  0  0
    1.9502    0.4843    1.6844 N   0  0  0  0  0  0  0  0  0  0  0  0
    1.0779    1.2152    2.3027 C   0  0  0  0  0  0  0  0  0  0  0  0
   -0.2127    0.9236    1.9690 N   0  0  0  0  0  0  0  0  0  0  0  0
   -1.1886    1.6178    2.4805 C   0  0  0  0  0  0  0  0  0  0  0  0
   -0.9978    2.6170    3.4239 N   0  0  0  0  0  0  0  0  0  0  0  0
    0.2974    2.9416    3.7998 C   0  0  0  0  0  0  0  0  0  0  0  0
    0.7283    4.1646    4.9526 S   0  0  0  0  0  0  0  0  0  0  0  0
    2.4218    3.7679    4.7608 C   0  0  0  0  0  0  0  0  0  0  0  0
    2.6255    2.7686    3.8401 C   0  0  0  0  0  0  0  0  0  0  0  0
    1.3893    2.2928    3.2965 C   0  0  0  0  0  0  0  0  0  0  0  0
   -1.7657    3.1615    3.7877 H   0  0  0  0  0  0  0  0  0  0  0  0
    6.9360   -3.4017   -2.3073 H   0  0  0  0  0  0  0  0  0  0  0  0
    6.9804   -4.1878   -0.7160 H   0  0  0  0  0  0  0  0  0  0  0  0
    4.9596   -4.6108   -2.6957 H   0  0  0  0  0  0  0  0  0  0  0  0
    4.8485   -5.0692   -1.0067 H   0  0  0  0  0  0  0  0  0  0  0  0
    3.5446   -2.7657   -2.3562 H   0  0  0  0  0  0  0  0  0  0  0  0
    3.1466   -3.4958   -0.8010 H   0  0  0  0  0  0  0  0  0  0  0  0
    4.5378    0.0029   -0.6429 H   0  0  0  0  0  0  0  0  0  0  0  0
    3.0177   -0.8512   -0.6327 H   0  0  0  0  0  0  0  0  0  0  0  0
    3.5041   -1.6995    1.6970 H   0  0  0  0  0  0  0  0  0  0  0  0
    5.0459   -0.9035    1.6592 H   0  0  0  0  0  0  0  0  0  0  0  0
    3.6632    0.5107    2.8917 H   0  0  0  0  0  0  0  0  0  0  0  0
    3.8066    1.3323    1.3082 H   0  0  0  0  0  0  0  0  0  0  0  0
   -2.2221    1.4519    2.1771 H   0  0  0  0  0  0  0  0  0  0  0  0
    3.1678    4.3050    5.3307 H   0  0  0  0  0  0  0  0  0  0  0  0
    3.6060    2.4096    3.5860 H   0  0  0  0  0  0  0  0  0  0  0  0
    1.5473   -0.1540    0.9939 H   0  0  0  0  0  0  0  0  0  0  0  0
  1  2  2  0
  2  6  1  0
  2  3  1  0
  3  4  1  0
  3 21  1  0
  3 22  1  0
  4  5  1  0
  4 23  1  0
  4 24  1  0
  5  6  1  0
  5 25  1  0
  5 26  1  0
  6  7  1  0
  7  8  1  0
  7 27  1  0
  7 28  1  0
  8  9  1  0
  8 29  1  0
  8 30  1  0
  9 10  1  0
  9 31  1  0
  9 32  1  0
 10 11  2  3
 10 36  1  0
 11 19  1  0
 11 12  1  0
 12 13  2  0
 13 14  1  0
 13 33  1  0
 14 20  1  0
 14 15  1  0
 15 19  2  0
 15 16  1  0
 16 17  1  0
 17 18  2  0
 17 34  1  0
 18 19  1  0
 18 35  1  0
M  CHG  1  10   1
M  END
>  <i_m_ct_stereo_status>  (244) 
1

>  <s_m_source_file>  (244) 
/var/tmp/pbs.5076255.sched01/tmpq3cms3f1/82_sdm1vz9.sdf

>  <i_m_source_file_index>  (244) 
19

>  <i_lp_mmshare_version>  (244) 
48012

>  <i_f3d_flags>  (244) 
0

>  <s_epik_input>  (244) 
Tz1DMVtDSDJdW0NIMl1bQ0gyXU4xW0NIMl1bQ0gyXVtDSDJdL049YygvbltjSF1bbkhdMiljKGMyMylbY0hdW2NIXXMz

>  <s_epik_cmdline>  (244) 
J2VwaWtfcHl0aG9uJywgJy1waHQnLCAnMi4wJywgJy1waCcsICc3LjAnLCAnLXRuJywgJzgnLCAnLW1hJywgJzIwMCcsICctaW1hZScsICc8aW5maWxlLm1hZT4nLCAnLW9tYWUnLCAnPG91dGZpbGUubWFlPic=

>  <r_epik_Ionization_Penalty>  (244) 
0.353127

>  <r_epik_Ionization_Penalty_Charging>  (244) 
1.76996e-05

>  <r_epik_Ionization_Penalty_Neutral>  (244) 
0.353109

>  <r_epik_State_Penalty>  (244) 
2.58807

>  <r_epik_Charging_Adjusted_Penalty>  (244) 
2.58808

>  <i_epik_Tot_Q>  (244) 
1

>  <i_epik_Tot_abs_Q>  (244) 
1

>  <s_epik_Chemistry_Notes>  (244) 
This compound has an imine and may undergo hydrolysis.

>  <s_lp_Force_Field>  (244) 
OPLS3e

>  <r_lp_Energy>  (244) 
22.9517

>  <b_lp_Chiralities_Consistent>  (244) 
1

>  <s_lp_Variant>  (244) 
70:0-2

>  <s_i_glide_gridfile>  (244) 
pfpi4k_grid

>  <i_i_glide_lignum>  (244) 
19

>  <i_i_glide_rotatable_bonds>  (244) 
4

>  <r_i_docking_score>  (244) 
-3.40373

>  <r_i_glide_ligand_efficiency>  (244) 
-0.179144

>  <r_i_glide_ligand_efficiency_sa>  (244) 
-0.478027

>  <r_i_glide_ligand_efficiency_ln>  (244) 
-0.862918

>  <r_i_glide_gscore>  (244) 
-3.40373

>  <r_i_glide_lipo>  (244) 
-0.221215

>  <r_i_glide_hbond>  (244) 
-0.279019

>  <r_i_glide_metal>  (244) 
-0

>  <r_i_glide_rewards>  (244) 
-1.51796

>  <r_i_glide_evdw>  (244) 
-20.322

>  <r_i_glide_ecoul>  (244) 
-5.85575

>  <r_i_glide_erotb>  (244) 
0.702216

>  <r_i_glide_esite>  (244) 
-0.193291

>  <r_i_glide_emodel>  (244) 
-33.3462

>  <r_i_glide_energy>  (244) 
-26.1777

>  <r_i_glide_einternal>  (244) 
2.17505

>  <r_i_glide_intrahb_reward>  (244) 
-0

>  <i_i_glide_confnum>  (244) 
5

>  <i_i_glide_posenum>  (244) 
2

>  <r_i_glide_eff_state_penalty>  (244) 
0

>  <ligand_id>  (244) 
70

>  <original_smiles>  (244) 
O=C1CCCN1CCCN=c1nc[nH]c2sccc12

>  <smiles>  (244) 
[H]c1sc2c(c1[H])c(=[N+]([H])C([H])([H])C([H])([H])C([H])([H])N1C(=O)C([H])([H])C([H])([H])C1([H])[H])nc([H])n2[H]

$$$$
70:1:2
     RDKit          3D

 36 38  0  0  1  0  0  0  0  0999 V2000
    6.2099   -3.3837   -1.1767 O   0  0  0  0  0  0  0  0  0  0  0  0
    5.2616   -3.0752   -1.8992 C   0  0  0  0  0  0  0  0  0  0  0  0
    5.0083   -3.7135   -3.2505 C   0  0  0  0  0  0  0  0  0  0  0  0
    3.6702   -3.1009   -3.6940 C   0  0  0  0  0  0  0  0  0  0  0  0
    3.3713   -1.9655   -2.7021 C   0  0  0  0  0  0  0  0  0  0  0  0
    4.3442   -2.1394   -1.6334 N   0  0  0  0  0  0  0  0  0  0  0  0
    4.3086   -1.3063   -0.4380 C   0  0  0  0  0  0  0  0  0  0  0  0
    3.6008   -2.0118    0.7250 C   0  0  0  0  0  0  0  0  0  0  0  0
    3.5490   -1.1125    1.9623 C   0  0  0  0  0  0  0  0  0  0  0  0
    2.5625   -0.0201    1.7998 N   0  0  0  0  0  0  0  0  0  0  0  0
    1.4367    0.2166    2.3989 C   0  0  0  0  0  0  0  0  0  0  0  0
    0.8153    1.3481    1.9349 N   0  0  0  0  0  0  0  0  0  0  0  0
   -0.3225    1.7242    2.4487 C   0  0  0  0  0  0  0  0  0  0  0  0
   -0.9498    1.0283    3.4752 N   0  0  0  0  0  0  0  0  0  0  0  0
   -0.3550   -0.1214    3.9748 C   0  0  0  0  0  0  0  0  0  0  0  0
   -1.0200   -1.1066    5.2422 S   0  0  0  0  0  0  0  0  0  0  0  0
    0.3291   -2.2076    5.1239 C   0  0  0  0  0  0  0  0  0  0  0  0
    1.2223   -1.8310    4.1536 C   0  0  0  0  0  0  0  0  0  0  0  0
    0.8269   -0.6114    3.4995 C   0  0  0  0  0  0  0  0  0  0  0  0
   -1.8514    1.3112    3.8402 H   0  0  0  0  0  0  0  0  0  0  0  0
    5.8289   -3.4583   -3.9172 H   0  0  0  0  0  0  0  0  0  0  0  0
    4.9662   -4.7985   -3.1564 H   0  0  0  0  0  0  0  0  0  0  0  0
    3.7041   -2.7348   -4.7172 H   0  0  0  0  0  0  0  0  0  0  0  0
    2.8834   -3.8523   -3.6425 H   0  0  0  0  0  0  0  0  0  0  0  0
    3.5060   -0.9846   -3.1629 H   0  0  0  0  0  0  0  0  0  0  0  0
    2.3482   -2.0185   -2.3223 H   0  0  0  0  0  0  0  0  0  0  0  0
    5.3298   -1.0561   -0.1397 H   0  0  0  0  0  0  0  0  0  0  0  0
    3.8179   -0.3634   -0.6743 H   0  0  0  0  0  0  0  0  0  0  0  0
    2.6003   -2.3291    0.4293 H   0  0  0  0  0  0  0  0  0  0  0  0
    4.1352   -2.9252    0.9729 H   0  0  0  0  0  0  0  0  0  0  0  0
    3.3516   -1.7081    2.8229 H   0  0  0  0  0  0  0  0  0  0  0  0
    4.5172   -0.6362    2.1371 H   0  0  0  0  0  0  0  0  0  0  0  0
   -0.8622    2.6205    2.0998 H   0  0  0  0  0  0  0  0  0  0  0  0
    0.4078   -3.0735    5.7663 H   0  0  0  0  0  0  0  0  0  0  0  0
    2.0886   -2.4394    3.9767 H   0  0  0  0  0  0  0  0  0  0  0  0
    2.7607    0.6501    1.0608 H   0  0  0  0  0  0  0  0  0  0  0  0
  1  2  2  0
  2  6  1  0
  2  3  1  0
  3  4  1  0
  3 21  1  0
  3 22  1  0
  4  5  1  0
  4 23  1  0
  4 24  1  0
  5  6  1  0
  5 25  1  0
  5 26  1  0
  6  7  1  0
  7  8  1  0
  7 27  1  0
  7 28  1  0
  8  9  1  0
  8 29  1  0
  8 30  1  0
  9 10  1  0
  9 31  1  0
  9 32  1  0
 10 11  2  3
 10 36  1  0
 11 19  1  0
 11 12  1  0
 12 13  2  0
 13 14  1  0
 13 33  1  0
 14 20  1  0
 14 15  1  0
 15 19  2  0
 15 16  1  0
 16 17  1  0
 17 18  2  0
 17 34  1  0
 18 19  1  0
 18 35  1  0
M  CHG  1  10   1
M  END
>  <i_m_ct_stereo_status>  (245) 
1

>  <s_m_source_file>  (245) 
/var/tmp/pbs.5076255.sched01/tmpq3cms3f1/82_sdm1vz9.sdf

>  <i_m_source_file_index>  (245) 
19

>  <i_lp_mmshare_version>  (245) 
48012

>  <i_f3d_flags>  (245) 
0

>  <s_epik_input>  (245) 
Tz1DMVtDSDJdW0NIMl1bQ0gyXU4xW0NIMl1bQ0gyXVtDSDJdL049YygvbltjSF1bbkhdMiljKGMyMylbY0hdW2NIXXMz

>  <s_epik_cmdline>  (245) 
J2VwaWtfcHl0aG9uJywgJy1waHQnLCAnMi4wJywgJy1waCcsICc3LjAnLCAnLXRuJywgJzgnLCAnLW1hJywgJzIwMCcsICctaW1hZScsICc8aW5maWxlLm1hZT4nLCAnLW9tYWUnLCAnPG91dGZpbGUubWFlPic=

>  <r_epik_Ionization_Penalty>  (245) 
0.353127

>  <r_epik_Ionization_Penalty_Charging>  (245) 
1.76996e-05

>  <r_epik_Ionization_Penalty_Neutral>  (245) 
0.353109

>  <r_epik_State_Penalty>  (245) 
2.58807

>  <r_epik_Charging_Adjusted_Penalty>  (245) 
2.58808

>  <i_epik_Tot_Q>  (245) 
1

>  <i_epik_Tot_abs_Q>  (245) 
1

>  <s_epik_Chemistry_Notes>  (245) 
This compound has an imine and may undergo hydrolysis.

>  <s_lp_Force_Field>  (245) 
OPLS3e

>  <r_lp_Energy>  (245) 
22.9517

>  <b_lp_Chiralities_Consistent>  (245) 
1

>  <s_lp_Variant>  (245) 
70:0-2

>  <s_i_glide_gridfile>  (245) 
pfpi4k_grid

>  <i_i_glide_lignum>  (245) 
19

>  <i_i_glide_rotatable_bonds>  (245) 
4

>  <r_i_docking_score>  (245) 
-2.99157

>  <r_i_glide_ligand_efficiency>  (245) 
-0.157451

>  <r_i_glide_ligand_efficiency_sa>  (245) 
-0.420143

>  <r_i_glide_ligand_efficiency_ln>  (245) 
-0.758428

>  <r_i_glide_gscore>  (245) 
-2.99157

>  <r_i_glide_lipo>  (245) 
-0.298063

>  <r_i_glide_hbond>  (245) 
0

>  <r_i_glide_metal>  (245) 
-0

>  <r_i_glide_rewards>  (245) 
-1.64856

>  <r_i_glide_evdw>  (245) 
-26.1924

>  <r_i_glide_ecoul>  (245) 
-1.84672

>  <r_i_glide_erotb>  (245) 
0.702216

>  <r_i_glide_esite>  (245) 
-0.160542

>  <r_i_glide_emodel>  (245) 
-34.679

>  <r_i_glide_energy>  (245) 
-28.0391

>  <r_i_glide_einternal>  (245) 
1.29015

>  <r_i_glide_intrahb_reward>  (245) 
-0

>  <i_i_glide_confnum>  (245) 
5

>  <i_i_glide_posenum>  (245) 
12

>  <r_i_glide_eff_state_penalty>  (245) 
0

>  <ligand_id>  (245) 
70

>  <original_smiles>  (245) 
O=C1CCCN1CCCN=c1nc[nH]c2sccc12

>  <smiles>  (245) 
[H]c1sc2c(c1[H])c(=[N+]([H])C([H])([H])C([H])([H])C([H])([H])N1C(=O)C([H])([H])C([H])([H])C1([H])[H])nc([H])n2[H]

$$$$
70:2:0
     RDKit          3D

 36 38  0  0  1  0  0  0  0  0999 V2000
    7.5010   -2.2581   -1.2306 O   0  0  0  0  0  0  0  0  0  0  0  0
    7.7125   -3.1810   -0.4547 C   0  0  0  0  0  0  0  0  0  0  0  0
    9.0977   -3.5374    0.0428 C   0  0  0  0  0  0  0  0  0  0  0  0
    8.8413   -4.6440    1.0761 C   0  0  0  0  0  0  0  0  0  0  0  0
    7.3612   -5.0240    0.9332 C   0  0  0  0  0  0  0  0  0  0  0  0
    6.7909   -4.0115    0.0465 N   0  0  0  0  0  0  0  0  0  0  0  0
    5.3584   -3.9837   -0.2659 C   0  0  0  0  0  0  0  0  0  0  0  0
    4.7633   -2.6986    0.2875 C   0  0  0  0  0  0  0  0  0  0  0  0
    3.2214   -2.6751    0.3572 C   0  0  0  0  0  0  0  0  0  0  0  0
    2.6471   -1.4309    0.9143 N   0  0  0  0  0  0  0  0  0  0  0  0
    3.0285   -0.8445    2.0203 C   0  0  0  0  0  0  0  0  0  0  0  0
    4.0294   -1.3880    2.7753 N   0  0  0  0  0  0  0  0  0  0  0  0
    4.5008   -0.7497    3.8101 C   0  0  0  0  0  0  0  0  0  0  0  0
    3.9780    0.4533    4.2655 N   0  0  0  0  0  0  0  0  0  0  0  0
    2.9131    1.0118    3.5733 C   0  0  0  0  0  0  0  0  0  0  0  0
    2.0518    2.4614    3.9964 S   0  0  0  0  0  0  0  0  0  0  0  0
    0.9811    2.2317    2.6224 C   0  0  0  0  0  0  0  0  0  0  0  0
    1.2862    1.1151    1.8782 C   0  0  0  0  0  0  0  0  0  0  0  0
    2.3871    0.4231    2.4538 C   0  0  0  0  0  0  0  0  0  0  0  0
    4.3300    0.9183    5.0932 H   0  0  0  0  0  0  0  0  0  0  0  0
    9.6685   -3.8996   -0.8091 H   0  0  0  0  0  0  0  0  0  0  0  0
    9.6040   -2.6689    0.4665 H   0  0  0  0  0  0  0  0  0  0  0  0
    9.4744   -5.5162    0.9241 H   0  0  0  0  0  0  0  0  0  0  0  0
    9.0407   -4.2668    2.0770 H   0  0  0  0  0  0  0  0  0  0  0  0
    7.2523   -6.0021    0.4643 H   0  0  0  0  0  0  0  0  0  0  0  0
    6.8597   -5.0531    1.9030 H   0  0  0  0  0  0  0  0  0  0  0  0
    5.2015   -4.0380   -1.3425 H   0  0  0  0  0  0  0  0  0  0  0  0
    4.8693   -4.8393    0.2045 H   0  0  0  0  0  0  0  0  0  0  0  0
    5.2179   -2.6612    1.2799 H   0  0  0  0  0  0  0  0  0  0  0  0
    5.1034   -1.8094   -0.2482 H   0  0  0  0  0  0  0  0  0  0  0  0
    2.8047   -2.7558   -0.6431 H   0  0  0  0  0  0  0  0  0  0  0  0
    2.8122   -3.5028    0.9358 H   0  0  0  0  0  0  0  0  0  0  0  0
    5.3661   -1.1188    4.3650 H   0  0  0  0  0  0  0  0  0  0  0  0
    0.2039    2.9626    2.4416 H   0  0  0  0  0  0  0  0  0  0  0  0
    0.7684    0.8025    0.9836 H   0  0  0  0  0  0  0  0  0  0  0  0
    1.8691   -1.0462    0.3492 H   0  0  0  0  0  0  0  0  0  0  0  0
  1  2  2  0
  2  6  1  0
  2  3  1  0
  3  4  1  0
  3 21  1  0
  3 22  1  0
  4  5  1  0
  4 23  1  0
  4 24  1  0
  5  6  1  0
  5 25  1  0
  5 26  1  0
  6  7  1  0
  7  8  1  0
  7 27  1  0
  7 28  1  0
  8  9  1  0
  8 29  1  0
  8 30  1  0
  9 10  1  0
  9 31  1  0
  9 32  1  0
 10 11  2  3
 10 36  1  0
 11 19  1  0
 11 12  1  0
 12 13  2  0
 13 14  1  0
 13 33  1  0
 14 20  1  0
 14 15  1  0
 15 19  2  0
 15 16  1  0
 16 17  1  0
 17 18  2  0
 17 34  1  0
 18 19  1  0
 18 35  1  0
M  CHG  1  10   1
M  END
>  <i_m_ct_stereo_status>  (246) 
1

>  <s_m_source_file>  (246) 
/var/tmp/pbs.5076255.sched01/tmpq3cms3f1/82_sdm1vz9.sdf

>  <i_m_source_file_index>  (246) 
20

>  <i_lp_mmshare_version>  (246) 
48012

>  <i_f3d_flags>  (246) 
0

>  <s_epik_input>  (246) 
Tz1DMVtDSDJdW0NIMl1bQ0gyXU4xW0NIMl1bQ0gyXVtDSDJdL049YygvbltjSF1bbkhdMiljKGMyMylbY0hdW2NIXXMz

>  <s_epik_cmdline>  (246) 
J2VwaWtfcHl0aG9uJywgJy1waHQnLCAnMi4wJywgJy1waCcsICc3LjAnLCAnLXRuJywgJzgnLCAnLW1hJywgJzIwMCcsICctaW1hZScsICc8aW5maWxlLm1hZT4nLCAnLW9tYWUnLCAnPG91dGZpbGUubWFlPic=

>  <r_epik_Ionization_Penalty>  (246) 
0.353127

>  <r_epik_Ionization_Penalty_Charging>  (246) 
1.76996e-05

>  <r_epik_Ionization_Penalty_Neutral>  (246) 
0.353109

>  <r_epik_State_Penalty>  (246) 
2.58807

>  <r_epik_Charging_Adjusted_Penalty>  (246) 
2.58808

>  <i_epik_Tot_Q>  (246) 
1

>  <i_epik_Tot_abs_Q>  (246) 
1

>  <s_epik_Chemistry_Notes>  (246) 
This compound has an imine and may undergo hydrolysis.

>  <s_lp_Force_Field>  (246) 
OPLS3e

>  <r_lp_Energy>  (246) 
22.4724

>  <b_lp_Chiralities_Consistent>  (246) 
1

>  <s_lp_Variant>  (246) 
70:0-3

>  <s_i_glide_gridfile>  (246) 
pfpi4k_grid

>  <i_i_glide_lignum>  (246) 
20

>  <i_i_glide_rotatable_bonds>  (246) 
4

>  <r_i_docking_score>  (246) 
-4.68807

>  <r_i_glide_ligand_efficiency>  (246) 
-0.246741

>  <r_i_glide_ligand_efficiency_sa>  (246) 
-0.658403

>  <r_i_glide_ligand_efficiency_ln>  (246) 
-1.18853

>  <r_i_glide_gscore>  (246) 
-4.68807

>  <r_i_glide_lipo>  (246) 
-0.18476

>  <r_i_glide_hbond>  (246) 
-0.36

>  <r_i_glide_metal>  (246) 
-0

>  <r_i_glide_rewards>  (246) 
-1.92123

>  <r_i_glide_evdw>  (246) 
-20.3464

>  <r_i_glide_ecoul>  (246) 
-12.3197

>  <r_i_glide_erotb>  (246) 
0.702216

>  <r_i_glide_esite>  (246) 
-0.0590288

>  <r_i_glide_emodel>  (246) 
-42.7112

>  <r_i_glide_energy>  (246) 
-32.6661

>  <r_i_glide_einternal>  (246) 
2.58675

>  <r_i_glide_intrahb_reward>  (246) 
-0

>  <i_i_glide_confnum>  (246) 
3

>  <i_i_glide_posenum>  (246) 
7

>  <r_i_glide_eff_state_penalty>  (246) 
0

>  <ligand_id>  (246) 
70

>  <original_smiles>  (246) 
O=C1CCCN1CCCN=c1nc[nH]c2sccc12

>  <smiles>  (246) 
[H]c1sc2c(c1[H])c(=[N+]([H])C([H])([H])C([H])([H])C([H])([H])N1C(=O)C([H])([H])C([H])([H])C1([H])[H])nc([H])n2[H]

$$$$
70:2:1
     RDKit          3D

 36 38  0  0  1  0  0  0  0  0999 V2000
    5.5840   -1.0594   -1.5305 O   0  0  0  0  0  0  0  0  0  0  0  0
    4.6191   -1.4929   -2.1570 C   0  0  0  0  0  0  0  0  0  0  0  0
    4.1738   -0.9328   -3.4944 C   0  0  0  0  0  0  0  0  0  0  0  0
    3.0842   -1.9111   -3.9378 C   0  0  0  0  0  0  0  0  0  0  0  0
    2.7774   -2.7991   -2.7254 C   0  0  0  0  0  0  0  0  0  0  0  0
    3.8409   -2.5113   -1.7789 N   0  0  0  0  0  0  0  0  0  0  0  0
    3.9714   -3.2433   -0.5268 C   0  0  0  0  0  0  0  0  0  0  0  0
    5.0979   -4.2886   -0.5939 C   0  0  0  0  0  0  0  0  0  0  0  0
    5.3490   -4.9526    0.7620 C   0  0  0  0  0  0  0  0  0  0  0  0
    4.1671   -5.7104    1.2302 N   0  0  0  0  0  0  0  0  0  0  0  0
    4.0858   -6.9938    1.3782 C   0  0  0  0  0  0  0  0  0  0  0  0
    5.1849   -7.7742    1.1260 N   0  0  0  0  0  0  0  0  0  0  0  0
    5.0953   -9.0666    1.2853 C   0  0  0  0  0  0  0  0  0  0  0  0
    3.9335   -9.7031    1.7151 N   0  0  0  0  0  0  0  0  0  0  0  0
    2.7992   -8.9459    1.9640 C   0  0  0  0  0  0  0  0  0  0  0  0
    1.2545   -9.5325    2.4921 S   0  0  0  0  0  0  0  0  0  0  0  0
    0.6103   -7.8953    2.5041 C   0  0  0  0  0  0  0  0  0  0  0  0
    1.5518   -6.9618    2.1242 C   0  0  0  0  0  0  0  0  0  0  0  0
    2.7977   -7.5889    1.8169 C   0  0  0  0  0  0  0  0  0  0  0  0
    3.8689  -10.7210    1.7152 H   0  0  0  0  0  0  0  0  0  0  0  0
    3.7828    0.0776   -3.3618 H   0  0  0  0  0  0  0  0  0  0  0  0
    4.9967   -0.9096   -4.2045 H   0  0  0  0  0  0  0  0  0  0  0  0
    2.2075   -1.3830   -4.3050 H   0  0  0  0  0  0  0  0  0  0  0  0
    3.4432   -2.5341   -4.7515 H   0  0  0  0  0  0  0  0  0  0  0  0
    1.8119   -2.5432   -2.2920 H   0  0  0  0  0  0  0  0  0  0  0  0
    2.7600   -3.8545   -2.9965 H   0  0  0  0  0  0  0  0  0  0  0  0
    4.1751   -2.5306    0.2745 H   0  0  0  0  0  0  0  0  0  0  0  0
    3.0200   -3.7187   -0.2900 H   0  0  0  0  0  0  0  0  0  0  0  0
    4.8659   -5.0483   -1.3416 H   0  0  0  0  0  0  0  0  0  0  0  0
    6.0269   -3.8246   -0.9251 H   0  0  0  0  0  0  0  0  0  0  0  0
    6.2214   -5.6079    0.7051 H   0  0  0  0  0  0  0  0  0  0  0  0
    5.5677   -4.2114    1.5298 H   0  0  0  0  0  0  0  0  0  0  0  0
    5.9403   -9.7290    1.0738 H   0  0  0  0  0  0  0  0  0  0  0  0
   -0.4180   -7.7505    2.8066 H   0  0  0  0  0  0  0  0  0  0  0  0
    1.3903   -5.8976    2.0742 H   0  0  0  0  0  0  0  0  0  0  0  0
    3.3338   -5.1656    1.4246 H   0  0  0  0  0  0  0  0  0  0  0  0
  1  2  2  0
  2  6  1  0
  2  3  1  0
  3  4  1  0
  3 21  1  0
  3 22  1  0
  4  5  1  0
  4 23  1  0
  4 24  1  0
  5  6  1  0
  5 25  1  0
  5 26  1  0
  6  7  1  0
  7  8  1  0
  7 27  1  0
  7 28  1  0
  8  9  1  0
  8 29  1  0
  8 30  1  0
  9 10  1  0
  9 31  1  0
  9 32  1  0
 10 11  2  3
 10 36  1  0
 11 19  1  0
 11 12  1  0
 12 13  2  0
 13 14  1  0
 13 33  1  0
 14 20  1  0
 14 15  1  0
 15 19  2  0
 15 16  1  0
 16 17  1  0
 17 18  2  0
 17 34  1  0
 18 19  1  0
 18 35  1  0
M  CHG  1  10   1
M  END
>  <i_m_ct_stereo_status>  (247) 
1

>  <s_m_source_file>  (247) 
/var/tmp/pbs.5076255.sched01/tmpq3cms3f1/82_sdm1vz9.sdf

>  <i_m_source_file_index>  (247) 
20

>  <i_lp_mmshare_version>  (247) 
48012

>  <i_f3d_flags>  (247) 
0

>  <s_epik_input>  (247) 
Tz1DMVtDSDJdW0NIMl1bQ0gyXU4xW0NIMl1bQ0gyXVtDSDJdL049YygvbltjSF1bbkhdMiljKGMyMylbY0hdW2NIXXMz

>  <s_epik_cmdline>  (247) 
J2VwaWtfcHl0aG9uJywgJy1waHQnLCAnMi4wJywgJy1waCcsICc3LjAnLCAnLXRuJywgJzgnLCAnLW1hJywgJzIwMCcsICctaW1hZScsICc8aW5maWxlLm1hZT4nLCAnLW9tYWUnLCAnPG91dGZpbGUubWFlPic=

>  <r_epik_Ionization_Penalty>  (247) 
0.353127

>  <r_epik_Ionization_Penalty_Charging>  (247) 
1.76996e-05

>  <r_epik_Ionization_Penalty_Neutral>  (247) 
0.353109

>  <r_epik_State_Penalty>  (247) 
2.58807

>  <r_epik_Charging_Adjusted_Penalty>  (247) 
2.58808

>  <i_epik_Tot_Q>  (247) 
1

>  <i_epik_Tot_abs_Q>  (247) 
1

>  <s_epik_Chemistry_Notes>  (247) 
This compound has an imine and may undergo hydrolysis.

>  <s_lp_Force_Field>  (247) 
OPLS3e

>  <r_lp_Energy>  (247) 
22.4724

>  <b_lp_Chiralities_Consistent>  (247) 
1

>  <s_lp_Variant>  (247) 
70:0-3

>  <s_i_glide_gridfile>  (247) 
pfpi4k_grid

>  <i_i_glide_lignum>  (247) 
20

>  <i_i_glide_rotatable_bonds>  (247) 
4

>  <r_i_docking_score>  (247) 
-3.86282

>  <r_i_glide_ligand_efficiency>  (247) 
-0.203306

>  <r_i_glide_ligand_efficiency_sa>  (247) 
-0.542502

>  <r_i_glide_ligand_efficiency_ln>  (247) 
-0.979307

>  <r_i_glide_gscore>  (247) 
-3.86282

>  <r_i_glide_lipo>  (247) 
-0.655139

>  <r_i_glide_hbond>  (247) 
-0.140532

>  <r_i_glide_metal>  (247) 
-0

>  <r_i_glide_rewards>  (247) 
-1.51796

>  <r_i_glide_evdw>  (247) 
-25.704

>  <r_i_glide_ecoul>  (247) 
-5.22031

>  <r_i_glide_erotb>  (247) 
0.702216

>  <r_i_glide_esite>  (247) 
-0.183155

>  <r_i_glide_emodel>  (247) 
-40.3005

>  <r_i_glide_energy>  (247) 
-30.9243

>  <r_i_glide_einternal>  (247) 
1.28839

>  <r_i_glide_intrahb_reward>  (247) 
-0

>  <i_i_glide_confnum>  (247) 
5

>  <i_i_glide_posenum>  (247) 
27

>  <r_i_glide_eff_state_penalty>  (247) 
0

>  <ligand_id>  (247) 
70

>  <original_smiles>  (247) 
O=C1CCCN1CCCN=c1nc[nH]c2sccc12

>  <smiles>  (247) 
[H]c1sc2c(c1[H])c(=[N+]([H])C([H])([H])C([H])([H])C([H])([H])N1C(=O)C([H])([H])C([H])([H])C1([H])[H])nc([H])n2[H]

$$$$
70:2:2
     RDKit          3D

 36 38  0  0  1  0  0  0  0  0999 V2000
   -0.6027   -6.7215    1.6697 O   0  0  0  0  0  0  0  0  0  0  0  0
   -0.1169   -7.7509    2.1385 C   0  0  0  0  0  0  0  0  0  0  0  0
   -0.9374   -8.9760    2.5008 C   0  0  0  0  0  0  0  0  0  0  0  0
    0.1271  -10.0122    2.8784 C   0  0  0  0  0  0  0  0  0  0  0  0
    1.4577   -9.2442    2.9641 C   0  0  0  0  0  0  0  0  0  0  0  0
    1.1770   -7.9290    2.4106 N   0  0  0  0  0  0  0  0  0  0  0  0
    2.2370   -6.9503    2.1691 C   0  0  0  0  0  0  0  0  0  0  0  0
    1.9740   -5.6130    2.8961 C   0  0  0  0  0  0  0  0  0  0  0  0
    3.0854   -4.5898    2.6594 C   0  0  0  0  0  0  0  0  0  0  0  0
    2.6368   -3.2011    2.9246 N   0  0  0  0  0  0  0  0  0  0  0  0
    3.0238   -2.1434    2.2815 C   0  0  0  0  0  0  0  0  0  0  0  0
    3.9576   -2.2590    1.2801 N   0  0  0  0  0  0  0  0  0  0  0  0
    4.3488   -1.1844    0.6516 C   0  0  0  0  0  0  0  0  0  0  0  0
    3.8793    0.0924    0.9524 N   0  0  0  0  0  0  0  0  0  0  0  0
    2.9280    0.2406    1.9536 C   0  0  0  0  0  0  0  0  0  0  0  0
    2.2019    1.7279    2.4823 S   0  0  0  0  0  0  0  0  0  0  0  0
    1.2554    0.8628    3.6843 C   0  0  0  0  0  0  0  0  0  0  0  0
    1.4970   -0.4952    3.6620 C   0  0  0  0  0  0  0  0  0  0  0  0
    2.4564   -0.8254    2.6590 C   0  0  0  0  0  0  0  0  0  0  0  0
    4.1947    0.9121    0.4504 H   0  0  0  0  0  0  0  0  0  0  0  0
   -1.5881   -8.7463    3.3449 H   0  0  0  0  0  0  0  0  0  0  0  0
   -1.5550   -9.3049    1.6656 H   0  0  0  0  0  0  0  0  0  0  0  0
   -0.1120  -10.5119    3.8181 H   0  0  0  0  0  0  0  0  0  0  0  0
    0.1863  -10.7819    2.1078 H   0  0  0  0  0  0  0  0  0  0  0  0
    1.7797   -9.1390    4.0009 H   0  0  0  0  0  0  0  0  0  0  0  0
    2.2493   -9.7527    2.4115 H   0  0  0  0  0  0  0  0  0  0  0  0
    3.1972   -7.3680    2.4762 H   0  0  0  0  0  0  0  0  0  0  0  0
    2.3023   -6.7830    1.0921 H   0  0  0  0  0  0  0  0  0  0  0  0
    1.0409   -5.1708    2.5522 H   0  0  0  0  0  0  0  0  0  0  0  0
    1.8470   -5.7940    3.9640 H   0  0  0  0  0  0  0  0  0  0  0  0
    3.9285   -4.7871    3.3207 H   0  0  0  0  0  0  0  0  0  0  0  0
    3.4350   -4.6512    1.6279 H   0  0  0  0  0  0  0  0  0  0  0  0
    5.0816   -1.2277   -0.1589 H   0  0  0  0  0  0  0  0  0  0  0  0
    0.5824    1.4161    4.3243 H   0  0  0  0  0  0  0  0  0  0  0  0
    1.0319   -1.2192    4.3127 H   0  0  0  0  0  0  0  0  0  0  0  0
    1.9514   -3.0779    3.6627 H   0  0  0  0  0  0  0  0  0  0  0  0
  1  2  2  0
  2  6  1  0
  2  3  1  0
  3  4  1  0
  3 21  1  0
  3 22  1  0
  4  5  1  0
  4 23  1  0
  4 24  1  0
  5  6  1  0
  5 25  1  0
  5 26  1  0
  6  7  1  0
  7  8  1  0
  7 27  1  0
  7 28  1  0
  8  9  1  0
  8 29  1  0
  8 30  1  0
  9 10  1  0
  9 31  1  0
  9 32  1  0
 10 11  2  3
 10 36  1  0
 11 19  1  0
 11 12  1  0
 12 13  2  0
 13 14  1  0
 13 33  1  0
 14 20  1  0
 14 15  1  0
 15 19  2  0
 15 16  1  0
 16 17  1  0
 17 18  2  0
 17 34  1  0
 18 19  1  0
 18 35  1  0
M  CHG  1  10   1
M  END
>  <i_m_ct_stereo_status>  (248) 
1

>  <s_m_source_file>  (248) 
/var/tmp/pbs.5076255.sched01/tmpq3cms3f1/82_sdm1vz9.sdf

>  <i_m_source_file_index>  (248) 
20

>  <i_lp_mmshare_version>  (248) 
48012

>  <i_f3d_flags>  (248) 
0

>  <s_epik_input>  (248) 
Tz1DMVtDSDJdW0NIMl1bQ0gyXU4xW0NIMl1bQ0gyXVtDSDJdL049YygvbltjSF1bbkhdMiljKGMyMylbY0hdW2NIXXMz

>  <s_epik_cmdline>  (248) 
J2VwaWtfcHl0aG9uJywgJy1waHQnLCAnMi4wJywgJy1waCcsICc3LjAnLCAnLXRuJywgJzgnLCAnLW1hJywgJzIwMCcsICctaW1hZScsICc8aW5maWxlLm1hZT4nLCAnLW9tYWUnLCAnPG91dGZpbGUubWFlPic=

>  <r_epik_Ionization_Penalty>  (248) 
0.353127

>  <r_epik_Ionization_Penalty_Charging>  (248) 
1.76996e-05

>  <r_epik_Ionization_Penalty_Neutral>  (248) 
0.353109

>  <r_epik_State_Penalty>  (248) 
2.58807

>  <r_epik_Charging_Adjusted_Penalty>  (248) 
2.58808

>  <i_epik_Tot_Q>  (248) 
1

>  <i_epik_Tot_abs_Q>  (248) 
1

>  <s_epik_Chemistry_Notes>  (248) 
This compound has an imine and may undergo hydrolysis.

>  <s_lp_Force_Field>  (248) 
OPLS3e

>  <r_lp_Energy>  (248) 
22.4724

>  <b_lp_Chiralities_Consistent>  (248) 
1

>  <s_lp_Variant>  (248) 
70:0-3

>  <s_i_glide_gridfile>  (248) 
pfpi4k_grid

>  <i_i_glide_lignum>  (248) 
20

>  <i_i_glide_rotatable_bonds>  (248) 
4

>  <r_i_docking_score>  (248) 
-3.46545

>  <r_i_glide_ligand_efficiency>  (248) 
-0.182392

>  <r_i_glide_ligand_efficiency_sa>  (248) 
-0.486696

>  <r_i_glide_ligand_efficiency_ln>  (248) 
-0.878566

>  <r_i_glide_gscore>  (248) 
-3.46545

>  <r_i_glide_lipo>  (248) 
-0.159891

>  <r_i_glide_hbond>  (248) 
-0.29967

>  <r_i_glide_metal>  (248) 
-0

>  <r_i_glide_rewards>  (248) 
-1.51796

>  <r_i_glide_evdw>  (248) 
-22.4768

>  <r_i_glide_ecoul>  (248) 
-6.46486

>  <r_i_glide_erotb>  (248) 
0.702216

>  <r_i_glide_esite>  (248) 
-0.0965771

>  <r_i_glide_emodel>  (248) 
-36.8388

>  <r_i_glide_energy>  (248) 
-28.9417

>  <r_i_glide_einternal>  (248) 
2.04907

>  <r_i_glide_intrahb_reward>  (248) 
-0

>  <i_i_glide_confnum>  (248) 
1

>  <i_i_glide_posenum>  (248) 
39

>  <r_i_glide_eff_state_penalty>  (248) 
0

>  <ligand_id>  (248) 
70

>  <original_smiles>  (248) 
O=C1CCCN1CCCN=c1nc[nH]c2sccc12

>  <smiles>  (248) 
[H]c1sc2c(c1[H])c(=[N+]([H])C([H])([H])C([H])([H])C([H])([H])N1C(=O)C([H])([H])C([H])([H])C1([H])[H])nc([H])n2[H]

$$$$
71:0:0
     RDKit          3D

 45 50  0  0  1  0  0  0  0  0999 V2000
    4.5813  -13.0953    5.4903 C   0  0  0  0  0  0  0  0  0  0  0  0
    4.2333  -11.6585    5.6393 N   0  0  1  0  0  0  0  0  0  0  0  0
    5.3350  -10.7730    5.1601 C   0  0  0  0  0  0  0  0  0  0  0  0
    4.9414   -9.2908    5.2478 C   0  0  0  0  0  0  0  0  0  0  0  0
    3.4963   -9.0840    4.7553 C   0  0  1  0  0  0  0  0  0  0  0  0
    3.3853   -9.7109    3.4736 O   0  0  0  0  0  0  0  0  0  0  0  0
    2.7698  -10.9604    3.6345 C   0  0  2  0  0  0  0  0  0  0  0  0
    3.3951  -11.9786    2.8837 O   0  0  0  0  0  0  0  0  0  0  0  0
    1.2725  -10.8067    3.2234 C   0  0  0  0  0  0  0  0  0  0  0  0
    0.5979   -9.6191    3.9515 C   0  0  2  0  0  0  0  0  0  0  0  0
    0.8123   -8.4266    3.1926 O   0  0  0  0  0  0  0  0  0  0  0  0
    0.4522   -7.2039    3.6435 C   0  0  0  0  0  0  0  0  0  0  0  0
    0.2383   -6.2710    2.8688 O   0  0  0  0  0  0  0  0  0  0  0  0
    0.3748   -7.0687    5.1289 C   0  0  0  0  0  0  0  0  0  0  0  0
    0.0408   -5.8019    5.6732 C   0  0  0  0  0  0  0  0  0  0  0  0
   -0.0297   -5.6738    7.0691 C   0  0  0  0  0  0  0  0  0  0  0  0
    0.2343   -6.7385    7.9081 C   0  0  0  0  0  0  0  0  0  0  0  0
    0.5915   -7.9977    7.4079 C   0  0  0  0  0  0  0  0  0  0  0  0
    0.6562   -8.1636    6.0023 C   0  0  0  0  0  0  0  0  0  0  0  0
    1.0218   -9.5242    5.4345 C   0  0  2  0  0  0  0  0  0  0  0  0
    2.5233   -9.8700    5.6554 C   0  0  1  0  0  0  0  0  0  0  0  0
    2.8722  -11.2625    5.1475 C   0  0  2  0  0  0  0  0  0  0  0  0
    0.0509   -6.3543    9.1981 O   0  0  0  0  0  0  0  0  0  0  0  0
   -0.4170   -5.0311    9.1384 C   0  0  0  0  0  0  0  0  0  0  0  0
   -0.3723   -4.5862    7.8064 O   0  0  0  0  0  0  0  0  0  0  0  0
    4.7723  -13.3818    4.4562 H   0  0  0  0  0  0  0  0  0  0  0  0
    3.8102  -13.7335    5.8902 H   0  0  0  0  0  0  0  0  0  0  0  0
    5.4930  -13.3073    6.0480 H   0  0  0  0  0  0  0  0  0  0  0  0
    6.2335  -10.9526    5.7462 H   0  0  0  0  0  0  0  0  0  0  0  0
    5.5920  -11.0178    4.1293 H   0  0  0  0  0  0  0  0  0  0  0  0
    5.0281   -8.9465    6.2796 H   0  0  0  0  0  0  0  0  0  0  0  0
    5.6449   -8.6964    4.6603 H   0  0  0  0  0  0  0  0  0  0  0  0
    3.2620   -8.0201    4.7035 H   0  0  0  0  0  0  0  0  0  0  0  0
    3.3876  -11.7712    1.9428 H   0  0  0  0  0  0  0  0  0  0  0  0
    1.1972  -10.6439    2.1487 H   0  0  0  0  0  0  0  0  0  0  0  0
    0.7388  -11.7354    3.4479 H   0  0  0  0  0  0  0  0  0  0  0  0
   -0.4818   -9.7565    3.9132 H   0  0  0  0  0  0  0  0  0  0  0  0
   -0.1731   -4.9494    5.0413 H   0  0  0  0  0  0  0  0  0  0  0  0
    0.7798   -8.8283    8.0782 H   0  0  0  0  0  0  0  0  0  0  0  0
    0.4381  -10.2716    5.9800 H   0  0  0  0  0  0  0  0  0  0  0  0
    2.7640   -9.7672    6.7190 H   0  0  0  0  0  0  0  0  0  0  0  0
    2.1407  -12.0154    5.4351 H   0  0  0  0  0  0  0  0  0  0  0  0
   -1.4601   -5.0298    9.4492 H   0  0  0  0  0  0  0  0  0  0  0  0
    0.1500   -4.3740    9.8030 H   0  0  0  0  0  0  0  0  0  0  0  0
    4.1737  -11.5271    6.6375 H   0  0  0  0  0  0  0  0  0  0  0  0
  1  2  1  0
  1 26  1  0
  1 27  1  0
  1 28  1  0
  2 22  1  0
  2  3  1  0
  2 45  1  1
  3  4  1  0
  3 29  1  0
  3 30  1  0
  4  5  1  0
  4 31  1  0
  4 32  1  0
  5 21  1  0
  5  6  1  0
  5 33  1  6
  6  7  1  0
  7 22  1  0
  7  8  1  6
  7  9  1  0
  8 34  1  0
  9 10  1  0
  9 35  1  0
  9 36  1  0
 10 20  1  0
 10 11  1  0
 10 37  1  1
 11 12  1  0
 12 13  2  0
 12 14  1  0
 14 19  2  0
 14 15  1  0
 15 16  2  0
 15 38  1  0
 16 25  1  0
 16 17  1  0
 17 18  2  0
 17 23  1  0
 18 19  1  0
 18 39  1  0
 19 20  1  0
 20 21  1  0
 20 40  1  1
 21 22  1  0
 21 41  1  1
 22 42  1  1
 23 24  1  0
 24 25  1  0
 24 43  1  0
 24 44  1  0
M  CHG  1   2   1
M  END
>  <i_m_ct_stereo_status>  (249) 
1

>  <s_m_source_file>  (249) 
/var/tmp/pbs.5076255.sched01/tmpq3cms3f1/82_sdm1vz9.sdf

>  <i_m_source_file_index>  (249) 
21

>  <i_lp_mmshare_version>  (249) 
48012

>  <i_f3d_flags>  (249) 
0

>  <s_epik_input>  (249) 
W0NIM11OMVtDSDJdW0NIMl1bQ0BASF0oTzIpW0NASF0oW0NASF0xW0NAXTIzW09IXSlbQ0BASF00W0NASF0oW0NIMl0zKU9DKD1PKWM1YzRbY0hdYzZjKFtjSF01KU9bQ0gyXU82

>  <s_epik_cmdline>  (249) 
J2VwaWtfcHl0aG9uJywgJy1waHQnLCAnMi4wJywgJy1waCcsICc3LjAnLCAnLXRuJywgJzgnLCAnLW1hJywgJzIwMCcsICctaW1hZScsICc8aW5maWxlLm1hZT4nLCAnLW9tYWUnLCAnPG91dGZpbGUubWFlPic=

>  <r_epik_Ionization_Penalty>  (249) 
0.153468

>  <r_epik_Ionization_Penalty_Charging>  (249) 
0.153431

>  <r_epik_Ionization_Penalty_Neutral>  (249) 
3.68961e-05

>  <r_epik_State_Penalty>  (249) 
0.142723

>  <r_epik_Charging_Adjusted_Penalty>  (249) 
0.296154

>  <i_epik_Tot_Q>  (249) 
1

>  <i_epik_Tot_abs_Q>  (249) 
1

>  <s_epik_Chemistry_Notes>  (249) 
This compound has an ester and may undergo hydrolysis at high or low pH. This compound contains an acetal/aminal-like group ( X-CH(R)-Y where X, Y are N, S, or O) that may be acid/base labile, releasing an aldehyde.

>  <s_lp_Force_Field>  (249) 
OPLS3e

>  <r_lp_Energy>  (249) 
52.7391

>  <b_lp_Chiralities_Consistent>  (249) 
1

>  <s_lp_Variant>  (249) 
71:0-1

>  <s_i_glide_gridfile>  (249) 
pfpi4k_grid

>  <i_i_glide_lignum>  (249) 
21

>  <i_i_glide_rotatable_bonds>  (249) 
1

>  <r_i_docking_score>  (249) 
-3.92808

>  <r_i_glide_ligand_efficiency>  (249) 
-0.157123

>  <r_i_glide_ligand_efficiency_sa>  (249) 
-0.459431

>  <r_i_glide_ligand_efficiency_ln>  (249) 
-0.931072

>  <r_i_glide_gscore>  (249) 
-3.92808

>  <r_i_glide_lipo>  (249) 
-0.174745

>  <r_i_glide_hbond>  (249) 
-0.3905

>  <r_i_glide_metal>  (249) 
-0

>  <r_i_glide_rewards>  (249) 
-1.04758

>  <r_i_glide_evdw>  (249) 
-17.4767

>  <r_i_glide_ecoul>  (249) 
-8.95954

>  <r_i_glide_erotb>  (249) 
0

>  <r_i_glide_esite>  (249) 
-0.0974846

>  <r_i_glide_emodel>  (249) 
-36.2274

>  <r_i_glide_energy>  (249) 
-26.4362

>  <r_i_glide_einternal>  (249) 
0.147336

>  <r_i_glide_intrahb_reward>  (249) 
-0

>  <i_i_glide_confnum>  (249) 
2

>  <i_i_glide_posenum>  (249) 
27

>  <r_i_glide_eff_state_penalty>  (249) 
0

>  <ligand_id>  (249) 
71

>  <original_smiles>  (249) 
CN1CCC2OC3(O)CC4OC(=O)c5cc6c(cc5C4C2C13)OCO6

>  <smiles>  (249) 
[H]OC12OC3([H])C([H])([H])C([H])([H])[N+]([H])(C([H])([H])[H])C1([H])C3([H])C1([H])c3c([H])c4c(c([H])c3C(=O)OC1([H])C2([H])[H])OC([H])([H])O4

$$$$
71:0:1
     RDKit          3D

 45 50  0  0  1  0  0  0  0  0999 V2000
    2.6582   -2.4788   -2.7673 C   0  0  0  0  0  0  0  0  0  0  0  0
    3.3025   -3.4552   -1.8539 N   0  0  1  0  0  0  0  0  0  0  0  0
    4.7831   -3.4215   -1.9466 C   0  0  0  0  0  0  0  0  0  0  0  0
    5.4245   -4.3841   -0.9353 C   0  0  0  0  0  0  0  0  0  0  0  0
    4.7393   -4.2930    0.4348 C   0  0  1  0  0  0  0  0  0  0  0  0
    4.6908   -2.9075    0.7931 O   0  0  0  0  0  0  0  0  0  0  0  0
    3.4052   -2.4256    0.5095 C   0  0  2  0  0  0  0  0  0  0  0  0
    3.4138   -1.1404   -0.0752 O   0  0  0  0  0  0  0  0  0  0  0  0
    2.6108   -2.3841    1.8535 C   0  0  0  0  0  0  0  0  0  0  0  0
    2.6748   -3.7391    2.5982 C   0  0  2  0  0  0  0  0  0  0  0  0
    3.8382   -3.7761    3.4209 O   0  0  0  0  0  0  0  0  0  0  0  0
    4.2246   -4.8904    4.0823 C   0  0  0  0  0  0  0  0  0  0  0  0
    4.9496   -4.8258    5.0713 O   0  0  0  0  0  0  0  0  0  0  0  0
    3.7550   -6.1831    3.4979 C   0  0  0  0  0  0  0  0  0  0  0  0
    4.1536   -7.3921    4.1251 C   0  0  0  0  0  0  0  0  0  0  0  0
    3.7144   -8.6036    3.5697 C   0  0  0  0  0  0  0  0  0  0  0  0
    2.9268   -8.6387    2.4386 C   0  0  0  0  0  0  0  0  0  0  0  0
    2.5297   -7.4677    1.7807 C   0  0  0  0  0  0  0  0  0  0  0  0
    2.9527   -6.2275    2.3192 C   0  0  0  0  0  0  0  0  0  0  0  0
    2.5297   -4.9405    1.6394 C   0  0  2  0  0  0  0  0  0  0  0  0
    3.2676   -4.7180    0.2901 C   0  0  1  0  0  0  0  0  0  0  0  0
    2.7848   -3.4699   -0.4470 C   0  0  2  0  0  0  0  0  0  0  0  0
    2.6187   -9.9243    2.1398 O   0  0  0  0  0  0  0  0  0  0  0  0
    3.1675  -10.6993    3.1754 C   0  0  0  0  0  0  0  0  0  0  0  0
    3.9364   -9.8685    4.0078 O   0  0  0  0  0  0  0  0  0  0  0  0
    2.9481   -1.4488   -2.5469 H   0  0  0  0  0  0  0  0  0  0  0  0
    1.5705   -2.5616   -2.7281 H   0  0  0  0  0  0  0  0  0  0  0  0
    2.9676   -2.6827   -3.7943 H   0  0  0  0  0  0  0  0  0  0  0  0
    5.0966   -3.6836   -2.9579 H   0  0  0  0  0  0  0  0  0  0  0  0
    5.1470   -2.4105   -1.7598 H   0  0  0  0  0  0  0  0  0  0  0  0
    5.3381   -5.4077   -1.3001 H   0  0  0  0  0  0  0  0  0  0  0  0
    6.4871   -4.1520   -0.8447 H   0  0  0  0  0  0  0  0  0  0  0  0
    5.2759   -4.8982    1.1663 H   0  0  0  0  0  0  0  0  0  0  0  0
    2.5175   -0.9255   -0.3130 H   0  0  0  0  0  0  0  0  0  0  0  0
    3.0169   -1.6001    2.4924 H   0  0  0  0  0  0  0  0  0  0  0  0
    1.5726   -2.1134    1.6448 H   0  0  0  0  0  0  0  0  0  0  0  0
    1.8510   -3.7810    3.3096 H   0  0  0  0  0  0  0  0  0  0  0  0
    4.7616   -7.3953    5.0200 H   0  0  0  0  0  0  0  0  0  0  0  0
    1.9022   -7.5245    0.9037 H   0  0  0  0  0  0  0  0  0  0  0  0
    1.4675   -5.0593    1.4130 H   0  0  0  0  0  0  0  0  0  0  0  0
    3.1474   -5.6219   -0.3129 H   0  0  0  0  0  0  0  0  0  0  0  0
    1.7035   -3.3796   -0.4616 H   0  0  0  0  0  0  0  0  0  0  0  0
    2.3488  -11.1003    3.7729 H   0  0  0  0  0  0  0  0  0  0  0  0
    3.7539  -11.5370    2.7882 H   0  0  0  0  0  0  0  0  0  0  0  0
    3.0428   -4.3685   -2.2222 H   0  0  0  0  0  0  0  0  0  0  0  0
  1  2  1  0
  1 26  1  0
  1 27  1  0
  1 28  1  0
  2 22  1  0
  2  3  1  0
  2 45  1  6
  3  4  1  0
  3 29  1  0
  3 30  1  0
  4  5  1  0
  4 31  1  0
  4 32  1  0
  5 21  1  0
  5  6  1  0
  5 33  1  1
  6  7  1  0
  7 22  1  0
  7  8  1  6
  7  9  1  0
  8 34  1  0
  9 10  1  0
  9 35  1  0
  9 36  1  0
 10 20  1  0
 10 11  1  0
 10 37  1  1
 11 12  1  0
 12 13  2  0
 12 14  1  0
 14 19  2  0
 14 15  1  0
 15 16  2  0
 15 38  1  0
 16 25  1  0
 16 17  1  0
 17 18  2  0
 17 23  1  0
 18 19  1  0
 18 39  1  0
 19 20  1  0
 20 21  1  0
 20 40  1  6
 21 22  1  0
 21 41  1  6
 22 42  1  6
 23 24  1  0
 24 25  1  0
 24 43  1  0
 24 44  1  0
M  CHG  1   2   1
M  END
>  <i_m_ct_stereo_status>  (250) 
1

>  <s_m_source_file>  (250) 
/var/tmp/pbs.5076255.sched01/tmpq3cms3f1/82_sdm1vz9.sdf

>  <i_m_source_file_index>  (250) 
21

>  <i_lp_mmshare_version>  (250) 
48012

>  <i_f3d_flags>  (250) 
0

>  <s_epik_input>  (250) 
W0NIM11OMVtDSDJdW0NIMl1bQ0BASF0oTzIpW0NASF0oW0NASF0xW0NAXTIzW09IXSlbQ0BASF00W0NASF0oW0NIMl0zKU9DKD1PKWM1YzRbY0hdYzZjKFtjSF01KU9bQ0gyXU82

>  <s_epik_cmdline>  (250) 
J2VwaWtfcHl0aG9uJywgJy1waHQnLCAnMi4wJywgJy1waCcsICc3LjAnLCAnLXRuJywgJzgnLCAnLW1hJywgJzIwMCcsICctaW1hZScsICc8aW5maWxlLm1hZT4nLCAnLW9tYWUnLCAnPG91dGZpbGUubWFlPic=

>  <r_epik_Ionization_Penalty>  (250) 
0.153468

>  <r_epik_Ionization_Penalty_Charging>  (250) 
0.153431

>  <r_epik_Ionization_Penalty_Neutral>  (250) 
3.68961e-05

>  <r_epik_State_Penalty>  (250) 
0.142723

>  <r_epik_Charging_Adjusted_Penalty>  (250) 
0.296154

>  <i_epik_Tot_Q>  (250) 
1

>  <i_epik_Tot_abs_Q>  (250) 
1

>  <s_epik_Chemistry_Notes>  (250) 
This compound has an ester and may undergo hydrolysis at high or low pH. This compound contains an acetal/aminal-like group ( X-CH(R)-Y where X, Y are N, S, or O) that may be acid/base labile, releasing an aldehyde.

>  <s_lp_Force_Field>  (250) 
OPLS3e

>  <r_lp_Energy>  (250) 
52.7391

>  <b_lp_Chiralities_Consistent>  (250) 
1

>  <s_lp_Variant>  (250) 
71:0-1

>  <s_i_glide_gridfile>  (250) 
pfpi4k_grid

>  <i_i_glide_lignum>  (250) 
21

>  <i_i_glide_rotatable_bonds>  (250) 
1

>  <r_i_docking_score>  (250) 
-3.70276

>  <r_i_glide_ligand_efficiency>  (250) 
-0.14811

>  <r_i_glide_ligand_efficiency_sa>  (250) 
-0.433078

>  <r_i_glide_ligand_efficiency_ln>  (250) 
-0.877665

>  <r_i_glide_gscore>  (250) 
-3.70276

>  <r_i_glide_lipo>  (250) 
-0.0905911

>  <r_i_glide_hbond>  (250) 
0

>  <r_i_glide_metal>  (250) 
-0

>  <r_i_glide_rewards>  (250) 
-1.04788

>  <r_i_glide_evdw>  (250) 
-18.4099

>  <r_i_glide_ecoul>  (250) 
-10.5173

>  <r_i_glide_erotb>  (250) 
0

>  <r_i_glide_esite>  (250) 
-0.0661934

>  <r_i_glide_emodel>  (250) 
-37.4723

>  <r_i_glide_energy>  (250) 
-28.9272

>  <r_i_glide_einternal>  (250) 
1.61857

>  <r_i_glide_intrahb_reward>  (250) 
-0

>  <i_i_glide_confnum>  (250) 
2

>  <i_i_glide_posenum>  (250) 
23

>  <r_i_glide_eff_state_penalty>  (250) 
0

>  <ligand_id>  (250) 
71

>  <original_smiles>  (250) 
CN1CCC2OC3(O)CC4OC(=O)c5cc6c(cc5C4C2C13)OCO6

>  <smiles>  (250) 
[H]OC12OC3([H])C([H])([H])C([H])([H])[N+]([H])(C([H])([H])[H])C1([H])C3([H])C1([H])c3c([H])c4c(c([H])c3C(=O)OC1([H])C2([H])[H])OC([H])([H])O4

$$$$
71:0:2
     RDKit          3D

 45 50  0  0  1  0  0  0  0  0999 V2000
    4.7427   -0.3555   -0.8746 C   0  0  0  0  0  0  0  0  0  0  0  0
    4.2901   -1.7485   -0.8409 N   0  0  1  0  0  0  0  0  0  0  0  0
    4.5534   -2.4070   -2.1415 C   0  0  0  0  0  0  0  0  0  0  0  0
    4.1559   -3.8653   -2.0780 C   0  0  0  0  0  0  0  0  0  0  0  0
    4.6317   -4.5247   -0.7643 C   0  0  1  0  0  0  0  0  0  0  0  0
    6.0234   -4.2260   -0.6229 O   0  0  0  0  0  0  0  0  0  0  0  0
    6.1601   -3.1589    0.2653 C   0  0  2  0  0  0  0  0  0  0  0  0
    7.1444   -2.2345   -0.1551 O   0  0  0  0  0  0  0  0  0  0  0  0
    6.5726   -3.7446    1.6456 C   0  0  0  0  0  0  0  0  0  0  0  0
    5.6266   -4.8797    2.0920 C   0  0  2  0  0  0  0  0  0  0  0  0
    6.0847   -6.1177    1.5555 O   0  0  0  0  0  0  0  0  0  0  0  0
    5.3852   -7.2666    1.6741 C   0  0  0  0  0  0  0  0  0  0  0  0
    5.9383   -8.3633    1.5989 O   0  0  0  0  0  0  0  0  0  0  0  0
    3.9121   -7.1046    1.8550 C   0  0  0  0  0  0  0  0  0  0  0  0
    3.1081   -8.2704    1.9559 C   0  0  0  0  0  0  0  0  0  0  0  0
    1.7242   -8.1105    2.1235 C   0  0  0  0  0  0  0  0  0  0  0  0
    1.1334   -6.8652    2.1669 C   0  0  0  0  0  0  0  0  0  0  0  0
    1.8989   -5.6887    2.0592 C   0  0  0  0  0  0  0  0  0  0  0  0
    3.2988   -5.8158    1.8988 C   0  0  0  0  0  0  0  0  0  0  0  0
    4.1476   -4.5614    1.7917 C   0  0  2  0  0  0  0  0  0  0  0  0
    3.9573   -3.8310    0.4328 C   0  0  1  0  0  0  0  0  0  0  0  0
    4.7443   -2.5297    0.3582 C   0  0  2  0  0  0  0  0  0  0  0  0
   -0.2058   -6.9959    2.3495 O   0  0  0  0  0  0  0  0  0  0  0  0
   -0.4215   -8.3761    2.5310 C   0  0  0  0  0  0  0  0  0  0  0  0
    0.7760   -9.0664    2.2924 O   0  0  0  0  0  0  0  0  0  0  0  0
    5.8122   -0.2751   -1.0744 H   0  0  0  0  0  0  0  0  0  0  0  0
    4.5111    0.1618    0.0573 H   0  0  0  0  0  0  0  0  0  0  0  0
    4.2224    0.1207   -1.7075 H   0  0  0  0  0  0  0  0  0  0  0  0
    3.9796   -1.9162   -2.9328 H   0  0  0  0  0  0  0  0  0  0  0  0
    5.6040   -2.3346   -2.4275 H   0  0  0  0  0  0  0  0  0  0  0  0
    3.0657   -3.9019   -2.1403 H   0  0  0  0  0  0  0  0  0  0  0  0
    4.5726   -4.3920   -2.9403 H   0  0  0  0  0  0  0  0  0  0  0  0
    4.4534   -5.6005   -0.7668 H   0  0  0  0  0  0  0  0  0  0  0  0
    7.9923   -2.6547   -0.0715 H   0  0  0  0  0  0  0  0  0  0  0  0
    7.5971   -4.1190    1.5971 H   0  0  0  0  0  0  0  0  0  0  0  0
    6.5524   -2.9302    2.3740 H   0  0  0  0  0  0  0  0  0  0  0  0
    5.7313   -5.0088    3.1702 H   0  0  0  0  0  0  0  0  0  0  0  0
    3.5361   -9.2633    1.9255 H   0  0  0  0  0  0  0  0  0  0  0  0
    1.4297   -4.7199    2.1243 H   0  0  0  0  0  0  0  0  0  0  0  0
    3.8015   -3.8780    2.5704 H   0  0  0  0  0  0  0  0  0  0  0  0
    2.8950   -3.6572    0.2615 H   0  0  0  0  0  0  0  0  0  0  0  0
    4.6461   -1.9269    1.2622 H   0  0  0  0  0  0  0  0  0  0  0  0
   -0.6936   -8.5571    3.5718 H   0  0  0  0  0  0  0  0  0  0  0  0
   -1.2249   -8.7466    1.8901 H   0  0  0  0  0  0  0  0  0  0  0  0
    3.2835   -1.6871   -0.7557 H   0  0  0  0  0  0  0  0  0  0  0  0
  1  2  1  0
  1 26  1  0
  1 27  1  0
  1 28  1  0
  2 22  1  0
  2  3  1  0
  2 45  1  1
  3  4  1  0
  3 29  1  0
  3 30  1  0
  4  5  1  0
  4 31  1  0
  4 32  1  0
  5 21  1  0
  5  6  1  0
  5 33  1  6
  6  7  1  0
  7 22  1  0
  7  8  1  6
  7  9  1  0
  8 34  1  0
  9 10  1  0
  9 35  1  0
  9 36  1  0
 10 20  1  0
 10 11  1  0
 10 37  1  1
 11 12  1  0
 12 13  2  0
 12 14  1  0
 14 19  2  0
 14 15  1  0
 15 16  2  0
 15 38  1  0
 16 25  1  0
 16 17  1  0
 17 18  2  0
 17 23  1  0
 18 19  1  0
 18 39  1  0
 19 20  1  0
 20 21  1  0
 20 40  1  1
 21 22  1  0
 21 41  1  6
 22 42  1  1
 23 24  1  0
 24 25  1  0
 24 43  1  0
 24 44  1  0
M  CHG  1   2   1
M  END
>  <i_m_ct_stereo_status>  (251) 
1

>  <s_m_source_file>  (251) 
/var/tmp/pbs.5076255.sched01/tmpq3cms3f1/82_sdm1vz9.sdf

>  <i_m_source_file_index>  (251) 
21

>  <i_lp_mmshare_version>  (251) 
48012

>  <i_f3d_flags>  (251) 
0

>  <s_epik_input>  (251) 
W0NIM11OMVtDSDJdW0NIMl1bQ0BASF0oTzIpW0NASF0oW0NASF0xW0NAXTIzW09IXSlbQ0BASF00W0NASF0oW0NIMl0zKU9DKD1PKWM1YzRbY0hdYzZjKFtjSF01KU9bQ0gyXU82

>  <s_epik_cmdline>  (251) 
J2VwaWtfcHl0aG9uJywgJy1waHQnLCAnMi4wJywgJy1waCcsICc3LjAnLCAnLXRuJywgJzgnLCAnLW1hJywgJzIwMCcsICctaW1hZScsICc8aW5maWxlLm1hZT4nLCAnLW9tYWUnLCAnPG91dGZpbGUubWFlPic=

>  <r_epik_Ionization_Penalty>  (251) 
0.153468

>  <r_epik_Ionization_Penalty_Charging>  (251) 
0.153431

>  <r_epik_Ionization_Penalty_Neutral>  (251) 
3.68961e-05

>  <r_epik_State_Penalty>  (251) 
0.142723

>  <r_epik_Charging_Adjusted_Penalty>  (251) 
0.296154

>  <i_epik_Tot_Q>  (251) 
1

>  <i_epik_Tot_abs_Q>  (251) 
1

>  <s_epik_Chemistry_Notes>  (251) 
This compound has an ester and may undergo hydrolysis at high or low pH. This compound contains an acetal/aminal-like group ( X-CH(R)-Y where X, Y are N, S, or O) that may be acid/base labile, releasing an aldehyde.

>  <s_lp_Force_Field>  (251) 
OPLS3e

>  <r_lp_Energy>  (251) 
52.7391

>  <b_lp_Chiralities_Consistent>  (251) 
1

>  <s_lp_Variant>  (251) 
71:0-1

>  <s_i_glide_gridfile>  (251) 
pfpi4k_grid

>  <i_i_glide_lignum>  (251) 
21

>  <i_i_glide_rotatable_bonds>  (251) 
1

>  <r_i_docking_score>  (251) 
-3.55959

>  <r_i_glide_ligand_efficiency>  (251) 
-0.142384

>  <r_i_glide_ligand_efficiency_sa>  (251) 
-0.416333

>  <r_i_glide_ligand_efficiency_ln>  (251) 
-0.84373

>  <r_i_glide_gscore>  (251) 
-3.55959

>  <r_i_glide_lipo>  (251) 
-0.214893

>  <r_i_glide_hbond>  (251) 
-0.0906938

>  <r_i_glide_metal>  (251) 
-0

>  <r_i_glide_rewards>  (251) 
-1.24014

>  <r_i_glide_evdw>  (251) 
-20.1844

>  <r_i_glide_ecoul>  (251) 
-6.15762

>  <r_i_glide_erotb>  (251) 
0

>  <r_i_glide_esite>  (251) 
-0.0810038

>  <r_i_glide_emodel>  (251) 
-35.2653

>  <r_i_glide_energy>  (251) 
-26.342

>  <r_i_glide_einternal>  (251) 
0.00470151

>  <r_i_glide_intrahb_reward>  (251) 
-0

>  <i_i_glide_confnum>  (251) 
2

>  <i_i_glide_posenum>  (251) 
33

>  <r_i_glide_eff_state_penalty>  (251) 
0

>  <ligand_id>  (251) 
71

>  <original_smiles>  (251) 
CN1CCC2OC3(O)CC4OC(=O)c5cc6c(cc5C4C2C13)OCO6

>  <smiles>  (251) 
[H]OC12OC3([H])C([H])([H])C([H])([H])[N+]([H])(C([H])([H])[H])C1([H])C3([H])C1([H])c3c([H])c4c(c([H])c3C(=O)OC1([H])C2([H])[H])OC([H])([H])O4

$$$$
71:1:0
     RDKit          3D

 44 49  0  0  1  0  0  0  0  0999 V2000
   -0.4877   -7.1198    1.7110 C   0  0  0  0  0  0  0  0  0  0  0  0
    0.8066   -6.5413    2.0525 N   0  0  0  0  0  0  0  0  0  0  0  0
    0.9334   -6.2537    3.4845 C   0  0  0  0  0  0  0  0  0  0  0  0
    2.3500   -5.8046    3.8925 C   0  0  0  0  0  0  0  0  0  0  0  0
    3.4128   -6.6568    3.1760 C   0  0  1  0  0  0  0  0  0  0  0  0
    3.1092   -8.0361    3.4280 O   0  0  0  0  0  0  0  0  0  0  0  0
    2.4367   -8.5607    2.3118 C   0  0  2  0  0  0  0  0  0  0  0  0
    1.3689   -9.4080    2.6726 O   0  0  0  0  0  0  0  0  0  0  0  0
    3.4649   -9.3687    1.4735 C   0  0  0  0  0  0  0  0  0  0  0  0
    4.7342   -8.5471    1.1594 C   0  0  2  0  0  0  0  0  0  0  0  0
    5.6888   -8.7178    2.2111 O   0  0  0  0  0  0  0  0  0  0  0  0
    6.8244   -7.9906    2.2899 C   0  0  0  0  0  0  0  0  0  0  0  0
    7.7785   -8.3838    2.9573 O   0  0  0  0  0  0  0  0  0  0  0  0
    6.8074   -6.6811    1.5779 C   0  0  0  0  0  0  0  0  0  0  0  0
    7.9755   -5.8850    1.6204 C   0  0  0  0  0  0  0  0  0  0  0  0
    7.9692   -4.6535    0.9430 C   0  0  0  0  0  0  0  0  0  0  0  0
    6.8541   -4.2041    0.2722 C   0  0  0  0  0  0  0  0  0  0  0  0
    5.6681   -4.9665    0.2263 C   0  0  0  0  0  0  0  0  0  0  0  0
    5.6507   -6.2139    0.8852 C   0  0  0  0  0  0  0  0  0  0  0  0
    4.4075   -7.0739    0.8070 C   0  0  2  0  0  0  0  0  0  0  0  0
    3.2413   -6.5023    1.6553 C   0  0  1  0  0  0  0  0  0  0  0  0
    1.9536   -7.3118    1.5265 C   0  0  2  0  0  0  0  0  0  0  0  0
    7.1227   -3.0049   -0.3124 O   0  0  0  0  0  0  0  0  0  0  0  0
    8.4795   -2.7606   -0.0536 C   0  0  0  0  0  0  0  0  0  0  0  0
    8.9787   -3.7567    0.8018 O   0  0  0  0  0  0  0  0  0  0  0  0
   -1.2881   -6.4475    1.9923 H   0  0  0  0  0  0  0  0  0  0  0  0
   -0.6664   -8.0534    2.2371 H   0  0  0  0  0  0  0  0  0  0  0  0
   -0.5683   -7.3011    0.6374 H   0  0  0  0  0  0  0  0  0  0  0  0
    0.2266   -5.4787    3.7801 H   0  0  0  0  0  0  0  0  0  0  0  0
    0.6808   -7.1489    4.0506 H   0  0  0  0  0  0  0  0  0  0  0  0
    2.4913   -4.7576    3.6228 H   0  0  0  0  0  0  0  0  0  0  0  0
    2.4605   -5.8764    4.9759 H   0  0  0  0  0  0  0  0  0  0  0  0
    4.4149   -6.3847    3.5118 H   0  0  0  0  0  0  0  0  0  0  0  0
    1.0008   -9.7877    1.8831 H   0  0  0  0  0  0  0  0  0  0  0  0
    3.7399  -10.2754    2.0156 H   0  0  0  0  0  0  0  0  0  0  0  0
    2.9769   -9.6880    0.5498 H   0  0  0  0  0  0  0  0  0  0  0  0
    5.2199   -9.0027    0.2953 H   0  0  0  0  0  0  0  0  0  0  0  0
    8.8725   -6.2138    2.1291 H   0  0  0  0  0  0  0  0  0  0  0  0
    4.8133   -4.6208   -0.3403 H   0  0  0  0  0  0  0  0  0  0  0  0
    4.0957   -7.0475   -0.2381 H   0  0  0  0  0  0  0  0  0  0  0  0
    3.0755   -5.4622    1.3616 H   0  0  0  0  0  0  0  0  0  0  0  0
    1.7275   -7.5739    0.4947 H   0  0  0  0  0  0  0  0  0  0  0  0
    9.0167   -2.8165   -0.9965 H   0  0  0  0  0  0  0  0  0  0  0  0
    8.6276   -1.7703    0.3749 H   0  0  0  0  0  0  0  0  0  0  0  0
  1  2  1  0
  1 26  1  0
  1 27  1  0
  1 28  1  0
  2 22  1  0
  2  3  1  0
  3  4  1  0
  3 29  1  0
  3 30  1  0
  4  5  1  0
  4 31  1  0
  4 32  1  0
  5 21  1  0
  5  6  1  0
  5 33  1  1
  6  7  1  0
  7 22  1  0
  7  8  1  1
  7  9  1  0
  8 34  1  0
  9 10  1  0
  9 35  1  0
  9 36  1  0
 10 20  1  0
 10 11  1  0
 10 37  1  6
 11 12  1  0
 12 13  2  0
 12 14  1  0
 14 19  2  0
 14 15  1  0
 15 16  2  0
 15 38  1  0
 16 25  1  0
 16 17  1  0
 17 18  2  0
 17 23  1  0
 18 19  1  0
 18 39  1  0
 19 20  1  0
 20 21  1  0
 20 40  1  6
 21 22  1  0
 21 41  1  1
 22 42  1  6
 23 24  1  0
 24 25  1  0
 24 43  1  0
 24 44  1  0
M  END
>  <i_m_ct_stereo_status>  (252) 
1

>  <s_m_source_file>  (252) 
/var/tmp/pbs.5076255.sched01/tmpq3cms3f1/82_sdm1vz9.sdf

>  <i_m_source_file_index>  (252) 
22

>  <i_lp_mmshare_version>  (252) 
48012

>  <i_f3d_flags>  (252) 
0

>  <s_epik_input>  (252) 
W0NIM11OMVtDSDJdW0NIMl1bQ0BASF0oTzIpW0NASF0oW0NASF0xW0NAXTIzW09IXSlbQ0BASF00W0NASF0oW0NIMl0zKU9DKD1PKWM1YzRbY0hdYzZjKFtjSF01KU9bQ0gyXU82

>  <s_epik_cmdline>  (252) 
J2VwaWtfcHl0aG9uJywgJy1waHQnLCAnMi4wJywgJy1waCcsICc3LjAnLCAnLXRuJywgJzgnLCAnLW1hJywgJzIwMCcsICctaW1hZScsICc8aW5maWxlLm1hZT4nLCAnLW9tYWUnLCAnPG91dGZpbGUubWFlPic=

>  <r_epik_Ionization_Penalty>  (252) 
0.875563

>  <r_epik_Ionization_Penalty_Charging>  (252) 
0

>  <r_epik_Ionization_Penalty_Neutral>  (252) 
0.875563

>  <r_epik_State_Penalty>  (252) 
0.913286

>  <r_epik_Charging_Adjusted_Penalty>  (252) 
0.913286

>  <i_epik_Tot_Q>  (252) 
0

>  <i_epik_Tot_abs_Q>  (252) 
0

>  <s_epik_Chemistry_Notes>  (252) 
This compound has an ester and may undergo hydrolysis at high or low pH. This compound contains an acetal/aminal-like group ( X-CH(R)-Y where X, Y are N, S, or O) that may be acid/base labile, releasing an aldehyde.

>  <s_lp_Force_Field>  (252) 
OPLS3e

>  <r_lp_Energy>  (252) 
43.931

>  <b_lp_Chiralities_Consistent>  (252) 
1

>  <s_lp_Variant>  (252) 
71:0-2

>  <s_i_glide_gridfile>  (252) 
pfpi4k_grid

>  <i_i_glide_lignum>  (252) 
22

>  <i_i_glide_rotatable_bonds>  (252) 
1

>  <r_i_docking_score>  (252) 
-3.44408

>  <r_i_glide_ligand_efficiency>  (252) 
-0.137763

>  <r_i_glide_ligand_efficiency_sa>  (252) 
-0.402822

>  <r_i_glide_ligand_efficiency_ln>  (252) 
-0.81635

>  <r_i_glide_gscore>  (252) 
-3.44408

>  <r_i_glide_lipo>  (252) 
-0.679158

>  <r_i_glide_hbond>  (252) 
-0.00590539

>  <r_i_glide_metal>  (252) 
-0

>  <r_i_glide_rewards>  (252) 
-1.14691

>  <r_i_glide_evdw>  (252) 
-24.3334

>  <r_i_glide_ecoul>  (252) 
-2.57843

>  <r_i_glide_erotb>  (252) 
0

>  <r_i_glide_esite>  (252) 
-0.00867744

>  <r_i_glide_emodel>  (252) 
-31.9904

>  <r_i_glide_energy>  (252) 
-26.9118

>  <r_i_glide_einternal>  (252) 
1.6338

>  <r_i_glide_intrahb_reward>  (252) 
-0

>  <i_i_glide_confnum>  (252) 
1

>  <i_i_glide_posenum>  (252) 
34

>  <r_i_glide_eff_state_penalty>  (252) 
0

>  <ligand_id>  (252) 
71

>  <original_smiles>  (252) 
CN1CCC2OC3(O)CC4OC(=O)c5cc6c(cc5C4C2C13)OCO6

>  <smiles>  (252) 
[H]OC12OC3([H])C([H])([H])C([H])([H])N(C([H])([H])[H])C1([H])C3([H])C1([H])c3c([H])c4c(c([H])c3C(=O)OC1([H])C2([H])[H])OC([H])([H])O4

$$$$
71:1:1
     RDKit          3D

 44 49  0  0  1  0  0  0  0  0999 V2000
   -0.7345   -7.4333    2.1116 C   0  0  0  0  0  0  0  0  0  0  0  0
    0.5828   -6.8831    2.4051 N   0  0  0  0  0  0  0  0  0  0  0  0
    0.7344   -6.5465    3.8238 C   0  0  0  0  0  0  0  0  0  0  0  0
    2.1590   -6.1148    4.2060 C   0  0  0  0  0  0  0  0  0  0  0  0
    3.1988   -7.0125    3.5081 C   0  0  1  0  0  0  0  0  0  0  0  0
    2.8803   -8.3751    3.8188 O   0  0  0  0  0  0  0  0  0  0  0  0
    2.1811   -8.9318    2.7384 C   0  0  2  0  0  0  0  0  0  0  0  0
    1.1084   -9.7494    3.1587 O   0  0  0  0  0  0  0  0  0  0  0  0
    3.1747   -9.7890    1.9050 C   0  0  0  0  0  0  0  0  0  0  0  0
    4.4572   -9.0077    1.5446 C   0  0  2  0  0  0  0  0  0  0  0  0
    5.4162   -9.1542    2.5944 O   0  0  0  0  0  0  0  0  0  0  0  0
    6.5707   -8.4568    2.6345 C   0  0  0  0  0  0  0  0  0  0  0  0
    7.5260   -8.8496    3.3021 O   0  0  0  0  0  0  0  0  0  0  0  0
    6.5756   -7.1721    1.8747 C   0  0  0  0  0  0  0  0  0  0  0  0
    7.7591   -6.3930    1.8843 C   0  0  0  0  0  0  0  0  0  0  0  0
    7.7673   -5.1815    1.1672 C   0  0  0  0  0  0  0  0  0  0  0  0
    6.6512   -4.7361    0.4892 C   0  0  0  0  0  0  0  0  0  0  0  0
    5.4547   -5.4776    0.4773 C   0  0  0  0  0  0  0  0  0  0  0  0
    5.4201   -6.7075    1.1773 C   0  0  0  0  0  0  0  0  0  0  0  0
    4.1571   -7.5437    1.1462 C   0  0  2  0  0  0  0  0  0  0  0  0
    3.0109   -6.9178    1.9837 C   0  0  1  0  0  0  0  0  0  0  0  0
    1.7090   -7.7106    1.8980 C   0  0  2  0  0  0  0  0  0  0  0  0
    6.9367   -3.5633   -0.1386 O   0  0  0  0  0  0  0  0  0  0  0  0
    8.3014   -3.3348    0.0940 C   0  0  0  0  0  0  0  0  0  0  0  0
    8.7878   -4.3043    0.9860 O   0  0  0  0  0  0  0  0  0  0  0  0
   -1.5111   -6.7224    2.3901 H   0  0  0  0  0  0  0  0  0  0  0  0
   -0.9251   -8.3444    2.6742 H   0  0  0  0  0  0  0  0  0  0  0  0
   -0.8488   -7.6517    1.0497 H   0  0  0  0  0  0  0  0  0  0  0  0
    0.0435   -5.7488    4.1022 H   0  0  0  0  0  0  0  0  0  0  0  0
    0.4627   -7.4095    4.4300 H   0  0  0  0  0  0  0  0  0  0  0  0
    2.3197   -5.0802    3.9045 H   0  0  0  0  0  0  0  0  0  0  0  0
    2.2823   -6.1525    5.2905 H   0  0  0  0  0  0  0  0  0  0  0  0
    4.2075   -6.7499    3.8246 H   0  0  0  0  0  0  0  0  0  0  0  0
    1.4706  -10.5262    3.5643 H   0  0  0  0  0  0  0  0  0  0  0  0
    3.4381  -10.6903    2.4615 H   0  0  0  0  0  0  0  0  0  0  0  0
    2.6608  -10.1143    0.9978 H   0  0  0  0  0  0  0  0  0  0  0  0
    4.9272   -9.5017    0.6940 H   0  0  0  0  0  0  0  0  0  0  0  0
    8.6577   -6.7193    2.3956 H   0  0  0  0  0  0  0  0  0  0  0  0
    4.6024   -5.1301   -0.0890 H   0  0  0  0  0  0  0  0  0  0  0  0
    3.8276   -7.5487    0.1071 H   0  0  0  0  0  0  0  0  0  0  0  0
    2.8656   -5.8857    1.6569 H   0  0  0  0  0  0  0  0  0  0  0  0
    1.4992   -8.0253    0.8771 H   0  0  0  0  0  0  0  0  0  0  0  0
    8.8409   -3.4391   -0.8462 H   0  0  0  0  0  0  0  0  0  0  0  0
    8.4678   -2.3282    0.4799 H   0  0  0  0  0  0  0  0  0  0  0  0
  1  2  1  0
  1 26  1  0
  1 27  1  0
  1 28  1  0
  2 22  1  0
  2  3  1  0
  3  4  1  0
  3 29  1  0
  3 30  1  0
  4  5  1  0
  4 31  1  0
  4 32  1  0
  5 21  1  0
  5  6  1  0
  5 33  1  6
  6  7  1  0
  7 22  1  0
  7  8  1  1
  7  9  1  0
  8 34  1  0
  9 10  1  0
  9 35  1  0
  9 36  1  0
 10 20  1  0
 10 11  1  0
 10 37  1  6
 11 12  1  0
 12 13  2  0
 12 14  1  0
 14 19  2  0
 14 15  1  0
 15 16  2  0
 15 38  1  0
 16 25  1  0
 16 17  1  0
 17 18  2  0
 17 23  1  0
 18 19  1  0
 18 39  1  0
 19 20  1  0
 20 21  1  0
 20 40  1  6
 21 22  1  0
 21 41  1  6
 22 42  1  6
 23 24  1  0
 24 25  1  0
 24 43  1  0
 24 44  1  0
M  END
>  <i_m_ct_stereo_status>  (253) 
1

>  <s_m_source_file>  (253) 
/var/tmp/pbs.5076255.sched01/tmpq3cms3f1/82_sdm1vz9.sdf

>  <i_m_source_file_index>  (253) 
22

>  <i_lp_mmshare_version>  (253) 
48012

>  <i_f3d_flags>  (253) 
0

>  <s_epik_input>  (253) 
W0NIM11OMVtDSDJdW0NIMl1bQ0BASF0oTzIpW0NASF0oW0NASF0xW0NAXTIzW09IXSlbQ0BASF00W0NASF0oW0NIMl0zKU9DKD1PKWM1YzRbY0hdYzZjKFtjSF01KU9bQ0gyXU82

>  <s_epik_cmdline>  (253) 
J2VwaWtfcHl0aG9uJywgJy1waHQnLCAnMi4wJywgJy1waCcsICc3LjAnLCAnLXRuJywgJzgnLCAnLW1hJywgJzIwMCcsICctaW1hZScsICc8aW5maWxlLm1hZT4nLCAnLW9tYWUnLCAnPG91dGZpbGUubWFlPic=

>  <r_epik_Ionization_Penalty>  (253) 
0.875563

>  <r_epik_Ionization_Penalty_Charging>  (253) 
0

>  <r_epik_Ionization_Penalty_Neutral>  (253) 
0.875563

>  <r_epik_State_Penalty>  (253) 
0.913286

>  <r_epik_Charging_Adjusted_Penalty>  (253) 
0.913286

>  <i_epik_Tot_Q>  (253) 
0

>  <i_epik_Tot_abs_Q>  (253) 
0

>  <s_epik_Chemistry_Notes>  (253) 
This compound has an ester and may undergo hydrolysis at high or low pH. This compound contains an acetal/aminal-like group ( X-CH(R)-Y where X, Y are N, S, or O) that may be acid/base labile, releasing an aldehyde.

>  <s_lp_Force_Field>  (253) 
OPLS3e

>  <r_lp_Energy>  (253) 
43.931

>  <b_lp_Chiralities_Consistent>  (253) 
1

>  <s_lp_Variant>  (253) 
71:0-2

>  <s_i_glide_gridfile>  (253) 
pfpi4k_grid

>  <i_i_glide_lignum>  (253) 
22

>  <i_i_glide_rotatable_bonds>  (253) 
1

>  <r_i_docking_score>  (253) 
-3.41621

>  <r_i_glide_ligand_efficiency>  (253) 
-0.136648

>  <r_i_glide_ligand_efficiency_sa>  (253) 
-0.399562

>  <r_i_glide_ligand_efficiency_ln>  (253) 
-0.809744

>  <r_i_glide_gscore>  (253) 
-3.41621

>  <r_i_glide_lipo>  (253) 
-0.595509

>  <r_i_glide_hbond>  (253) 
0

>  <r_i_glide_metal>  (253) 
-0

>  <r_i_glide_rewards>  (253) 
-1.39966

>  <r_i_glide_evdw>  (253) 
-24.2799

>  <r_i_glide_ecoul>  (253) 
-1.3803

>  <r_i_glide_erotb>  (253) 
0

>  <r_i_glide_esite>  (253) 
0

>  <r_i_glide_emodel>  (253) 
-31.5249

>  <r_i_glide_energy>  (253) 
-25.6602

>  <r_i_glide_einternal>  (253) 
0.009293

>  <r_i_glide_intrahb_reward>  (253) 
-0

>  <i_i_glide_confnum>  (253) 
2

>  <i_i_glide_posenum>  (253) 
38

>  <r_i_glide_eff_state_penalty>  (253) 
0

>  <ligand_id>  (253) 
71

>  <original_smiles>  (253) 
CN1CCC2OC3(O)CC4OC(=O)c5cc6c(cc5C4C2C13)OCO6

>  <smiles>  (253) 
[H]OC12OC3([H])C([H])([H])C([H])([H])N(C([H])([H])[H])C1([H])C3([H])C1([H])c3c([H])c4c(c([H])c3C(=O)OC1([H])C2([H])[H])OC([H])([H])O4

$$$$
71:1:2
     RDKit          3D

 44 49  0  0  1  0  0  0  0  0999 V2000
   -0.8432   -7.2208    3.2990 C   0  0  0  0  0  0  0  0  0  0  0  0
    0.2099   -6.2495    3.0299 N   0  0  0  0  0  0  0  0  0  0  0  0
    0.6834   -5.5962    4.2556 C   0  0  0  0  0  0  0  0  0  0  0  0
    1.8763   -4.6510    4.0309 C   0  0  0  0  0  0  0  0  0  0  0  0
    2.8772   -5.2779    3.0426 C   0  0  1  0  0  0  0  0  0  0  0  0
    3.2201   -6.5858    3.5186 O   0  0  0  0  0  0  0  0  0  0  0  0
    2.4573   -7.5386    2.8241 C   0  0  2  0  0  0  0  0  0  0  0  0
    1.9721   -8.5587    3.6660 O   0  0  0  0  0  0  0  0  0  0  0  0
    3.3450   -8.1650    1.7149 C   0  0  0  0  0  0  0  0  0  0  0  0
    4.0315   -7.0840    0.8483 C   0  0  2  0  0  0  0  0  0  0  0  0
    5.2748   -6.7093    1.4507 O   0  0  0  0  0  0  0  0  0  0  0  0
    6.0144   -5.6761    1.0025 C   0  0  0  0  0  0  0  0  0  0  0  0
    7.2172   -5.6008    1.2533 O   0  0  0  0  0  0  0  0  0  0  0  0
    5.2764   -4.6313    0.2455 C   0  0  0  0  0  0  0  0  0  0  0  0
    6.0106   -3.5259   -0.2453 C   0  0  0  0  0  0  0  0  0  0  0  0
    5.3193   -2.5473   -0.9759 C   0  0  0  0  0  0  0  0  0  0  0  0
    3.9645   -2.6360   -1.2016 C   0  0  0  0  0  0  0  0  0  0  0  0
    3.2013   -3.7034   -0.7040 C   0  0  0  0  0  0  0  0  0  0  0  0
    3.8678   -4.7121    0.0287 C   0  0  0  0  0  0  0  0  0  0  0  0
    3.0843   -5.9056    0.5277 C   0  0  2  0  0  0  0  0  0  0  0  0
    2.1589   -5.5459    1.7130 C   0  0  1  0  0  0  0  0  0  0  0  0
    1.3087   -6.7284    2.1689 C   0  0  2  0  0  0  0  0  0  0  0  0
    3.5564   -1.5928   -1.9679 O   0  0  0  0  0  0  0  0  0  0  0  0
    4.7219   -0.8906   -2.2868 C   0  0  0  0  0  0  0  0  0  0  0  0
    5.8089   -1.4405   -1.5847 O   0  0  0  0  0  0  0  0  0  0  0  0
   -1.6733   -6.7375    3.8113 H   0  0  0  0  0  0  0  0  0  0  0  0
   -0.4961   -8.0237    3.9451 H   0  0  0  0  0  0  0  0  0  0  0  0
   -1.2365   -7.6560    2.3802 H   0  0  0  0  0  0  0  0  0  0  0  0
   -0.1247   -5.0289    4.7179 H   0  0  0  0  0  0  0  0  0  0  0  0
    0.9777   -6.3552    4.9789 H   0  0  0  0  0  0  0  0  0  0  0  0
    1.5202   -3.6990    3.6346 H   0  0  0  0  0  0  0  0  0  0  0  0
    2.3616   -4.4334    4.9847 H   0  0  0  0  0  0  0  0  0  0  0  0
    3.7512   -4.6392    2.9241 H   0  0  0  0  0  0  0  0  0  0  0  0
    2.7030   -9.1123    3.9151 H   0  0  0  0  0  0  0  0  0  0  0  0
    4.0999   -8.8006    2.1765 H   0  0  0  0  0  0  0  0  0  0  0  0
    2.7122   -8.8106    1.1005 H   0  0  0  0  0  0  0  0  0  0  0  0
    4.3247   -7.5414   -0.0964 H   0  0  0  0  0  0  0  0  0  0  0  0
    7.0809   -3.4336   -0.1056 H   0  0  0  0  0  0  0  0  0  0  0  0
    2.1440   -3.7545   -0.9221 H   0  0  0  0  0  0  0  0  0  0  0  0
    2.4369   -6.2179   -0.2922 H   0  0  0  0  0  0  0  0  0  0  0  0
    1.5462   -4.6921    1.4254 H   0  0  0  0  0  0  0  0  0  0  0  0
    0.8989   -7.2786    1.3189 H   0  0  0  0  0  0  0  0  0  0  0  0
    4.9068   -0.9936   -3.3529 H   0  0  0  0  0  0  0  0  0  0  0  0
    4.5979    0.1583   -2.0508 H   0  0  0  0  0  0  0  0  0  0  0  0
  1  2  1  0
  1 26  1  0
  1 27  1  0
  1 28  1  0
  2 22  1  0
  2  3  1  0
  3  4  1  0
  3 29  1  0
  3 30  1  0
  4  5  1  0
  4 31  1  0
  4 32  1  0
  5 21  1  0
  5  6  1  0
  5 33  1  6
  6  7  1  0
  7 22  1  0
  7  8  1  1
  7  9  1  0
  8 34  1  0
  9 10  1  0
  9 35  1  0
  9 36  1  0
 10 20  1  0
 10 11  1  0
 10 37  1  6
 11 12  1  0
 12 13  2  0
 12 14  1  0
 14 19  2  0
 14 15  1  0
 15 16  2  0
 15 38  1  0
 16 25  1  0
 16 17  1  0
 17 18  2  0
 17 23  1  0
 18 19  1  0
 18 39  1  0
 19 20  1  0
 20 21  1  0
 20 40  1  6
 21 22  1  0
 21 41  1  6
 22 42  1  6
 23 24  1  0
 24 25  1  0
 24 43  1  0
 24 44  1  0
M  END
>  <i_m_ct_stereo_status>  (254) 
1

>  <s_m_source_file>  (254) 
/var/tmp/pbs.5076255.sched01/tmpq3cms3f1/82_sdm1vz9.sdf

>  <i_m_source_file_index>  (254) 
22

>  <i_lp_mmshare_version>  (254) 
48012

>  <i_f3d_flags>  (254) 
0

>  <s_epik_input>  (254) 
W0NIM11OMVtDSDJdW0NIMl1bQ0BASF0oTzIpW0NASF0oW0NASF0xW0NAXTIzW09IXSlbQ0BASF00W0NASF0oW0NIMl0zKU9DKD1PKWM1YzRbY0hdYzZjKFtjSF01KU9bQ0gyXU82

>  <s_epik_cmdline>  (254) 
J2VwaWtfcHl0aG9uJywgJy1waHQnLCAnMi4wJywgJy1waCcsICc3LjAnLCAnLXRuJywgJzgnLCAnLW1hJywgJzIwMCcsICctaW1hZScsICc8aW5maWxlLm1hZT4nLCAnLW9tYWUnLCAnPG91dGZpbGUubWFlPic=

>  <r_epik_Ionization_Penalty>  (254) 
0.875563

>  <r_epik_Ionization_Penalty_Charging>  (254) 
0

>  <r_epik_Ionization_Penalty_Neutral>  (254) 
0.875563

>  <r_epik_State_Penalty>  (254) 
0.913286

>  <r_epik_Charging_Adjusted_Penalty>  (254) 
0.913286

>  <i_epik_Tot_Q>  (254) 
0

>  <i_epik_Tot_abs_Q>  (254) 
0

>  <s_epik_Chemistry_Notes>  (254) 
This compound has an ester and may undergo hydrolysis at high or low pH. This compound contains an acetal/aminal-like group ( X-CH(R)-Y where X, Y are N, S, or O) that may be acid/base labile, releasing an aldehyde.

>  <s_lp_Force_Field>  (254) 
OPLS3e

>  <r_lp_Energy>  (254) 
43.931

>  <b_lp_Chiralities_Consistent>  (254) 
1

>  <s_lp_Variant>  (254) 
71:0-2

>  <s_i_glide_gridfile>  (254) 
pfpi4k_grid

>  <i_i_glide_lignum>  (254) 
22

>  <i_i_glide_rotatable_bonds>  (254) 
1

>  <r_i_docking_score>  (254) 
-3.06431

>  <r_i_glide_ligand_efficiency>  (254) 
-0.122573

>  <r_i_glide_ligand_efficiency_sa>  (254) 
-0.358404

>  <r_i_glide_ligand_efficiency_ln>  (254) 
-0.726334

>  <r_i_glide_gscore>  (254) 
-3.06431

>  <r_i_glide_lipo>  (254) 
-0.26729

>  <r_i_glide_hbond>  (254) 
-0.186948

>  <r_i_glide_metal>  (254) 
-0

>  <r_i_glide_rewards>  (254) 
-1.17581

>  <r_i_glide_evdw>  (254) 
-22.7536

>  <r_i_glide_ecoul>  (254) 
-1.72591

>  <r_i_glide_erotb>  (254) 
0

>  <r_i_glide_esite>  (254) 
-0.0376985

>  <r_i_glide_emodel>  (254) 
-29.6271

>  <r_i_glide_energy>  (254) 
-24.4795

>  <r_i_glide_einternal>  (254) 
0.0386736

>  <r_i_glide_intrahb_reward>  (254) 
-0

>  <i_i_glide_confnum>  (254) 
2

>  <i_i_glide_posenum>  (254) 
40

>  <r_i_glide_eff_state_penalty>  (254) 
0

>  <ligand_id>  (254) 
71

>  <original_smiles>  (254) 
CN1CCC2OC3(O)CC4OC(=O)c5cc6c(cc5C4C2C13)OCO6

>  <smiles>  (254) 
[H]OC12OC3([H])C([H])([H])C([H])([H])N(C([H])([H])[H])C1([H])C3([H])C1([H])c3c([H])c4c(c([H])c3C(=O)OC1([H])C2([H])[H])OC([H])([H])O4

$$$$
72:1:0
     RDKit          3D

 82 90  0  0  1  0  0  0  0  0999 V2000
    0.1329   -0.3212    7.0238 C   0  0  0  0  0  0  0  0  0  0  0  0
    0.1079    0.8568    6.2315 O   0  0  0  0  0  0  0  0  0  0  0  0
    1.3164    1.6235    6.1804 C   0  0  2  0  0  0  0  0  0  0  0  0
    2.4461    0.7818    5.6172 C   0  0  0  0  0  0  0  0  0  0  0  0
    3.5080    0.5032    6.1659 O   0  0  0  0  0  0  0  0  0  0  0  0
    2.2311    0.3234    4.1779 C   0  0  0  0  0  0  0  0  0  0  0  0
    2.7966    1.2920    3.1170 C   0  0  1  0  0  0  0  0  0  0  0  0
    2.8129    0.6061    1.7242 C   0  0  0  0  0  0  0  0  0  0  0  0
    3.6013   -0.6503    1.6733 N   0  0  0  0  0  0  0  0  0  0  0  0
    3.7521   -1.2335    0.3094 C   0  0  0  0  0  0  0  0  0  0  0  0
    4.3504   -2.6748    0.3963 C   0  0  0  0  0  0  0  0  0  0  0  0
    5.8810   -2.8304    0.4620 C   0  0  0  0  0  0  0  0  0  0  0  0
    6.7263   -1.7048    0.1928 C   0  0  0  0  0  0  0  0  0  0  0  0
    8.1177   -1.8702    0.2001 C   0  0  0  0  0  0  0  0  0  0  0  0
    8.7178   -3.1221    0.4495 C   0  0  0  0  0  0  0  0  0  0  0  0
    7.9242   -4.2429    0.7298 C   0  0  0  0  0  0  0  0  0  0  0  0
    8.5543   -5.4049    1.0030 N   0  0  0  0  0  0  0  0  0  0  0  0
    7.8305   -6.4932    1.2838 C   0  0  0  0  0  0  0  0  0  0  0  0
    6.4186   -6.4888    1.2890 C   0  0  0  0  0  0  0  0  0  0  0  0
    5.7390   -5.2779    1.0063 C   0  0  0  0  0  0  0  0  0  0  0  0
    6.4939   -4.0998    0.7345 C   0  0  0  0  0  0  0  0  0  0  0  0
    2.0744    2.6677    3.0653 C   0  0  0  0  0  0  0  0  0  0  0  0
    2.1519    3.4443    4.4201 C   0  0  1  0  0  0  0  0  0  0  0  0
    2.1939    4.9256    4.3948 N   0  0  0  0  0  0  0  0  0  0  0  0
    3.0743    5.4438    3.3277 C   0  0  0  0  0  0  0  0  0  0  0  0
    3.4617    6.9164    3.4178 C   0  0  0  0  0  0  0  0  0  0  0  0
    4.6852    7.4349    2.6841 C   0  0  0  0  0  0  0  0  0  0  0  0
    4.6737    7.4095    4.1907 C   0  0  0  0  0  0  0  0  0  0  0  0
    2.6841    5.3514    5.7224 C   0  0  0  0  0  0  0  0  0  0  0  0
    1.7237    5.0235    6.8750 C   0  0  0  0  0  0  0  0  0  0  0  0
    1.1048    3.6415    6.7677 C   0  0  2  0  0  0  0  0  0  0  0  0
   -0.2951    3.6750    7.1979 C   0  0  0  0  0  0  0  0  0  0  0  0
   -1.2495    3.7054    6.1916 C   0  0  0  0  0  0  0  0  0  0  0  0
   -2.5692    3.3801    6.5710 C   0  0  0  0  0  0  0  0  0  0  0  0
   -2.8140    3.0217    7.9290 C   0  0  0  0  0  0  0  0  0  0  0  0
   -1.7350    2.7588    8.8205 C   0  0  0  0  0  0  0  0  0  0  0  0
   -1.9206    2.2111   10.0544 O   0  0  0  0  0  0  0  0  0  0  0  0
   -0.4163    2.9655    8.3557 C   0  0  0  0  0  0  0  0  0  0  0  0
    0.7355    2.2957    8.6613 O   0  0  0  0  0  0  0  0  0  0  0  0
    1.6327    2.4198    7.5005 C   0  0  1  0  0  0  0  0  0  0  0  0
   -0.4370    3.3282    4.9409 C   0  0  0  0  0  0  0  0  0  0  0  0
    1.0316    2.9785    5.4129 C   0  0  2  0  0  0  0  0  0  0  0  0
   -0.8686   -0.7448    7.0241 H   0  0  0  0  0  0  0  0  0  0  0  0
    0.4229   -0.0980    8.0502 H   0  0  0  0  0  0  0  0  0  0  0  0
    0.8066   -1.0769    6.6195 H   0  0  0  0  0  0  0  0  0  0  0  0
    2.7495   -0.6230    4.1360 H   0  0  0  0  0  0  0  0  0  0  0  0
    1.1774    0.1331    4.0083 H   0  0  0  0  0  0  0  0  0  0  0  0
    3.8444    1.4762    3.3547 H   0  0  0  0  0  0  0  0  0  0  0  0
    1.8023    0.3990    1.3600 H   0  0  0  0  0  0  0  0  0  0  0  0
    3.2532    1.2854    0.9968 H   0  0  0  0  0  0  0  0  0  0  0  0
    4.5282   -0.4962    2.0823 H   0  0  0  0  0  0  0  0  0  0  0  0
    2.7428   -1.3247   -0.1429 H   0  0  0  0  0  0  0  0  0  0  0  0
    4.3115   -0.5602   -0.3493 H   0  0  0  0  0  0  0  0  0  0  0  0
    3.9008   -3.1800    1.2608 H   0  0  0  0  0  0  0  0  0  0  0  0
    3.9873   -3.2307   -0.4640 H   0  0  0  0  0  0  0  0  0  0  0  0
    6.3242   -0.7281   -0.0131 H   0  0  0  0  0  0  0  0  0  0  0  0
    8.7784   -1.0319    0.0775 H   0  0  0  0  0  0  0  0  0  0  0  0
    9.8007   -3.1638    0.4966 H   0  0  0  0  0  0  0  0  0  0  0  0
    8.4045   -7.3844    1.4969 H   0  0  0  0  0  0  0  0  0  0  0  0
    5.8846   -7.3951    1.5068 H   0  0  0  0  0  0  0  0  0  0  0  0
    4.6578   -5.2806    0.9993 H   0  0  0  0  0  0  0  0  0  0  0  0
    2.5601    3.2135    2.2662 H   0  0  0  0  0  0  0  0  0  0  0  0
    1.0490    2.5565    2.7125 H   0  0  0  0  0  0  0  0  0  0  0  0
    3.1573    3.1967    4.8003 H   0  0  0  0  0  0  0  0  0  0  0  0
    3.9893    4.8679    3.3066 H   0  0  0  0  0  0  0  0  0  0  0  0
    2.6066    5.2946    2.3492 H   0  0  0  0  0  0  0  0  0  0  0  0
    2.6026    7.5795    3.3887 H   0  0  0  0  0  0  0  0  0  0  0  0
    5.3595    6.7286    2.1997 H   0  0  0  0  0  0  0  0  0  0  0  0
    4.6386    8.4191    2.2206 H   0  0  0  0  0  0  0  0  0  0  0  0
    4.5630    8.3585    4.7155 H   0  0  0  0  0  0  0  0  0  0  0  0
    5.2782    6.6602    4.7053 H   0  0  0  0  0  0  0  0  0  0  0  0
    3.6504    4.8959    5.9131 H   0  0  0  0  0  0  0  0  0  0  0  0
    2.8596    6.4232    5.7600 H   0  0  0  0  0  0  0  0  0  0  0  0
    2.2030    5.2029    7.8450 H   0  0  0  0  0  0  0  0  0  0  0  0
    0.9347    5.7741    6.7966 H   0  0  0  0  0  0  0  0  0  0  0  0
   -3.3811    3.2730    5.8479 H   0  0  0  0  0  0  0  0  0  0  0  0
   -3.8078    2.8432    8.2828 H   0  0  0  0  0  0  0  0  0  0  0  0
   -2.7559    2.3433   10.4772 H   0  0  0  0  0  0  0  0  0  0  0  0
    2.7087    2.5245    7.6727 H   0  0  0  0  0  0  0  0  0  0  0  0
   -0.8825    2.5152    4.3616 H   0  0  0  0  0  0  0  0  0  0  0  0
   -0.4008    4.1986    4.2923 H   0  0  0  0  0  0  0  0  0  0  0  0
    3.0994   -1.3282    2.2643 H   0  0  0  0  0  0  0  0  0  0  0  0
  1  2  1  0
  1 43  1  0
  1 44  1  0
  1 45  1  0
  3  2  1  1
  3 40  1  0
  3 42  1  0
  3  4  1  0
  4  5  2  0
  4  6  1  0
  6  7  1  0
  6 46  1  0
  6 47  1  0
  7  8  1  0
  7 22  1  0
  7 48  1  1
  8  9  1  0
  8 49  1  0
  8 50  1  0
  9 10  1  0
  9 51  1  0
  9 82  1  0
 10 11  1  0
 10 52  1  0
 10 53  1  0
 11 12  1  0
 11 54  1  0
 11 55  1  0
 12 21  1  0
 12 13  2  0
 13 14  1  0
 13 56  1  0
 14 15  2  0
 14 57  1  0
 15 16  1  0
 15 58  1  0
 16 21  2  0
 16 17  1  0
 17 18  2  0
 18 19  1  0
 18 59  1  0
 19 20  2  0
 19 60  1  0
 20 21  1  0
 20 61  1  0
 22 23  1  0
 22 62  1  0
 22 63  1  0
 23 42  1  0
 23 24  1  0
 23 64  1  1
 24 25  1  0
 24 29  1  0
 25 26  1  0
 25 65  1  0
 25 66  1  0
 26 28  1  0
 26 27  1  0
 26 67  1  0
 27 28  1  0
 27 68  1  0
 27 69  1  0
 28 70  1  0
 28 71  1  0
 29 30  1  0
 29 72  1  0
 29 73  1  0
 31 30  1  6
 30 74  1  0
 30 75  1  0
 31 40  1  0
 31 42  1  0
 31 32  1  0
 32 38  1  0
 32 33  2  0
 33 34  1  0
 33 41  1  0
 34 35  2  0
 34 76  1  0
 35 36  1  0
 35 77  1  0
 36 37  1  0
 36 38  2  0
 37 78  1  0
 38 39  1  0
 39 40  1  0
 40 79  1  1
 42 41  1  6
 41 80  1  0
 41 81  1  0
M  CHG  1   9   1
M  END
>  <i_m_ct_stereo_status>  (255) 
1

>  <s_m_source_file>  (255) 
/var/tmp/pbs.5076255.sched01/tmpq3cms3f1/82_sdm1vz9.sdf

>  <i_m_source_file_index>  (255) 
24

>  <i_lp_mmshare_version>  (255) 
48012

>  <i_f3d_flags>  (255) 
0

>  <s_epik_input>  (255) 
W09IXWMxW2NIXVtjSF1jKFtDSDJdMiljM2MxT1tDQEhdNFtDQF0oW0NAXTI1W0NAQF0zNDYpKE9bQ0gzXSlDKD1PKVtDSDJdW0NASF0oW0NIMl1bQ0BIXTVOKFtDSDJdW0NIMl02KVtDSDJdW0NIXTdbQ0gyXVtDSDJdNylbQ0gyXVtOSF1bQ0gyXVtDSDJdYyhbY0hdW2NIXVtjSF04KWMoYzg5KVtjSF1bY0hdW2NIXW45

>  <s_epik_cmdline>  (255) 
J2VwaWtfcHl0aG9uJywgJy1waHQnLCAnMi4wJywgJy1waCcsICc3LjAnLCAnLXRuJywgJzgnLCAnLW1hJywgJzIwMCcsICctaW1hZScsICc8aW5maWxlLm1hZT4nLCAnLW9tYWUnLCAnPG91dGZpbGUubWFlPic=

>  <r_lp_tautomer_probability>  (255) 
0.99995

>  <r_epik_Ionization_Penalty>  (255) 
1.70637

>  <r_epik_Ionization_Penalty_Charging>  (255) 
0.00117463

>  <r_epik_Ionization_Penalty_Neutral>  (255) 
1.70519

>  <r_epik_State_Penalty>  (255) 
1.80578

>  <r_epik_Charging_Adjusted_Penalty>  (255) 
1.80696

>  <i_epik_Tot_Q>  (255) 
1

>  <i_epik_Tot_abs_Q>  (255) 
1

>  <s_lp_Force_Field>  (255) 
OPLS3e

>  <r_lp_Energy>  (255) 
143.65

>  <b_lp_Chiralities_Consistent>  (255) 
1

>  <s_lp_Variant>  (255) 
72:0-2

>  <s_i_glide_gridfile>  (255) 
pfpi4k_grid

>  <i_i_glide_lignum>  (255) 
24

>  <i_i_glide_rotatable_bonds>  (255) 
9

>  <r_i_docking_score>  (255) 
-3.30313

>  <r_i_glide_ligand_efficiency>  (255) 
-0.078646

>  <r_i_glide_ligand_efficiency_sa>  (255) 
-0.273376

>  <r_i_glide_ligand_efficiency_ln>  (255) 
-0.697206

>  <r_i_glide_gscore>  (255) 
-3.30313

>  <r_i_glide_lipo>  (255) 
-1.23247

>  <r_i_glide_hbond>  (255) 
0

>  <r_i_glide_metal>  (255) 
-0

>  <r_i_glide_rewards>  (255) 
0

>  <r_i_glide_evdw>  (255) 
-32.6655

>  <r_i_glide_ecoul>  (255) 
-4.89749

>  <r_i_glide_erotb>  (255) 
0.302549

>  <r_i_glide_esite>  (255) 
-0.00530817

>  <r_i_glide_emodel>  (255) 
-39.1587

>  <r_i_glide_energy>  (255) 
-37.563

>  <r_i_glide_einternal>  (255) 
10.3381

>  <r_i_glide_intrahb_reward>  (255) 
-0

>  <i_i_glide_confnum>  (255) 
1

>  <i_i_glide_posenum>  (255) 
2

>  <r_i_glide_eff_state_penalty>  (255) 
0

>  <ligand_id>  (255) 
72

>  <original_smiles>  (255) 
COC12C(=O)CC(CNCCc3cccc4ncccc34)CC3N(CC4CC4)CCC45c6c(ccc(O)c6OC14)CC325

>  <smiles>  (255) 
[H]Oc1c([H])c([H])c2c3c1OC1([H])C4(OC([H])([H])[H])C(=O)C([H])([H])C([H])(C([H])([H])[N+]([H])([H])C([H])([H])C([H])([H])c5c([H])c([H])c([H])c6nc([H])c([H])c([H])c56)C([H])([H])C5([H])N(C([H])([H])C6([H])C([H])([H])C6([H])[H])C([H])([H])C([H])([H])C31C45C2([H])[H]

$$$$
72:1:1
     RDKit          3D

 82 90  0  0  1  0  0  0  0  0999 V2000
    2.9800   -1.2802    0.7110 C   0  0  0  0  0  0  0  0  0  0  0  0
    2.5070   -1.3691    2.0531 O   0  0  0  0  0  0  0  0  0  0  0  0
    2.8110   -0.2699    2.9262 C   0  0  2  0  0  0  0  0  0  0  0  0
    1.9769    0.9473    2.5549 C   0  0  0  0  0  0  0  0  0  0  0  0
    2.3947    2.0561    2.2373 O   0  0  0  0  0  0  0  0  0  0  0  0
    0.4568    0.7961    2.6982 C   0  0  0  0  0  0  0  0  0  0  0  0
   -0.0882    1.1993    4.0963 C   0  0  1  0  0  0  0  0  0  0  0  0
   -1.6395    1.2885    4.0842 C   0  0  0  0  0  0  0  0  0  0  0  0
   -2.1134    2.3833    3.2107 N   0  0  0  0  0  0  0  0  0  0  0  0
   -3.4183    2.9645    3.5914 C   0  0  0  0  0  0  0  0  0  0  0  0
   -4.1981    3.6399    2.4377 C   0  0  0  0  0  0  0  0  0  0  0  0
   -3.7310    5.0283    2.1206 C   0  0  0  0  0  0  0  0  0  0  0  0
   -2.3695    5.3317    2.3704 C   0  0  0  0  0  0  0  0  0  0  0  0
   -1.8080    6.4900    1.9140 C   0  0  0  0  0  0  0  0  0  0  0  0
   -2.6599    7.4935    1.4218 C   0  0  0  0  0  0  0  0  0  0  0  0
   -4.0178    7.3092    1.2302 C   0  0  0  0  0  0  0  0  0  0  0  0
   -4.7700    8.3382    0.7379 N   0  0  0  0  0  0  0  0  0  0  0  0
   -6.0724    8.1320    0.5232 C   0  0  0  0  0  0  0  0  0  0  0  0
   -6.7032    6.9047    0.7869 C   0  0  0  0  0  0  0  0  0  0  0  0
   -5.9596    5.8508    1.3378 C   0  0  0  0  0  0  0  0  0  0  0  0
   -4.5889    6.0487    1.5663 C   0  0  0  0  0  0  0  0  0  0  0  0
    0.4029    0.2763    5.2427 C   0  0  0  0  0  0  0  0  0  0  0  0
    1.9614    0.2695    5.4031 C   0  0  1  0  0  0  0  0  0  0  0  0
    2.5286    0.1072    6.7650 N   0  0  0  0  0  0  0  0  0  0  0  0
    1.8090    0.8900    7.7876 C   0  0  0  0  0  0  0  0  0  0  0  0
    2.4301    0.9076    9.1767 C   0  0  0  0  0  0  0  0  0  0  0  0
    1.7390    1.6758   10.2862 C   0  0  0  0  0  0  0  0  0  0  0  0
    3.0649    2.1584    9.7566 C   0  0  0  0  0  0  0  0  0  0  0  0
    3.9313    0.5544    6.6955 C   0  0  0  0  0  0  0  0  0  0  0  0
    4.8131   -0.3350    5.7926 C   0  0  0  0  0  0  0  0  0  0  0  0
    4.1405   -0.7606    4.4997 C   0  0  2  0  0  0  0  0  0  0  0  0
    4.4823   -2.1404    4.1466 C   0  0  0  0  0  0  0  0  0  0  0  0
    3.5298   -3.0976    4.4330 C   0  0  0  0  0  0  0  0  0  0  0  0
    3.6997   -4.3510    3.7907 C   0  0  0  0  0  0  0  0  0  0  0  0
    4.7743   -4.5012    2.8659 C   0  0  0  0  0  0  0  0  0  0  0  0
    5.5013   -3.3637    2.4182 C   0  0  0  0  0  0  0  0  0  0  0  0
    6.3486   -3.4653    1.3527 O   0  0  0  0  0  0  0  0  0  0  0  0
    5.2837   -2.1180    3.0387 C   0  0  0  0  0  0  0  0  0  0  0  0
    5.3945   -0.8456    2.5349 O   0  0  0  0  0  0  0  0  0  0  0  0
    4.3525   -0.0320    3.1859 C   0  0  1  0  0  0  0  0  0  0  0  0
    2.2719   -2.2578    4.7289 C   0  0  0  0  0  0  0  0  0  0  0  0
    2.6372   -0.7500    4.4269 C   0  0  2  0  0  0  0  0  0  0  0  0
    2.6733   -2.1879    0.1932 H   0  0  0  0  0  0  0  0  0  0  0  0
    4.0576   -1.2296    0.6313 H   0  0  0  0  0  0  0  0  0  0  0  0
    2.6228   -0.3974    0.1905 H   0  0  0  0  0  0  0  0  0  0  0  0
    0.0283    1.4559    1.9451 H   0  0  0  0  0  0  0  0  0  0  0  0
    0.1706   -0.2222    2.4421 H   0  0  0  0  0  0  0  0  0  0  0  0
    0.2633    2.2086    4.3327 H   0  0  0  0  0  0  0  0  0  0  0  0
   -2.0713    0.3423    3.7616 H   0  0  0  0  0  0  0  0  0  0  0  0
   -2.0023    1.4338    5.1056 H   0  0  0  0  0  0  0  0  0  0  0  0
   -1.4321    3.1331    3.2630 H   0  0  0  0  0  0  0  0  0  0  0  0
   -4.0738    2.1649    3.8644 H   0  0  0  0  0  0  0  0  0  0  0  0
   -3.3051    3.6125    4.4560 H   0  0  0  0  0  0  0  0  0  0  0  0
   -4.1504    3.0194    1.5512 H   0  0  0  0  0  0  0  0  0  0  0  0
   -5.2389    3.6723    2.7670 H   0  0  0  0  0  0  0  0  0  0  0  0
   -1.5949    4.6656    2.7157 H   0  0  0  0  0  0  0  0  0  0  0  0
   -0.7329    6.5060    2.0268 H   0  0  0  0  0  0  0  0  0  0  0  0
   -2.2708    8.4728    1.2421 H   0  0  0  0  0  0  0  0  0  0  0  0
   -6.6360    8.9845    0.1221 H   0  0  0  0  0  0  0  0  0  0  0  0
   -7.7489    6.7347    0.6034 H   0  0  0  0  0  0  0  0  0  0  0  0
   -6.4669    4.9536    1.5767 H   0  0  0  0  0  0  0  0  0  0  0  0
   -0.0872    0.6656    6.1249 H   0  0  0  0  0  0  0  0  0  0  0  0
    0.0037   -0.7300    5.1300 H   0  0  0  0  0  0  0  0  0  0  0  0
    2.2490    1.2983    5.1575 H   0  0  0  0  0  0  0  0  0  0  0  0
    1.6673    1.9166    7.4507 H   0  0  0  0  0  0  0  0  0  0  0  0
    0.8165    0.4647    7.9386 H   0  0  0  0  0  0  0  0  0  0  0  0
    2.8359   -0.0524    9.4918 H   0  0  0  0  0  0  0  0  0  0  0  0
    0.8559    2.2645   10.0403 H   0  0  0  0  0  0  0  0  0  0  0  0
    1.7413    1.2475   11.2855 H   0  0  0  0  0  0  0  0  0  0  0  0
    3.9324    2.0269   10.3989 H   0  0  0  0  0  0  0  0  0  0  0  0
    3.0738    3.0580    9.1406 H   0  0  0  0  0  0  0  0  0  0  0  0
    3.9671    1.5748    6.3315 H   0  0  0  0  0  0  0  0  0  0  0  0
    4.3896    0.5885    7.6797 H   0  0  0  0  0  0  0  0  0  0  0  0
    5.7882    0.1342    5.6080 H   0  0  0  0  0  0  0  0  0  0  0  0
    5.0309   -1.2308    6.3799 H   0  0  0  0  0  0  0  0  0  0  0  0
    2.9898   -5.1591    3.9044 H   0  0  0  0  0  0  0  0  0  0  0  0
    4.9779   -5.4438    2.4042 H   0  0  0  0  0  0  0  0  0  0  0  0
    6.7561   -2.6464    1.1284 H   0  0  0  0  0  0  0  0  0  0  0  0
    4.5838    1.0101    3.3956 H   0  0  0  0  0  0  0  0  0  0  0  0
    1.4045   -2.6024    4.1606 H   0  0  0  0  0  0  0  0  0  0  0  0
    2.0505   -2.3847    5.7799 H   0  0  0  0  0  0  0  0  0  0  0  0
   -2.1851    2.0323    2.2536 H   0  0  0  0  0  0  0  0  0  0  0  0
  1  2  1  0
  1 43  1  0
  1 44  1  0
  1 45  1  0
  3  2  1  6
  3 40  1  0
  3 42  1  0
  3  4  1  0
  4  5  2  0
  4  6  1  0
  6  7  1  0
  6 46  1  0
  6 47  1  0
  7  8  1  0
  7 22  1  0
  7 48  1  1
  8  9  1  0
  8 49  1  0
  8 50  1  0
  9 10  1  0
  9 51  1  0
  9 82  1  0
 10 11  1  0
 10 52  1  0
 10 53  1  0
 11 12  1  0
 11 54  1  0
 11 55  1  0
 12 21  1  0
 12 13  2  0
 13 14  1  0
 13 56  1  0
 14 15  2  0
 14 57  1  0
 15 16  1  0
 15 58  1  0
 16 21  2  0
 16 17  1  0
 17 18  2  0
 18 19  1  0
 18 59  1  0
 19 20  2  0
 19 60  1  0
 20 21  1  0
 20 61  1  0
 22 23  1  0
 22 62  1  0
 22 63  1  0
 23 42  1  0
 23 24  1  0
 23 64  1  6
 24 25  1  0
 24 29  1  0
 25 26  1  0
 25 65  1  0
 25 66  1  0
 26 28  1  0
 26 27  1  0
 26 67  1  0
 27 28  1  0
 27 68  1  0
 27 69  1  0
 28 70  1  0
 28 71  1  0
 29 30  1  0
 29 72  1  0
 29 73  1  0
 31 30  1  1
 30 74  1  0
 30 75  1  0
 31 40  1  0
 31 42  1  0
 31 32  1  0
 32 38  1  0
 32 33  2  0
 33 34  1  0
 33 41  1  0
 34 35  2  0
 34 76  1  0
 35 36  1  0
 35 77  1  0
 36 37  1  0
 36 38  2  0
 37 78  1  0
 38 39  1  0
 39 40  1  0
 40 79  1  1
 42 41  1  6
 41 80  1  0
 41 81  1  0
M  CHG  1   9   1
M  END
>  <i_m_ct_stereo_status>  (256) 
1

>  <s_m_source_file>  (256) 
/var/tmp/pbs.5076255.sched01/tmpq3cms3f1/82_sdm1vz9.sdf

>  <i_m_source_file_index>  (256) 
24

>  <i_lp_mmshare_version>  (256) 
48012

>  <i_f3d_flags>  (256) 
0

>  <s_epik_input>  (256) 
W09IXWMxW2NIXVtjSF1jKFtDSDJdMiljM2MxT1tDQEhdNFtDQF0oW0NAXTI1W0NAQF0zNDYpKE9bQ0gzXSlDKD1PKVtDSDJdW0NASF0oW0NIMl1bQ0BIXTVOKFtDSDJdW0NIMl02KVtDSDJdW0NIXTdbQ0gyXVtDSDJdNylbQ0gyXVtOSF1bQ0gyXVtDSDJdYyhbY0hdW2NIXVtjSF04KWMoYzg5KVtjSF1bY0hdW2NIXW45

>  <s_epik_cmdline>  (256) 
J2VwaWtfcHl0aG9uJywgJy1waHQnLCAnMi4wJywgJy1waCcsICc3LjAnLCAnLXRuJywgJzgnLCAnLW1hJywgJzIwMCcsICctaW1hZScsICc8aW5maWxlLm1hZT4nLCAnLW9tYWUnLCAnPG91dGZpbGUubWFlPic=

>  <r_lp_tautomer_probability>  (256) 
0.99995

>  <r_epik_Ionization_Penalty>  (256) 
1.70637

>  <r_epik_Ionization_Penalty_Charging>  (256) 
0.00117463

>  <r_epik_Ionization_Penalty_Neutral>  (256) 
1.70519

>  <r_epik_State_Penalty>  (256) 
1.80578

>  <r_epik_Charging_Adjusted_Penalty>  (256) 
1.80696

>  <i_epik_Tot_Q>  (256) 
1

>  <i_epik_Tot_abs_Q>  (256) 
1

>  <s_lp_Force_Field>  (256) 
OPLS3e

>  <r_lp_Energy>  (256) 
143.65

>  <b_lp_Chiralities_Consistent>  (256) 
1

>  <s_lp_Variant>  (256) 
72:0-2

>  <s_i_glide_gridfile>  (256) 
pfpi4k_grid

>  <i_i_glide_lignum>  (256) 
24

>  <i_i_glide_rotatable_bonds>  (256) 
9

>  <r_i_docking_score>  (256) 
-2.33651

>  <r_i_glide_ligand_efficiency>  (256) 
-0.0556312

>  <r_i_glide_ligand_efficiency_sa>  (256) 
-0.193376

>  <r_i_glide_ligand_efficiency_ln>  (256) 
-0.493177

>  <r_i_glide_gscore>  (256) 
-2.33651

>  <r_i_glide_lipo>  (256) 
-1.40888

>  <r_i_glide_hbond>  (256) 
0

>  <r_i_glide_metal>  (256) 
-0

>  <r_i_glide_rewards>  (256) 
0

>  <r_i_glide_evdw>  (256) 
-5.39135

>  <r_i_glide_ecoul>  (256) 
-6.82098

>  <r_i_glide_erotb>  (256) 
0.302549

>  <r_i_glide_esite>  (256) 
-0.0386097

>  <r_i_glide_emodel>  (256) 
-9.06591

>  <r_i_glide_energy>  (256) 
-12.2123

>  <r_i_glide_einternal>  (256) 
9.6793

>  <r_i_glide_intrahb_reward>  (256) 
-0

>  <i_i_glide_confnum>  (256) 
1

>  <i_i_glide_posenum>  (256) 
1

>  <r_i_glide_eff_state_penalty>  (256) 
0

>  <ligand_id>  (256) 
72

>  <original_smiles>  (256) 
COC12C(=O)CC(CNCCc3cccc4ncccc34)CC3N(CC4CC4)CCC45c6c(ccc(O)c6OC14)CC325

>  <smiles>  (256) 
[H]Oc1c([H])c([H])c2c3c1OC1([H])C4(OC([H])([H])[H])C(=O)C([H])([H])C([H])(C([H])([H])[N+]([H])([H])C([H])([H])C([H])([H])c5c([H])c([H])c([H])c6nc([H])c([H])c([H])c56)C([H])([H])C5([H])N(C([H])([H])C6([H])C([H])([H])C6([H])[H])C([H])([H])C([H])([H])C31C45C2([H])[H]

$$$$
73:0:0
     RDKit          3D

 81 85  0  0  1  0  0  0  0  0999 V2000
   -1.9653   -9.0534    2.7601 C   0  0  0  0  0  0  0  0  0  0  0  0
   -0.4556   -9.2025    2.4418 C   0  0  0  0  0  0  0  0  0  0  0  0
   -0.1596  -10.6676    2.2727 C   0  0  0  0  0  0  0  0  0  0  0  0
    0.6221   -8.5730    3.3861 C   0  0  2  0  0  0  0  0  0  0  0  0
    0.0037   -8.1061    4.7099 C   0  0  0  0  0  0  0  0  0  0  0  0
    1.0169   -7.1559    5.3197 C   0  0  1  0  0  0  0  0  0  0  0  0
    1.6678   -7.8510    6.3633 O   0  0  0  0  0  0  0  0  0  0  0  0
    1.9025   -6.6476    4.1386 C   0  0  1  0  0  0  0  0  0  0  0  0
    3.4373   -6.4230    4.3756 C   0  0  2  0  0  0  0  0  0  0  0  0
    4.1500   -7.7197    4.8398 C   0  0  0  0  0  0  0  0  0  0  0  0
    3.5617   -5.3537    5.5005 C   0  0  0  0  0  0  0  0  0  0  0  0
    4.8478   -4.5565    5.4673 C   0  0  0  0  0  0  0  0  0  0  0  0
    5.0519   -3.8773    4.1060 C   0  0  1  0  0  0  0  0  0  0  0  0
    5.2145   -4.9444    2.9682 C   0  0  2  0  0  0  0  0  0  0  0  0
    6.5663   -5.7106    3.0742 C   0  0  0  0  0  0  0  0  0  0  0  0
    5.2442   -4.2076    1.5959 C   0  0  0  0  0  0  0  0  0  0  0  0
    5.7834   -2.7811    1.6985 C   0  0  0  0  0  0  0  0  0  0  0  0
    4.9635   -1.8250    2.6280 C   0  0  1  0  0  0  0  0  0  0  0  0
    4.1718   -0.6736    1.9099 C   0  0  0  0  0  0  0  0  0  0  0  0
    3.9187    0.5368    2.8482 C   0  0  0  0  0  0  0  0  0  0  0  0
    4.9437   -0.0662    0.7196 C   0  0  0  0  0  0  0  0  0  0  0  0
    2.7982   -1.1551    1.4054 C   0  0  1  0  0  0  0  0  0  0  0  0
    2.9515   -2.0228    0.3145 O   0  0  0  0  0  0  0  0  0  0  0  0
    1.9744   -1.8422    2.5019 C   0  0  0  0  0  0  0  0  0  0  0  0
    2.7301   -2.9800    3.2017 C   0  0  0  0  0  0  0  0  0  0  0  0
    4.1584   -2.6200    3.7317 C   0  0  1  0  0  0  0  0  0  0  0  0
    3.9933   -1.7655    5.0188 C   0  0  0  0  0  0  0  0  0  0  0  0
    4.0892   -6.0166    3.0158 C   0  0  0  0  0  0  0  0  0  0  0  0
    3.7431   -6.7213    1.9155 C   0  0  0  0  0  0  0  0  0  0  0  0
    2.7173   -7.8446    1.9640 C   0  0  0  0  0  0  0  0  0  0  0  0
    1.4957   -7.3987    2.8213 C   0  0  1  0  0  0  0  0  0  0  0  0
    0.6618   -6.4515    1.9022 C   0  0  0  0  0  0  0  0  0  0  0  0
    1.1564   -5.9662    0.8611 O   0  0  0  0  0  0  0  0  0  0  0  0
   -0.5263   -6.2695    2.2868 O   0  0  0  0  0  0  0  0  0  0  0  0
   -2.1774   -9.4292    3.7519 H   0  0  0  0  0  0  0  0  0  0  0  0
   -2.5851   -9.6347    2.0534 H   0  0  0  0  0  0  0  0  0  0  0  0
   -2.2924   -8.0178    2.7308 H   0  0  0  0  0  0  0  0  0  0  0  0
   -0.3663   -8.7460    1.4647 H   0  0  0  0  0  0  0  0  0  0  0  0
   -0.1615  -11.2012    3.2419 H   0  0  0  0  0  0  0  0  0  0  0  0
    0.8103  -10.7405    1.8001 H   0  0  0  0  0  0  0  0  0  0  0  0
   -0.8924  -11.0389    1.5772 H   0  0  0  0  0  0  0  0  0  0  0  0
    1.3370   -9.3658    3.6300 H   0  0  0  0  0  0  0  0  0  0  0  0
   -0.9037   -7.5119    4.5725 H   0  0  0  0  0  0  0  0  0  0  0  0
   -0.2511   -8.9650    5.3406 H   0  0  0  0  0  0  0  0  0  0  0  0
    0.4748   -6.3212    5.7576 H   0  0  0  0  0  0  0  0  0  0  0  0
    2.0587   -8.6154    5.9675 H   0  0  0  0  0  0  0  0  0  0  0  0
    1.5188   -5.6404    3.9747 H   0  0  0  0  0  0  0  0  0  0  0  0
    4.1268   -7.8441    5.9200 H   0  0  0  0  0  0  0  0  0  0  0  0
    5.1972   -7.7163    4.5555 H   0  0  0  0  0  0  0  0  0  0  0  0
    3.7016   -8.6103    4.4025 H   0  0  0  0  0  0  0  0  0  0  0  0
    2.7242   -4.6586    5.4959 H   0  0  0  0  0  0  0  0  0  0  0  0
    3.4858   -5.8374    6.4720 H   0  0  0  0  0  0  0  0  0  0  0  0
    4.8866   -3.8484    6.2920 H   0  0  0  0  0  0  0  0  0  0  0  0
    5.6748   -5.2311    5.6641 H   0  0  0  0  0  0  0  0  0  0  0  0
    6.0329   -3.4284    4.2612 H   0  0  0  0  0  0  0  0  0  0  0  0
    7.4371   -5.0610    2.9243 H   0  0  0  0  0  0  0  0  0  0  0  0
    6.5926   -6.5061    2.3182 H   0  0  0  0  0  0  0  0  0  0  0  0
    6.6701   -6.2123    4.0359 H   0  0  0  0  0  0  0  0  0  0  0  0
    5.8570   -4.7546    0.8865 H   0  0  0  0  0  0  0  0  0  0  0  0
    4.2742   -4.1523    1.1086 H   0  0  0  0  0  0  0  0  0  0  0  0
    6.8166   -2.8285    2.0666 H   0  0  0  0  0  0  0  0  0  0  0  0
    5.8832   -2.4014    0.6964 H   0  0  0  0  0  0  0  0  0  0  0  0
    5.7365   -1.2742    3.1478 H   0  0  0  0  0  0  0  0  0  0  0  0
    3.7245    1.4245    2.2623 H   0  0  0  0  0  0  0  0  0  0  0  0
    4.7676    0.7318    3.4982 H   0  0  0  0  0  0  0  0  0  0  0  0
    3.0144    0.4707    3.4404 H   0  0  0  0  0  0  0  0  0  0  0  0
    4.4055    0.8276    0.4163 H   0  0  0  0  0  0  0  0  0  0  0  0
    4.9893   -0.6990   -0.1663 H   0  0  0  0  0  0  0  0  0  0  0  0
    5.9640    0.2013    0.9865 H   0  0  0  0  0  0  0  0  0  0  0  0
    2.2340   -0.3020    1.0245 H   0  0  0  0  0  0  0  0  0  0  0  0
    2.1820   -1.8799   -0.2339 H   0  0  0  0  0  0  0  0  0  0  0  0
    1.6566   -1.1159    3.2469 H   0  0  0  0  0  0  0  0  0  0  0  0
    1.0461   -2.2276    2.0813 H   0  0  0  0  0  0  0  0  0  0  0  0
    2.1042   -3.3074    4.0227 H   0  0  0  0  0  0  0  0  0  0  0  0
    2.7575   -3.8089    2.5032 H   0  0  0  0  0  0  0  0  0  0  0  0
    3.3719   -0.8923    4.8898 H   0  0  0  0  0  0  0  0  0  0  0  0
    4.9507   -1.4311    5.4260 H   0  0  0  0  0  0  0  0  0  0  0  0
    3.4741   -2.3178    5.7963 H   0  0  0  0  0  0  0  0  0  0  0  0
    4.1595   -6.5011    0.9406 H   0  0  0  0  0  0  0  0  0  0  0  0
    2.3619   -8.0355    0.9510 H   0  0  0  0  0  0  0  0  0  0  0  0
    3.1750   -8.7740    2.3050 H   0  0  0  0  0  0  0  0  0  0  0  0
  1  2  1  0
  1 35  1  0
  1 36  1  0
  1 37  1  0
  2  3  1  0
  2  4  1  0
  2 38  1  0
  3 39  1  0
  3 40  1  0
  3 41  1  0
  4 31  1  0
  4  5  1  0
  4 42  1  1
  5  6  1  0
  5 43  1  0
  5 44  1  0
  6  7  1  0
  6  8  1  0
  6 45  1  1
  7 46  1  0
  8 31  1  0
  8  9  1  0
  8 47  1  6
  9 28  1  0
  9 10  1  1
  9 11  1  0
 10 48  1  0
 10 49  1  0
 10 50  1  0
 11 12  1  0
 11 51  1  0
 11 52  1  0
 12 13  1  0
 12 53  1  0
 12 54  1  0
 13 26  1  0
 13 14  1  0
 13 55  1  1
 14 15  1  1
 14 16  1  0
 14 28  1  0
 15 56  1  0
 15 57  1  0
 15 58  1  0
 16 17  1  0
 16 59  1  0
 16 60  1  0
 17 18  1  0
 17 61  1  0
 17 62  1  0
 18 26  1  0
 18 19  1  0
 18 63  1  1
 19 20  1  0
 19 21  1  0
 19 22  1  0
 20 64  1  0
 20 65  1  0
 20 66  1  0
 21 67  1  0
 21 68  1  0
 21 69  1  0
 22 23  1  0
 22 24  1  0
 22 70  1  6
 23 71  1  0
 24 25  1  0
 24 72  1  0
 24 73  1  0
 25 26  1  0
 25 74  1  0
 25 75  1  0
 26 27  1  1
 27 76  1  0
 27 77  1  0
 27 78  1  0
 28 29  2  0
 29 30  1  0
 29 79  1  0
 30 31  1  0
 30 80  1  0
 30 81  1  0
 31 32  1  6
 32 33  2  0
 32 34  1  0
M  CHG  1  34  -1
M  END
>  <i_m_ct_stereo_status>  (257) 
1

>  <s_m_source_file>  (257) 
/var/tmp/pbs.5076255.sched01/tmpq3cms3f1/82_sdm1vz9.sdf

>  <i_m_source_file_index>  (257) 
25

>  <i_lp_mmshare_version>  (257) 
48012

>  <i_f3d_flags>  (257) 
0

>  <s_epik_input>  (257) 
W09IXVtDQEBIXTFbQ0gyXVtDQEBIXShbQ0hdKFtDSDNdKVtDSDNdKVtDQEBdKEMoPU8pW09IXSkoW0NAQEhdMVtDQF0yM1tDSDNdKVtDSDJdW0NIXT1DM1tDQF00KFtDSDNdKVtDQEhdKFtDSDJdW0NIMl0yKVtDQEBdNShbQ0gzXSlbQ0BASF0oW0NIMl1bQ0gyXTQpQyhbQ0gzXSkoW0NIM10pW0NAQEhdKFtPSF0pW0NIMl1bQ0gyXTU=

>  <s_epik_cmdline>  (257) 
J2VwaWtfcHl0aG9uJywgJy1waHQnLCAnMi4wJywgJy1waCcsICc3LjAnLCAnLXRuJywgJzgnLCAnLW1hJywgJzIwMCcsICctaW1hZScsICc8aW5maWxlLm1hZT4nLCAnLW9tYWUnLCAnPG91dGZpbGUubWFlPic=

>  <r_epik_Ionization_Penalty>  (257) 
0.00452036

>  <r_epik_Ionization_Penalty_Charging>  (257) 
0.00451206

>  <r_epik_Ionization_Penalty_Neutral>  (257) 
8.30164e-06

>  <r_epik_State_Penalty>  (257) 
0.00325724

>  <r_epik_Charging_Adjusted_Penalty>  (257) 
0.00776929

>  <i_epik_Tot_Q>  (257) 
-1

>  <i_epik_Tot_abs_Q>  (257) 
1

>  <s_lp_Force_Field>  (257) 
OPLS3e

>  <r_lp_Energy>  (257) 
94.2535

>  <b_lp_Chiralities_Consistent>  (257) 
1

>  <s_lp_Variant>  (257) 
73:0-1

>  <s_i_glide_gridfile>  (257) 
pfpi4k_grid

>  <i_i_glide_lignum>  (257) 
25

>  <i_i_glide_rotatable_bonds>  (257) 
4

>  <r_i_docking_score>  (257) 
-3.70186

>  <r_i_glide_ligand_efficiency>  (257) 
-0.108878

>  <r_i_glide_ligand_efficiency_sa>  (257) 
-0.352723

>  <r_i_glide_ligand_efficiency_ln>  (257) 
-0.817844

>  <r_i_glide_gscore>  (257) 
-3.70186

>  <r_i_glide_lipo>  (257) 
-0.635004

>  <r_i_glide_hbond>  (257) 
-0.556328

>  <r_i_glide_metal>  (257) 
-0

>  <r_i_glide_rewards>  (257) 
-0.193011

>  <r_i_glide_evdw>  (257) 
-10.6815

>  <r_i_glide_ecoul>  (257) 
-11.274

>  <r_i_glide_erotb>  (257) 
0

>  <r_i_glide_esite>  (257) 
-0.0923381

>  <r_i_glide_emodel>  (257) 
-25.25

>  <r_i_glide_energy>  (257) 
-21.9555

>  <r_i_glide_einternal>  (257) 
7.87195

>  <r_i_glide_intrahb_reward>  (257) 
-0

>  <i_i_glide_confnum>  (257) 
1

>  <i_i_glide_posenum>  (257) 
22

>  <r_i_glide_eff_state_penalty>  (257) 
0

>  <ligand_id>  (257) 
73

>  <original_smiles>  (257) 
CC(C)C1CC(O)C2C3(C)CCC4C(C)(CCC5C(C)(C)C(O)CCC45C)C3=CCC12C(=O)O

>  <smiles>  (257) 
[H]OC1([H])C([H])([H])C([H])(C([H])(C([H])([H])[H])C([H])([H])[H])C2(C(=O)[O-])C([H])([H])C([H])=C3C(C([H])([H])[H])(C([H])([H])C([H])([H])C4([H])C3(C([H])([H])[H])C([H])([H])C([H])([H])C3([H])C(C([H])([H])[H])(C([H])([H])[H])C([H])(O[H])C([H])([H])C([H])([H])C43C([H])([H])[H])C12[H]

$$$$
73:0:1
     RDKit          3D

 81 85  0  0  1  0  0  0  0  0999 V2000
   -0.0300   -9.7825    2.8276 C   0  0  0  0  0  0  0  0  0  0  0  0
   -0.8350   -8.6776    3.5413 C   0  0  0  0  0  0  0  0  0  0  0  0
   -1.9922   -8.1827    2.6038 C   0  0  0  0  0  0  0  0  0  0  0  0
    0.1101   -7.5675    4.1517 C   0  0  2  0  0  0  0  0  0  0  0  0
   -0.6636   -6.3939    4.7723 C   0  0  0  0  0  0  0  0  0  0  0  0
    0.3402   -5.2781    5.0096 C   0  0  1  0  0  0  0  0  0  0  0  0
    0.5992   -5.2150    6.3896 O   0  0  0  0  0  0  0  0  0  0  0  0
    1.5722   -5.5873    4.0992 C   0  0  1  0  0  0  0  0  0  0  0  0
    3.0328   -5.3399    4.6382 C   0  0  2  0  0  0  0  0  0  0  0  0
    3.3440   -6.1314    5.9385 C   0  0  0  0  0  0  0  0  0  0  0  0
    3.1555   -3.8148    4.9486 C   0  0  0  0  0  0  0  0  0  0  0  0
    4.5664   -3.2691    4.8522 C   0  0  0  0  0  0  0  0  0  0  0  0
    5.1878   -3.5469    3.4689 C   0  0  1  0  0  0  0  0  0  0  0  0
    5.3466   -5.0852    3.2399 C   0  0  2  0  0  0  0  0  0  0  0  0
    6.4420   -5.6755    4.1678 C   0  0  0  0  0  0  0  0  0  0  0  0
    5.8367   -5.3245    1.7774 C   0  0  0  0  0  0  0  0  0  0  0  0
    6.6430   -4.1466    1.2077 C   0  0  0  0  0  0  0  0  0  0  0  0
    5.8730   -2.7803    1.1386 C   0  0  1  0  0  0  0  0  0  0  0  0
    5.5226   -2.2457   -0.3245 C   0  0  0  0  0  0  0  0  0  0  0  0
    5.3762   -0.6978   -0.3539 C   0  0  0  0  0  0  0  0  0  0  0  0
    6.6622   -2.5393   -1.3428 C   0  0  0  0  0  0  0  0  0  0  0  0
    4.1953   -2.8757   -0.8313 C   0  0  1  0  0  0  0  0  0  0  0  0
    4.3714   -4.2475   -1.1138 O   0  0  0  0  0  0  0  0  0  0  0  0
    3.0413   -2.7235    0.1744 C   0  0  0  0  0  0  0  0  0  0  0  0
    3.3761   -3.2580    1.5766 C   0  0  0  0  0  0  0  0  0  0  0  0
    4.6987   -2.7193    2.2058 C   0  0  1  0  0  0  0  0  0  0  0  0
    4.4414   -1.2571    2.6727 C   0  0  0  0  0  0  0  0  0  0  0  0
    4.0398   -5.8496    3.5614 C   0  0  0  0  0  0  0  0  0  0  0  0
    3.7800   -7.0372    2.9810 C   0  0  0  0  0  0  0  0  0  0  0  0
    2.5456   -7.8434    3.2939 C   0  0  0  0  0  0  0  0  0  0  0  0
    1.2971   -6.9272    3.3284 C   0  0  1  0  0  0  0  0  0  0  0  0
    0.9191   -6.5811    1.8573 C   0  0  0  0  0  0  0  0  0  0  0  0
   -0.1794   -6.0676    1.7280 O   0  0  0  0  0  0  0  0  0  0  0  0
    1.7267   -6.8030    0.9116 O   0  0  0  0  0  0  0  0  0  0  0  0
    0.5323   -9.3772    1.9921 H   0  0  0  0  0  0  0  0  0  0  0  0
   -0.6879  -10.5252    2.3798 H   0  0  0  0  0  0  0  0  0  0  0  0
    0.6654  -10.2975    3.5056 H   0  0  0  0  0  0  0  0  0  0  0  0
   -1.2987   -9.1427    4.4007 H   0  0  0  0  0  0  0  0  0  0  0  0
   -1.6204   -7.6483    1.7714 H   0  0  0  0  0  0  0  0  0  0  0  0
   -2.7064   -7.5763    3.2017 H   0  0  0  0  0  0  0  0  0  0  0  0
   -2.5528   -9.0599    2.2216 H   0  0  0  0  0  0  0  0  0  0  0  0
    0.5783   -8.0425    5.0132 H   0  0  0  0  0  0  0  0  0  0  0  0
   -1.3892   -6.0309    4.0622 H   0  0  0  0  0  0  0  0  0  0  0  0
   -1.2284   -6.6419    5.6755 H   0  0  0  0  0  0  0  0  0  0  0  0
   -0.1134   -4.3241    4.7429 H   0  0  0  0  0  0  0  0  0  0  0  0
    1.0607   -6.0136    6.6260 H   0  0  0  0  0  0  0  0  0  0  0  0
    1.4623   -4.8141    3.3363 H   0  0  0  0  0  0  0  0  0  0  0  0
    3.0871   -5.5893    6.8483 H   0  0  0  0  0  0  0  0  0  0  0  0
    4.3992   -6.3566    6.0319 H   0  0  0  0  0  0  0  0  0  0  0  0
    2.8241   -7.0900    5.9845 H   0  0  0  0  0  0  0  0  0  0  0  0
    2.5248   -3.2136    4.3051 H   0  0  0  0  0  0  0  0  0  0  0  0
    2.7687   -3.6015    5.9466 H   0  0  0  0  0  0  0  0  0  0  0  0
    4.5914   -2.2119    5.1080 H   0  0  0  0  0  0  0  0  0  0  0  0
    5.1639   -3.7243    5.6367 H   0  0  0  0  0  0  0  0  0  0  0  0
    6.1960   -3.1646    3.6124 H   0  0  0  0  0  0  0  0  0  0  0  0
    7.4256   -5.2625    3.9543 H   0  0  0  0  0  0  0  0  0  0  0  0
    6.5398   -6.7517    4.0310 H   0  0  0  0  0  0  0  0  0  0  0  0
    6.2564   -5.5170    5.2263 H   0  0  0  0  0  0  0  0  0  0  0  0
    6.4564   -6.2188    1.7302 H   0  0  0  0  0  0  0  0  0  0  0  0
    5.0180   -5.5521    1.0870 H   0  0  0  0  0  0  0  0  0  0  0  0
    7.5250   -4.0132    1.8533 H   0  0  0  0  0  0  0  0  0  0  0  0
    7.0773   -4.4454    0.2670 H   0  0  0  0  0  0  0  0  0  0  0  0
    6.6192   -2.0822    1.4849 H   0  0  0  0  0  0  0  0  0  0  0  0
    5.5726   -0.2803   -1.3446 H   0  0  0  0  0  0  0  0  0  0  0  0
    6.0447   -0.1947    0.3460 H   0  0  0  0  0  0  0  0  0  0  0  0
    4.3737   -0.3516   -0.1444 H   0  0  0  0  0  0  0  0  0  0  0  0
    6.4930   -2.0387   -2.2992 H   0  0  0  0  0  0  0  0  0  0  0  0
    6.7395   -3.5845   -1.6113 H   0  0  0  0  0  0  0  0  0  0  0  0
    7.6410   -2.2351   -0.9673 H   0  0  0  0  0  0  0  0  0  0  0  0
    3.9113   -2.4013   -1.7728 H   0  0  0  0  0  0  0  0  0  0  0  0
    3.6212   -4.5685   -1.6054 H   0  0  0  0  0  0  0  0  0  0  0  0
    2.7256   -1.6827    0.2434 H   0  0  0  0  0  0  0  0  0  0  0  0
    2.1665   -3.2535   -0.2055 H   0  0  0  0  0  0  0  0  0  0  0  0
    2.5310   -3.0256    2.2110 H   0  0  0  0  0  0  0  0  0  0  0  0
    3.3764   -4.3410    1.5005 H   0  0  0  0  0  0  0  0  0  0  0  0
    4.0649   -0.6098    1.8934 H   0  0  0  0  0  0  0  0  0  0  0  0
    5.3342   -0.7879    3.0910 H   0  0  0  0  0  0  0  0  0  0  0  0
    3.6593   -1.2131    3.4294 H   0  0  0  0  0  0  0  0  0  0  0  0
    4.4425   -7.4829    2.2545 H   0  0  0  0  0  0  0  0  0  0  0  0
    2.4578   -8.6029    2.5230 H   0  0  0  0  0  0  0  0  0  0  0  0
    2.6715   -8.3754    4.2250 H   0  0  0  0  0  0  0  0  0  0  0  0
  1  2  1  0
  1 35  1  0
  1 36  1  0
  1 37  1  0
  2  3  1  0
  2  4  1  0
  2 38  1  0
  3 39  1  0
  3 40  1  0
  3 41  1  0
  4 31  1  0
  4  5  1  0
  4 42  1  1
  5  6  1  0
  5 43  1  0
  5 44  1  0
  6  7  1  0
  6  8  1  0
  6 45  1  6
  7 46  1  0
  8 31  1  0
  8  9  1  0
  8 47  1  6
  9 28  1  0
  9 10  1  1
  9 11  1  0
 10 48  1  0
 10 49  1  0
 10 50  1  0
 11 12  1  0
 11 51  1  0
 11 52  1  0
 12 13  1  0
 12 53  1  0
 12 54  1  0
 13 26  1  0
 13 14  1  0
 13 55  1  1
 14 15  1  1
 14 16  1  0
 14 28  1  0
 15 56  1  0
 15 57  1  0
 15 58  1  0
 16 17  1  0
 16 59  1  0
 16 60  1  0
 17 18  1  0
 17 61  1  0
 17 62  1  0
 18 26  1  0
 18 19  1  0
 18 63  1  1
 19 20  1  0
 19 21  1  0
 19 22  1  0
 20 64  1  0
 20 65  1  0
 20 66  1  0
 21 67  1  0
 21 68  1  0
 21 69  1  0
 22 23  1  0
 22 24  1  0
 22 70  1  6
 23 71  1  0
 24 25  1  0
 24 72  1  0
 24 73  1  0
 25 26  1  0
 25 74  1  0
 25 75  1  0
 26 27  1  1
 27 76  1  0
 27 77  1  0
 27 78  1  0
 28 29  2  0
 29 30  1  0
 29 79  1  0
 30 31  1  0
 30 80  1  0
 30 81  1  0
 31 32  1  6
 32 33  2  0
 32 34  1  0
M  CHG  1  34  -1
M  END
>  <i_m_ct_stereo_status>  (258) 
1

>  <s_m_source_file>  (258) 
/var/tmp/pbs.5076255.sched01/tmpq3cms3f1/82_sdm1vz9.sdf

>  <i_m_source_file_index>  (258) 
25

>  <i_lp_mmshare_version>  (258) 
48012

>  <i_f3d_flags>  (258) 
0

>  <s_epik_input>  (258) 
W09IXVtDQEBIXTFbQ0gyXVtDQEBIXShbQ0hdKFtDSDNdKVtDSDNdKVtDQEBdKEMoPU8pW09IXSkoW0NAQEhdMVtDQF0yM1tDSDNdKVtDSDJdW0NIXT1DM1tDQF00KFtDSDNdKVtDQEhdKFtDSDJdW0NIMl0yKVtDQEBdNShbQ0gzXSlbQ0BASF0oW0NIMl1bQ0gyXTQpQyhbQ0gzXSkoW0NIM10pW0NAQEhdKFtPSF0pW0NIMl1bQ0gyXTU=

>  <s_epik_cmdline>  (258) 
J2VwaWtfcHl0aG9uJywgJy1waHQnLCAnMi4wJywgJy1waCcsICc3LjAnLCAnLXRuJywgJzgnLCAnLW1hJywgJzIwMCcsICctaW1hZScsICc8aW5maWxlLm1hZT4nLCAnLW9tYWUnLCAnPG91dGZpbGUubWFlPic=

>  <r_epik_Ionization_Penalty>  (258) 
0.00452036

>  <r_epik_Ionization_Penalty_Charging>  (258) 
0.00451206

>  <r_epik_Ionization_Penalty_Neutral>  (258) 
8.30164e-06

>  <r_epik_State_Penalty>  (258) 
0.00325724

>  <r_epik_Charging_Adjusted_Penalty>  (258) 
0.00776929

>  <i_epik_Tot_Q>  (258) 
-1

>  <i_epik_Tot_abs_Q>  (258) 
1

>  <s_lp_Force_Field>  (258) 
OPLS3e

>  <r_lp_Energy>  (258) 
94.2535

>  <b_lp_Chiralities_Consistent>  (258) 
1

>  <s_lp_Variant>  (258) 
73:0-1

>  <s_i_glide_gridfile>  (258) 
pfpi4k_grid

>  <i_i_glide_lignum>  (258) 
25

>  <i_i_glide_rotatable_bonds>  (258) 
4

>  <r_i_docking_score>  (258) 
-3.38153

>  <r_i_glide_ligand_efficiency>  (258) 
-0.0994568

>  <r_i_glide_ligand_efficiency_sa>  (258) 
-0.322202

>  <r_i_glide_ligand_efficiency_ln>  (258) 
-0.747075

>  <r_i_glide_gscore>  (258) 
-3.38153

>  <r_i_glide_lipo>  (258) 
-0.405484

>  <r_i_glide_hbond>  (258) 
-0.599734

>  <r_i_glide_metal>  (258) 
-0

>  <r_i_glide_rewards>  (258) 
-0.193011

>  <r_i_glide_evdw>  (258) 
-17.8127

>  <r_i_glide_ecoul>  (258) 
-8.13506

>  <r_i_glide_erotb>  (258) 
0

>  <r_i_glide_esite>  (258) 
-0.0724084

>  <r_i_glide_emodel>  (258) 
-29.8499

>  <r_i_glide_energy>  (258) 
-25.9478

>  <r_i_glide_einternal>  (258) 
5.19918

>  <r_i_glide_intrahb_reward>  (258) 
-0

>  <i_i_glide_confnum>  (258) 
1

>  <i_i_glide_posenum>  (258) 
31

>  <r_i_glide_eff_state_penalty>  (258) 
0

>  <ligand_id>  (258) 
73

>  <original_smiles>  (258) 
CC(C)C1CC(O)C2C3(C)CCC4C(C)(CCC5C(C)(C)C(O)CCC45C)C3=CCC12C(=O)O

>  <smiles>  (258) 
[H]OC1([H])C([H])([H])C([H])(C([H])(C([H])([H])[H])C([H])([H])[H])C2(C(=O)[O-])C([H])([H])C([H])=C3C(C([H])([H])[H])(C([H])([H])C([H])([H])C4([H])C3(C([H])([H])[H])C([H])([H])C([H])([H])C3([H])C(C([H])([H])[H])(C([H])([H])[H])C([H])(O[H])C([H])([H])C([H])([H])C43C([H])([H])[H])C12[H]

$$$$
73:0:2
     RDKit          3D

 81 85  0  0  1  0  0  0  0  0999 V2000
   -1.7543   -8.5183    4.6413 C   0  0  0  0  0  0  0  0  0  0  0  0
   -0.5515   -8.5892    3.7216 C   0  0  0  0  0  0  0  0  0  0  0  0
   -0.0512  -10.0033    3.5009 C   0  0  0  0  0  0  0  0  0  0  0  0
    0.5804   -7.6002    4.1729 C   0  0  2  0  0  0  0  0  0  0  0  0
    0.1080   -6.4312    5.0591 C   0  0  0  0  0  0  0  0  0  0  0  0
    1.2492   -5.4370    5.1480 C   0  0  1  0  0  0  0  0  0  0  0  0
    1.8435   -5.5862    6.4125 O   0  0  0  0  0  0  0  0  0  0  0  0
    2.1259   -5.7080    3.8931 C   0  0  1  0  0  0  0  0  0  0  0  0
    3.6918   -5.6066    4.0331 C   0  0  2  0  0  0  0  0  0  0  0  0
    4.2673   -6.5736    5.1043 C   0  0  0  0  0  0  0  0  0  0  0  0
    4.0182   -4.1489    4.4917 C   0  0  0  0  0  0  0  0  0  0  0  0
    5.3870   -3.6605    4.0763 C   0  0  0  0  0  0  0  0  0  0  0  0
    5.5865   -3.7807    2.5646 C   0  0  1  0  0  0  0  0  0  0  0  0
    5.5590   -5.2721    2.1131 C   0  0  2  0  0  0  0  0  0  0  0  0
    6.8262   -6.0074    2.6134 C   0  0  0  0  0  0  0  0  0  0  0  0
    5.6292   -5.3109    0.5603 C   0  0  0  0  0  0  0  0  0  0  0  0
    6.3692   -4.0864   -0.0190 C   0  0  0  0  0  0  0  0  0  0  0  0
    5.6958   -2.7199    0.2708 C   0  0  1  0  0  0  0  0  0  0  0  0
    5.0182   -2.0047   -0.9717 C   0  0  0  0  0  0  0  0  0  0  0  0
    5.0269   -0.4792   -0.7921 C   0  0  0  0  0  0  0  0  0  0  0  0
    5.7722   -2.1856   -2.3066 C   0  0  0  0  0  0  0  0  0  0  0  0
    3.5662   -2.4336   -1.1489 C   0  0  1  0  0  0  0  0  0  0  0  0
    3.5887   -3.7492   -1.6004 O   0  0  0  0  0  0  0  0  0  0  0  0
    2.7861   -2.3843    0.1524 C   0  0  0  0  0  0  0  0  0  0  0  0
    3.4038   -3.1401    1.3150 C   0  0  0  0  0  0  0  0  0  0  0  0
    4.8744   -2.7526    1.6087 C   0  0  1  0  0  0  0  0  0  0  0  0
    4.8832   -1.3583    2.2955 C   0  0  0  0  0  0  0  0  0  0  0  0
    4.3366   -6.0236    2.6844 C   0  0  0  0  0  0  0  0  0  0  0  0
    3.8043   -7.0868    2.0373 C   0  0  0  0  0  0  0  0  0  0  0  0
    2.6213   -7.8633    2.5814 C   0  0  0  0  0  0  0  0  0  0  0  0
    1.5084   -6.9320    3.1198 C   0  0  1  0  0  0  0  0  0  0  0  0
    0.7446   -6.3695    1.8866 C   0  0  0  0  0  0  0  0  0  0  0  0
   -0.5080   -6.2766    1.9148 O   0  0  0  0  0  0  0  0  0  0  0  0
    1.3586   -5.9763    0.8931 O   0  0  0  0  0  0  0  0  0  0  0  0
   -1.5044   -8.9095    5.6298 H   0  0  0  0  0  0  0  0  0  0  0  0
   -2.5898   -9.0600    4.2117 H   0  0  0  0  0  0  0  0  0  0  0  0
   -2.1607   -7.5105    4.7143 H   0  0  0  0  0  0  0  0  0  0  0  0
   -1.0168   -8.3953    2.7567 H   0  0  0  0  0  0  0  0  0  0  0  0
    0.3898  -10.4415    4.3896 H   0  0  0  0  0  0  0  0  0  0  0  0
    0.6376  -10.0659    2.6599 H   0  0  0  0  0  0  0  0  0  0  0  0
   -0.9119  -10.6104    3.2279 H   0  0  0  0  0  0  0  0  0  0  0  0
    1.2321   -8.1666    4.8277 H   0  0  0  0  0  0  0  0  0  0  0  0
   -0.7266   -5.8996    4.6065 H   0  0  0  0  0  0  0  0  0  0  0  0
   -0.1952   -6.7819    6.0532 H   0  0  0  0  0  0  0  0  0  0  0  0
    0.8293   -4.4287    5.1213 H   0  0  0  0  0  0  0  0  0  0  0  0
    2.5921   -5.0002    6.4369 H   0  0  0  0  0  0  0  0  0  0  0  0
    1.8826   -4.8441    3.2745 H   0  0  0  0  0  0  0  0  0  0  0  0
    4.3019   -6.1501    6.1109 H   0  0  0  0  0  0  0  0  0  0  0  0
    5.2909   -6.8590    4.8875 H   0  0  0  0  0  0  0  0  0  0  0  0
    3.6944   -7.4995    5.1739 H   0  0  0  0  0  0  0  0  0  0  0  0
    3.2870   -3.4351    4.1311 H   0  0  0  0  0  0  0  0  0  0  0  0
    3.9577   -4.0560    5.5750 H   0  0  0  0  0  0  0  0  0  0  0  0
    5.5720   -2.6490    4.4400 H   0  0  0  0  0  0  0  0  0  0  0  0
    6.1324   -4.2460    4.6011 H   0  0  0  0  0  0  0  0  0  0  0  0
    6.6214   -3.4700    2.4392 H   0  0  0  0  0  0  0  0  0  0  0  0
    7.7421   -5.5904    2.2001 H   0  0  0  0  0  0  0  0  0  0  0  0
    6.7951   -7.0579    2.3294 H   0  0  0  0  0  0  0  0  0  0  0  0
    6.9381   -6.0027    3.6917 H   0  0  0  0  0  0  0  0  0  0  0  0
    6.1350   -6.2206    0.2352 H   0  0  0  0  0  0  0  0  0  0  0  0
    4.6452   -5.3902    0.0871 H   0  0  0  0  0  0  0  0  0  0  0  0
    7.4075   -4.0879    0.3538 H   0  0  0  0  0  0  0  0  0  0  0  0
    6.4539   -4.2056   -1.0801 H   0  0  0  0  0  0  0  0  0  0  0  0
    6.5603   -2.1024    0.4621 H   0  0  0  0  0  0  0  0  0  0  0  0
    4.9539    0.0393   -1.7580 H   0  0  0  0  0  0  0  0  0  0  0  0
    5.9137   -0.1232   -0.2580 H   0  0  0  0  0  0  0  0  0  0  0  0
    4.1745   -0.0968   -0.2510 H   0  0  0  0  0  0  0  0  0  0  0  0
    5.2655   -1.5843   -3.0663 H   0  0  0  0  0  0  0  0  0  0  0  0
    5.7282   -3.1873   -2.7107 H   0  0  0  0  0  0  0  0  0  0  0  0
    6.8274   -1.9227   -2.2114 H   0  0  0  0  0  0  0  0  0  0  0  0
    3.0824   -1.8168   -1.9102 H   0  0  0  0  0  0  0  0  0  0  0  0
    2.7116   -4.0248   -1.8531 H   0  0  0  0  0  0  0  0  0  0  0  0
    2.6118   -1.3584    0.4599 H   0  0  0  0  0  0  0  0  0  0  0  0
    1.8132   -2.8304   -0.0433 H   0  0  0  0  0  0  0  0  0  0  0  0
    2.7703   -2.9254    2.1652 H   0  0  0  0  0  0  0  0  0  0  0  0
    3.2798   -4.2001    1.1083 H   0  0  0  0  0  0  0  0  0  0  0  0
    4.3752   -0.5869    1.7330 H   0  0  0  0  0  0  0  0  0  0  0  0
    5.8969   -1.0038    2.4979 H   0  0  0  0  0  0  0  0  0  0  0  0
    4.3399   -1.3754    3.2371 H   0  0  0  0  0  0  0  0  0  0  0  0
    4.2199   -7.4674    1.1189 H   0  0  0  0  0  0  0  0  0  0  0  0
    2.2103   -8.4802    1.7903 H   0  0  0  0  0  0  0  0  0  0  0  0
    2.9750   -8.5309    3.3582 H   0  0  0  0  0  0  0  0  0  0  0  0
  1  2  1  0
  1 35  1  0
  1 36  1  0
  1 37  1  0
  2  3  1  0
  2  4  1  0
  2 38  1  0
  3 39  1  0
  3 40  1  0
  3 41  1  0
  4 31  1  0
  4  5  1  0
  4 42  1  1
  5  6  1  0
  5 43  1  0
  5 44  1  0
  6  7  1  0
  6  8  1  0
  6 45  1  6
  7 46  1  0
  8 31  1  0
  8  9  1  0
  8 47  1  6
  9 28  1  0
  9 10  1  1
  9 11  1  0
 10 48  1  0
 10 49  1  0
 10 50  1  0
 11 12  1  0
 11 51  1  0
 11 52  1  0
 12 13  1  0
 12 53  1  0
 12 54  1  0
 13 26  1  0
 13 14  1  0
 13 55  1  1
 14 15  1  1
 14 16  1  0
 14 28  1  0
 15 56  1  0
 15 57  1  0
 15 58  1  0
 16 17  1  0
 16 59  1  0
 16 60  1  0
 17 18  1  0
 17 61  1  0
 17 62  1  0
 18 26  1  0
 18 19  1  0
 18 63  1  1
 19 20  1  0
 19 21  1  0
 19 22  1  0
 20 64  1  0
 20 65  1  0
 20 66  1  0
 21 67  1  0
 21 68  1  0
 21 69  1  0
 22 23  1  0
 22 24  1  0
 22 70  1  6
 23 71  1  0
 24 25  1  0
 24 72  1  0
 24 73  1  0
 25 26  1  0
 25 74  1  0
 25 75  1  0
 26 27  1  1
 27 76  1  0
 27 77  1  0
 27 78  1  0
 28 29  2  0
 29 30  1  0
 29 79  1  0
 30 31  1  0
 30 80  1  0
 30 81  1  0
 31 32  1  6
 32 33  2  0
 32 34  1  0
M  CHG  1  34  -1
M  END
>  <i_m_ct_stereo_status>  (259) 
1

>  <s_m_source_file>  (259) 
/var/tmp/pbs.5076255.sched01/tmpq3cms3f1/82_sdm1vz9.sdf

>  <i_m_source_file_index>  (259) 
25

>  <i_lp_mmshare_version>  (259) 
48012

>  <i_f3d_flags>  (259) 
0

>  <s_epik_input>  (259) 
W09IXVtDQEBIXTFbQ0gyXVtDQEBIXShbQ0hdKFtDSDNdKVtDSDNdKVtDQEBdKEMoPU8pW09IXSkoW0NAQEhdMVtDQF0yM1tDSDNdKVtDSDJdW0NIXT1DM1tDQF00KFtDSDNdKVtDQEhdKFtDSDJdW0NIMl0yKVtDQEBdNShbQ0gzXSlbQ0BASF0oW0NIMl1bQ0gyXTQpQyhbQ0gzXSkoW0NIM10pW0NAQEhdKFtPSF0pW0NIMl1bQ0gyXTU=

>  <s_epik_cmdline>  (259) 
J2VwaWtfcHl0aG9uJywgJy1waHQnLCAnMi4wJywgJy1waCcsICc3LjAnLCAnLXRuJywgJzgnLCAnLW1hJywgJzIwMCcsICctaW1hZScsICc8aW5maWxlLm1hZT4nLCAnLW9tYWUnLCAnPG91dGZpbGUubWFlPic=

>  <r_epik_Ionization_Penalty>  (259) 
0.00452036

>  <r_epik_Ionization_Penalty_Charging>  (259) 
0.00451206

>  <r_epik_Ionization_Penalty_Neutral>  (259) 
8.30164e-06

>  <r_epik_State_Penalty>  (259) 
0.00325724

>  <r_epik_Charging_Adjusted_Penalty>  (259) 
0.00776929

>  <i_epik_Tot_Q>  (259) 
-1

>  <i_epik_Tot_abs_Q>  (259) 
1

>  <s_lp_Force_Field>  (259) 
OPLS3e

>  <r_lp_Energy>  (259) 
94.2535

>  <b_lp_Chiralities_Consistent>  (259) 
1

>  <s_lp_Variant>  (259) 
73:0-1

>  <s_i_glide_gridfile>  (259) 
pfpi4k_grid

>  <i_i_glide_lignum>  (259) 
25

>  <i_i_glide_rotatable_bonds>  (259) 
4

>  <r_i_docking_score>  (259) 
-3.05519

>  <r_i_glide_ligand_efficiency>  (259) 
-0.0898585

>  <r_i_glide_ligand_efficiency_sa>  (259) 
-0.291107

>  <r_i_glide_ligand_efficiency_ln>  (259) 
-0.674977

>  <r_i_glide_gscore>  (259) 
-3.05519

>  <r_i_glide_lipo>  (259) 
-0.456847

>  <r_i_glide_hbond>  (259) 
-0.542555

>  <r_i_glide_metal>  (259) 
-0

>  <r_i_glide_rewards>  (259) 
-0.193011

>  <r_i_glide_evdw>  (259) 
-14.9459

>  <r_i_glide_ecoul>  (259) 
-6.83531

>  <r_i_glide_erotb>  (259) 
0

>  <r_i_glide_esite>  (259) 
-0.0901863

>  <r_i_glide_emodel>  (259) 
-24.0046

>  <r_i_glide_energy>  (259) 
-21.7812

>  <r_i_glide_einternal>  (259) 
4.7365

>  <r_i_glide_intrahb_reward>  (259) 
-0

>  <i_i_glide_confnum>  (259) 
2

>  <i_i_glide_posenum>  (259) 
18

>  <r_i_glide_eff_state_penalty>  (259) 
0

>  <ligand_id>  (259) 
73

>  <original_smiles>  (259) 
CC(C)C1CC(O)C2C3(C)CCC4C(C)(CCC5C(C)(C)C(O)CCC45C)C3=CCC12C(=O)O

>  <smiles>  (259) 
[H]OC1([H])C([H])([H])C([H])(C([H])(C([H])([H])[H])C([H])([H])[H])C2(C(=O)[O-])C([H])([H])C([H])=C3C(C([H])([H])[H])(C([H])([H])C([H])([H])C4([H])C3(C([H])([H])[H])C([H])([H])C([H])([H])C3([H])C(C([H])([H])[H])(C([H])([H])[H])C([H])(O[H])C([H])([H])C([H])([H])C43C([H])([H])[H])C12[H]

$$$$
74:0:0
     RDKit          3D

 44 47  0  0  1  0  0  0  0  0999 V2000
    3.2531   -3.6647    3.4494 C   0  0  0  0  0  0  0  0  0  0  0  0
    4.3536   -4.6042    2.8889 C   0  0  0  0  0  0  0  0  0  0  0  0
    5.0637   -5.2297    4.1147 C   0  0  0  0  0  0  0  0  0  0  0  0
    3.6962   -5.7131    2.0497 C   0  0  0  0  0  0  0  0  0  0  0  0
    3.2285   -5.2123    0.6995 C   0  0  0  0  0  0  0  0  0  0  0  0
    3.5619   -4.0300    0.1156 C   0  0  0  0  0  0  0  0  0  0  0  0
    2.8316   -3.7613   -1.1114 C   0  0  0  0  0  0  0  0  0  0  0  0
    2.7994   -2.6810   -1.8980 C   0  0  0  0  0  0  0  0  0  0  0  0
    3.4372   -1.4105   -1.6901 C   0  0  0  0  0  0  0  0  0  0  0  0
    4.5145   -1.1321   -0.9483 C   0  0  0  0  0  0  0  0  0  0  0  0
    5.3775   -2.0315   -0.0695 C   0  0  1  0  0  0  0  0  0  0  0  0
    6.0508   -1.0227    0.9133 C   0  0  0  0  0  0  0  0  0  0  0  0
    4.5551   -3.0722    0.8105 C   0  0  2  0  0  0  0  0  0  0  0  0
    5.3537   -3.8446    1.9558 C   0  0  2  0  0  0  0  0  0  0  0  0
    6.4892   -4.8316    1.4647 C   0  0  0  0  0  0  0  0  0  0  0  0
    7.6738   -4.1519    0.8300 C   0  0  0  0  0  0  0  0  0  0  0  0
    7.4175   -3.3511   -0.1897 C   0  0  0  0  0  0  0  0  0  0  0  0
    7.9023   -2.2932   -0.8858 O   0  0  0  0  0  0  0  0  0  0  0  0
    6.4317   -2.6983   -0.9591 C   0  0  2  0  0  0  0  0  0  0  0  0
    6.0281   -3.4296   -2.2212 C   0  0  0  0  0  0  0  0  0  0  0  0
    2.6834   -4.1393    4.2476 H   0  0  0  0  0  0  0  0  0  0  0  0
    2.5162   -3.3911    2.6933 H   0  0  0  0  0  0  0  0  0  0  0  0
    3.6781   -2.7416    3.8443 H   0  0  0  0  0  0  0  0  0  0  0  0
    5.6584   -6.1053    3.8547 H   0  0  0  0  0  0  0  0  0  0  0  0
    4.3452   -5.5741    4.8593 H   0  0  0  0  0  0  0  0  0  0  0  0
    5.7219   -4.5098    4.6016 H   0  0  0  0  0  0  0  0  0  0  0  0
    4.3791   -6.5474    1.8776 H   0  0  0  0  0  0  0  0  0  0  0  0
    2.8446   -6.1324    2.5863 H   0  0  0  0  0  0  0  0  0  0  0  0
    2.5354   -5.8757    0.2044 H   0  0  0  0  0  0  0  0  0  0  0  0
    2.1933   -4.5488   -1.4780 H   0  0  0  0  0  0  0  0  0  0  0  0
    2.1633   -2.7419   -2.7688 H   0  0  0  0  0  0  0  0  0  0  0  0
    2.9747   -0.5875   -2.2121 H   0  0  0  0  0  0  0  0  0  0  0  0
    4.8117   -0.0960   -0.9574 H   0  0  0  0  0  0  0  0  0  0  0  0
    6.7729   -1.4681    1.5936 H   0  0  0  0  0  0  0  0  0  0  0  0
    5.3066   -0.5150    1.5300 H   0  0  0  0  0  0  0  0  0  0  0  0
    6.5955   -0.2409    0.3845 H   0  0  0  0  0  0  0  0  0  0  0  0
    3.8803   -2.3975    1.3298 H   0  0  0  0  0  0  0  0  0  0  0  0
    5.8369   -3.1102    2.5963 H   0  0  0  0  0  0  0  0  0  0  0  0
    6.9075   -5.4383    2.2663 H   0  0  0  0  0  0  0  0  0  0  0  0
    6.1079   -5.5249    0.7124 H   0  0  0  0  0  0  0  0  0  0  0  0
    8.6542   -4.2369    1.2688 H   0  0  0  0  0  0  0  0  0  0  0  0
    5.4050   -4.2876   -1.9579 H   0  0  0  0  0  0  0  0  0  0  0  0
    6.9131   -3.8145   -2.7249 H   0  0  0  0  0  0  0  0  0  0  0  0
    5.4887   -2.7917   -2.9146 H   0  0  0  0  0  0  0  0  0  0  0  0
  1  2  1  0
  1 21  1  0
  1 22  1  0
  1 23  1  0
  2 14  1  0
  2  3  1  0
  2  4  1  0
  3 24  1  0
  3 25  1  0
  3 26  1  0
  4  5  1  0
  4 27  1  0
  4 28  1  0
  5  6  2  0
  5 29  1  0
  6 13  1  0
  6  7  1  0
  7  8  2  0
  7 30  1  0
  8  9  1  0
  8 31  1  0
  9 10  2  0
  9 32  1  0
 10 11  1  0
 10 33  1  0
 11 19  1  0
 11 12  1  1
 11 13  1  0
 12 34  1  0
 12 35  1  0
 12 36  1  0
 13 14  1  0
 13 37  1  1
 14 15  1  0
 14 38  1  1
 15 16  1  0
 15 39  1  0
 15 40  1  0
 16 17  2  0
 16 41  1  0
 17 19  1  0
 17 18  1  0
 18 19  1  0
 19 20  1  6
 20 42  1  0
 20 43  1  0
 20 44  1  0
M  END
>  <i_m_ct_stereo_status>  (260) 
1

>  <s_m_source_file>  (260) 
/var/tmp/pbs.5076255.sched01/tmpq3cms3f1/82_sdm1vz9.sdf

>  <i_m_source_file_index>  (260) 
26

>  <i_lp_mmshare_version>  (260) 
48012

>  <i_f3d_flags>  (260) 
0

>  <s_epik_input>  (260) 
TzFDMihbQ0gzXSlDMT1bQ0hdW0NIMl1bQ0BASF0zQyhbQ0gzXSkoW0NIM10pW0NIMl1bQ0hdPUMoW0NAQEhdM1tDQEBdMjRbQ0gzXSlbQ0hdPVtDSF1bQ0hdPVtDSF00

>  <s_epik_cmdline>  (260) 
J2VwaWtfcHl0aG9uJywgJy1waHQnLCAnMi4wJywgJy1waCcsICc3LjAnLCAnLXRuJywgJzgnLCAnLW1hJywgJzIwMCcsICctaW1hZScsICc8aW5maWxlLm1hZT4nLCAnLW9tYWUnLCAnPG91dGZpbGUubWFlPic=

>  <r_lp_tautomer_probability>  (260) 
1

>  <r_epik_Ionization_Penalty>  (260) 
0

>  <r_epik_Ionization_Penalty_Charging>  (260) 
0

>  <r_epik_Ionization_Penalty_Neutral>  (260) 
0

>  <r_epik_State_Penalty>  (260) 
-0

>  <r_epik_Charging_Adjusted_Penalty>  (260) 
0

>  <i_epik_Tot_Q>  (260) 
0

>  <i_epik_Tot_abs_Q>  (260) 
0

>  <s_lp_Force_Field>  (260) 
OPLS3e

>  <r_lp_Energy>  (260) 
50.3515

>  <b_lp_Chiralities_Consistent>  (260) 
1

>  <s_lp_Variant>  (260) 
74:0-1

>  <s_i_glide_gridfile>  (260) 
pfpi4k_grid

>  <i_i_glide_lignum>  (260) 
26

>  <i_i_glide_rotatable_bonds>  (260) 
0

>  <r_i_docking_score>  (260) 
-3.92194

>  <r_i_glide_ligand_efficiency>  (260) 
-0.196097

>  <r_i_glide_ligand_efficiency_sa>  (260) 
-0.53229

>  <r_i_glide_ligand_efficiency_ln>  (260) 
-0.981533

>  <r_i_glide_gscore>  (260) 
-3.92194

>  <r_i_glide_lipo>  (260) 
-0.857539

>  <r_i_glide_hbond>  (260) 
-0.16

>  <r_i_glide_metal>  (260) 
-0

>  <r_i_glide_rewards>  (260) 
-1.57914

>  <r_i_glide_evdw>  (260) 
-20.1009

>  <r_i_glide_ecoul>  (260) 
-2.13481

>  <r_i_glide_erotb>  (260) 
0

>  <r_i_glide_esite>  (260) 
0

>  <r_i_glide_emodel>  (260) 
-26.9636

>  <r_i_glide_energy>  (260) 
-22.2357

>  <r_i_glide_einternal>  (260) 
0

>  <r_i_glide_intrahb_reward>  (260) 
-0

>  <i_i_glide_confnum>  (260) 
1

>  <i_i_glide_posenum>  (260) 
3

>  <r_i_glide_eff_state_penalty>  (260) 
0

>  <ligand_id>  (260) 
74

>  <original_smiles>  (260) 
CC1(C)CC=C2C=CC=CC3(C)C2C1CC=C1OC13C

>  <smiles>  (260) 
[H]C1=C([H])C2=C([H])C([H])([H])C(C([H])([H])[H])(C([H])([H])[H])C3([H])C([H])([H])C([H])=C4OC4(C([H])([H])[H])C(C([H])([H])[H])(C([H])=C1[H])C23[H]

$$$$
74:0:1
     RDKit          3D

 44 47  0  0  1  0  0  0  0  0999 V2000
    1.9569   -6.1185    1.2453 C   0  0  0  0  0  0  0  0  0  0  0  0
    3.1909   -5.9668    2.1705 C   0  0  0  0  0  0  0  0  0  0  0  0
    2.8997   -6.8177    3.4316 C   0  0  0  0  0  0  0  0  0  0  0  0
    4.4359   -6.5132    1.4527 C   0  0  0  0  0  0  0  0  0  0  0  0
    4.9468   -5.5679    0.3825 C   0  0  0  0  0  0  0  0  0  0  0  0
    4.5846   -4.2713    0.2104 C   0  0  0  0  0  0  0  0  0  0  0  0
    5.1305   -3.6715   -1.0028 C   0  0  0  0  0  0  0  0  0  0  0  0
    4.8638   -2.4951   -1.5858 C   0  0  0  0  0  0  0  0  0  0  0  0
    3.9334   -1.4760   -1.1743 C   0  0  0  0  0  0  0  0  0  0  0  0
    3.4496   -1.2461    0.0584 C   0  0  0  0  0  0  0  0  0  0  0  0
    3.6242   -2.0147    1.3630 C   0  0  1  0  0  0  0  0  0  0  0  0
    2.3496   -1.6085    2.1727 C   0  0  0  0  0  0  0  0  0  0  0  0
    3.6012   -3.5988    1.1934 C   0  0  2  0  0  0  0  0  0  0  0  0
    3.4781   -4.4699    2.5284 C   0  0  2  0  0  0  0  0  0  0  0  0
    4.7025   -4.3794    3.5266 C   0  0  0  0  0  0  0  0  0  0  0  0
    4.8682   -3.0367    4.1851 C   0  0  0  0  0  0  0  0  0  0  0  0
    4.9788   -1.9944    3.3818 C   0  0  0  0  0  0  0  0  0  0  0  0
    4.8313   -0.6492    3.3289 O   0  0  0  0  0  0  0  0  0  0  0  0
    4.8917   -1.4998    2.0614 C   0  0  2  0  0  0  0  0  0  0  0  0
    6.2138   -1.4453    1.3215 C   0  0  0  0  0  0  0  0  0  0  0  0
    1.6383   -7.1574    1.1600 H   0  0  0  0  0  0  0  0  0  0  0  0
    2.1646   -5.7953    0.2233 H   0  0  0  0  0  0  0  0  0  0  0  0
    1.1148   -5.5392    1.6207 H   0  0  0  0  0  0  0  0  0  0  0  0
    3.7948   -7.0151    4.0212 H   0  0  0  0  0  0  0  0  0  0  0  0
    2.5007   -7.7980    3.1681 H   0  0  0  0  0  0  0  0  0  0  0  0
    2.1716   -6.3303    4.0808 H   0  0  0  0  0  0  0  0  0  0  0  0
    5.2542   -6.6985    2.1511 H   0  0  0  0  0  0  0  0  0  0  0  0
    4.2092   -7.4784    0.9954 H   0  0  0  0  0  0  0  0  0  0  0  0
    5.6234   -6.0339   -0.3156 H   0  0  0  0  0  0  0  0  0  0  0  0
    5.8708   -4.2523   -1.5277 H   0  0  0  0  0  0  0  0  0  0  0  0
    5.4210   -2.2814   -2.4898 H   0  0  0  0  0  0  0  0  0  0  0  0
    3.6202   -0.7795   -1.9384 H   0  0  0  0  0  0  0  0  0  0  0  0
    2.7930   -0.3898    0.1287 H   0  0  0  0  0  0  0  0  0  0  0  0
    2.3136   -2.0121    3.1818 H   0  0  0  0  0  0  0  0  0  0  0  0
    1.4376   -1.9364    1.6682 H   0  0  0  0  0  0  0  0  0  0  0  0
    2.2642   -0.5273    2.2849 H   0  0  0  0  0  0  0  0  0  0  0  0
    2.6523   -3.7259    0.6773 H   0  0  0  0  0  0  0  0  0  0  0  0
    2.6047   -4.1339    3.0835 H   0  0  0  0  0  0  0  0  0  0  0  0
    4.6426   -5.0934    4.3453 H   0  0  0  0  0  0  0  0  0  0  0  0
    5.6448   -4.5752    3.0070 H   0  0  0  0  0  0  0  0  0  0  0  0
    4.8036   -2.9363    5.2539 H   0  0  0  0  0  0  0  0  0  0  0  0
    6.5178   -2.4534    1.0434 H   0  0  0  0  0  0  0  0  0  0  0  0
    6.9894   -1.0410    1.9727 H   0  0  0  0  0  0  0  0  0  0  0  0
    6.1520   -0.8223    0.4327 H   0  0  0  0  0  0  0  0  0  0  0  0
  1  2  1  0
  1 21  1  0
  1 22  1  0
  1 23  1  0
  2 14  1  0
  2  3  1  0
  2  4  1  0
  3 24  1  0
  3 25  1  0
  3 26  1  0
  4  5  1  0
  4 27  1  0
  4 28  1  0
  5  6  2  0
  5 29  1  0
  6 13  1  0
  6  7  1  0
  7  8  2  0
  7 30  1  0
  8  9  1  0
  8 31  1  0
  9 10  2  0
  9 32  1  0
 10 11  1  0
 10 33  1  0
 11 19  1  0
 11 12  1  1
 11 13  1  0
 12 34  1  0
 12 35  1  0
 12 36  1  0
 13 14  1  0
 13 37  1  6
 14 15  1  0
 14 38  1  1
 15 16  1  0
 15 39  1  0
 15 40  1  0
 16 17  2  0
 16 41  1  0
 17 19  1  0
 17 18  1  0
 18 19  1  0
 19 20  1  6
 20 42  1  0
 20 43  1  0
 20 44  1  0
M  END
>  <i_m_ct_stereo_status>  (261) 
1

>  <s_m_source_file>  (261) 
/var/tmp/pbs.5076255.sched01/tmpq3cms3f1/82_sdm1vz9.sdf

>  <i_m_source_file_index>  (261) 
26

>  <i_lp_mmshare_version>  (261) 
48012

>  <i_f3d_flags>  (261) 
0

>  <s_epik_input>  (261) 
TzFDMihbQ0gzXSlDMT1bQ0hdW0NIMl1bQ0BASF0zQyhbQ0gzXSkoW0NIM10pW0NIMl1bQ0hdPUMoW0NAQEhdM1tDQEBdMjRbQ0gzXSlbQ0hdPVtDSF1bQ0hdPVtDSF00

>  <s_epik_cmdline>  (261) 
J2VwaWtfcHl0aG9uJywgJy1waHQnLCAnMi4wJywgJy1waCcsICc3LjAnLCAnLXRuJywgJzgnLCAnLW1hJywgJzIwMCcsICctaW1hZScsICc8aW5maWxlLm1hZT4nLCAnLW9tYWUnLCAnPG91dGZpbGUubWFlPic=

>  <r_lp_tautomer_probability>  (261) 
1

>  <r_epik_Ionization_Penalty>  (261) 
0

>  <r_epik_Ionization_Penalty_Charging>  (261) 
0

>  <r_epik_Ionization_Penalty_Neutral>  (261) 
0

>  <r_epik_State_Penalty>  (261) 
-0

>  <r_epik_Charging_Adjusted_Penalty>  (261) 
0

>  <i_epik_Tot_Q>  (261) 
0

>  <i_epik_Tot_abs_Q>  (261) 
0

>  <s_lp_Force_Field>  (261) 
OPLS3e

>  <r_lp_Energy>  (261) 
50.3515

>  <b_lp_Chiralities_Consistent>  (261) 
1

>  <s_lp_Variant>  (261) 
74:0-1

>  <s_i_glide_gridfile>  (261) 
pfpi4k_grid

>  <i_i_glide_lignum>  (261) 
26

>  <i_i_glide_rotatable_bonds>  (261) 
0

>  <r_i_docking_score>  (261) 
-3.19195

>  <r_i_glide_ligand_efficiency>  (261) 
-0.159597

>  <r_i_glide_ligand_efficiency_sa>  (261) 
-0.433214

>  <r_i_glide_ligand_efficiency_ln>  (261) 
-0.798839

>  <r_i_glide_gscore>  (261) 
-3.19195

>  <r_i_glide_lipo>  (261) 
-0.615076

>  <r_i_glide_hbond>  (261) 
0

>  <r_i_glide_metal>  (261) 
-0

>  <r_i_glide_rewards>  (261) 
-1.57914

>  <r_i_glide_evdw>  (261) 
-20.4914

>  <r_i_glide_ecoul>  (261) 
0.178894

>  <r_i_glide_erotb>  (261) 
0

>  <r_i_glide_esite>  (261) 
0

>  <r_i_glide_emodel>  (261) 
-24.1371

>  <r_i_glide_energy>  (261) 
-20.3125

>  <r_i_glide_einternal>  (261) 
0

>  <r_i_glide_intrahb_reward>  (261) 
-0

>  <i_i_glide_confnum>  (261) 
1

>  <i_i_glide_posenum>  (261) 
5

>  <r_i_glide_eff_state_penalty>  (261) 
0

>  <ligand_id>  (261) 
74

>  <original_smiles>  (261) 
CC1(C)CC=C2C=CC=CC3(C)C2C1CC=C1OC13C

>  <smiles>  (261) 
[H]C1=C([H])C2=C([H])C([H])([H])C(C([H])([H])[H])(C([H])([H])[H])C3([H])C([H])([H])C([H])=C4OC4(C([H])([H])[H])C(C([H])([H])[H])(C([H])=C1[H])C23[H]

$$$$
74:0:2
     RDKit          3D

 44 47  0  0  1  0  0  0  0  0999 V2000
    1.1906   -3.3677    5.0113 C   0  0  0  0  0  0  0  0  0  0  0  0
    2.6576   -2.9845    5.3332 C   0  0  0  0  0  0  0  0  0  0  0  0
    2.6264   -2.2402    6.6886 C   0  0  0  0  0  0  0  0  0  0  0  0
    3.5037   -4.2629    5.4598 C   0  0  0  0  0  0  0  0  0  0  0  0
    3.8125   -4.8929    4.1157 C   0  0  0  0  0  0  0  0  0  0  0  0
    3.6448   -4.3160    2.8995 C   0  0  0  0  0  0  0  0  0  0  0  0
    3.8872   -5.2269    1.7808 C   0  0  0  0  0  0  0  0  0  0  0  0
    3.6591   -5.0735    0.4814 C   0  0  0  0  0  0  0  0  0  0  0  0
    3.0820   -3.9437   -0.2149 C   0  0  0  0  0  0  0  0  0  0  0  0
    3.0580   -2.6656    0.1866 C   0  0  0  0  0  0  0  0  0  0  0  0
    3.4998   -2.0127    1.4949 C   0  0  1  0  0  0  0  0  0  0  0  0
    2.6442   -0.7071    1.5404 C   0  0  0  0  0  0  0  0  0  0  0  0
    3.1501   -2.8591    2.7942 C   0  0  2  0  0  0  0  0  0  0  0  0
    3.2989   -2.1149    4.2021 C   0  0  2  0  0  0  0  0  0  0  0  0
    4.7629   -1.6909    4.6081 C   0  0  0  0  0  0  0  0  0  0  0  0
    5.3484   -0.6055    3.7515 C   0  0  0  0  0  0  0  0  0  0  0  0
    5.4055   -0.8515    2.4517 C   0  0  0  0  0  0  0  0  0  0  0  0
    5.4566   -0.2133    1.2731 O   0  0  0  0  0  0  0  0  0  0  0  0
    4.9906   -1.6632    1.3855 C   0  0  2  0  0  0  0  0  0  0  0  0
    6.0115   -2.7023    0.9767 C   0  0  0  0  0  0  0  0  0  0  0  0
    0.6834   -3.7953    5.8772 H   0  0  0  0  0  0  0  0  0  0  0  0
    1.1230   -4.1273    4.2332 H   0  0  0  0  0  0  0  0  0  0  0  0
    0.6130   -2.5058    4.6758 H   0  0  0  0  0  0  0  0  0  0  0  0
    3.6087   -2.1684    7.1505 H   0  0  0  0  0  0  0  0  0  0  0  0
    1.9992   -2.7579    7.4150 H   0  0  0  0  0  0  0  0  0  0  0  0
    2.2338   -1.2291    6.5787 H   0  0  0  0  0  0  0  0  0  0  0  0
    4.4499   -4.0699    5.9685 H   0  0  0  0  0  0  0  0  0  0  0  0
    2.9815   -4.9921    6.0799 H   0  0  0  0  0  0  0  0  0  0  0  0
    4.1517   -5.9148    4.1932 H   0  0  0  0  0  0  0  0  0  0  0  0
    4.3332   -6.1798    2.0375 H   0  0  0  0  0  0  0  0  0  0  0  0
    3.9451   -5.9035   -0.1566 H   0  0  0  0  0  0  0  0  0  0  0  0
    2.6951   -4.1447   -1.2024 H   0  0  0  0  0  0  0  0  0  0  0  0
    2.6261   -1.9787   -0.5307 H   0  0  0  0  0  0  0  0  0  0  0  0
    2.8551   -0.0469    2.3801 H   0  0  0  0  0  0  0  0  0  0  0  0
    1.5790   -0.9385    1.5805 H   0  0  0  0  0  0  0  0  0  0  0  0
    2.7832   -0.0956    0.6462 H   0  0  0  0  0  0  0  0  0  0  0  0
    2.0836   -2.9953    2.6526 H   0  0  0  0  0  0  0  0  0  0  0  0
    2.7119   -1.1996    4.1772 H   0  0  0  0  0  0  0  0  0  0  0  0
    4.8402   -1.3287    5.6355 H   0  0  0  0  0  0  0  0  0  0  0  0
    5.4451   -2.5406    4.5281 H   0  0  0  0  0  0  0  0  0  0  0  0
    5.6488    0.3343    4.1802 H   0  0  0  0  0  0  0  0  0  0  0  0
    6.0374   -3.4939    1.7234 H   0  0  0  0  0  0  0  0  0  0  0  0
    7.0042   -2.2541    0.9402 H   0  0  0  0  0  0  0  0  0  0  0  0
    5.7814   -3.1269    0.0021 H   0  0  0  0  0  0  0  0  0  0  0  0
  1  2  1  0
  1 21  1  0
  1 22  1  0
  1 23  1  0
  2 14  1  0
  2  3  1  0
  2  4  1  0
  3 24  1  0
  3 25  1  0
  3 26  1  0
  4  5  1  0
  4 27  1  0
  4 28  1  0
  5  6  2  0
  5 29  1  0
  6 13  1  0
  6  7  1  0
  7  8  2  0
  7 30  1  0
  8  9  1  0
  8 31  1  0
  9 10  2  0
  9 32  1  0
 10 11  1  0
 10 33  1  0
 11 19  1  0
 11 12  1  1
 11 13  1  0
 12 34  1  0
 12 35  1  0
 12 36  1  0
 13 14  1  0
 13 37  1  6
 14 15  1  0
 14 38  1  6
 15 16  1  0
 15 39  1  0
 15 40  1  0
 16 17  2  0
 16 41  1  0
 17 19  1  0
 17 18  1  0
 18 19  1  0
 19 20  1  6
 20 42  1  0
 20 43  1  0
 20 44  1  0
M  END
>  <i_m_ct_stereo_status>  (262) 
1

>  <s_m_source_file>  (262) 
/var/tmp/pbs.5076255.sched01/tmpq3cms3f1/82_sdm1vz9.sdf

>  <i_m_source_file_index>  (262) 
26

>  <i_lp_mmshare_version>  (262) 
48012

>  <i_f3d_flags>  (262) 
0

>  <s_epik_input>  (262) 
TzFDMihbQ0gzXSlDMT1bQ0hdW0NIMl1bQ0BASF0zQyhbQ0gzXSkoW0NIM10pW0NIMl1bQ0hdPUMoW0NAQEhdM1tDQEBdMjRbQ0gzXSlbQ0hdPVtDSF1bQ0hdPVtDSF00

>  <s_epik_cmdline>  (262) 
J2VwaWtfcHl0aG9uJywgJy1waHQnLCAnMi4wJywgJy1waCcsICc3LjAnLCAnLXRuJywgJzgnLCAnLW1hJywgJzIwMCcsICctaW1hZScsICc8aW5maWxlLm1hZT4nLCAnLW9tYWUnLCAnPG91dGZpbGUubWFlPic=

>  <r_lp_tautomer_probability>  (262) 
1

>  <r_epik_Ionization_Penalty>  (262) 
0

>  <r_epik_Ionization_Penalty_Charging>  (262) 
0

>  <r_epik_Ionization_Penalty_Neutral>  (262) 
0

>  <r_epik_State_Penalty>  (262) 
-0

>  <r_epik_Charging_Adjusted_Penalty>  (262) 
0

>  <i_epik_Tot_Q>  (262) 
0

>  <i_epik_Tot_abs_Q>  (262) 
0

>  <s_lp_Force_Field>  (262) 
OPLS3e

>  <r_lp_Energy>  (262) 
50.3515

>  <b_lp_Chiralities_Consistent>  (262) 
1

>  <s_lp_Variant>  (262) 
74:0-1

>  <s_i_glide_gridfile>  (262) 
pfpi4k_grid

>  <i_i_glide_lignum>  (262) 
26

>  <i_i_glide_rotatable_bonds>  (262) 
0

>  <r_i_docking_score>  (262) 
-3.18902

>  <r_i_glide_ligand_efficiency>  (262) 
-0.159451

>  <r_i_glide_ligand_efficiency_sa>  (262) 
-0.432816

>  <r_i_glide_ligand_efficiency_ln>  (262) 
-0.798106

>  <r_i_glide_gscore>  (262) 
-3.18902

>  <r_i_glide_lipo>  (262) 
-0.411862

>  <r_i_glide_hbond>  (262) 
-0.196373

>  <r_i_glide_metal>  (262) 
-0

>  <r_i_glide_rewards>  (262) 
-1.57914

>  <r_i_glide_evdw>  (262) 
-16.219

>  <r_i_glide_ecoul>  (262) 
-1.27129

>  <r_i_glide_erotb>  (262) 
0

>  <r_i_glide_esite>  (262) 
0

>  <r_i_glide_emodel>  (262) 
-21.2718

>  <r_i_glide_energy>  (262) 
-17.4903

>  <r_i_glide_einternal>  (262) 
0

>  <r_i_glide_intrahb_reward>  (262) 
-0

>  <i_i_glide_confnum>  (262) 
2

>  <i_i_glide_posenum>  (262) 
27

>  <r_i_glide_eff_state_penalty>  (262) 
0

>  <ligand_id>  (262) 
74

>  <original_smiles>  (262) 
CC1(C)CC=C2C=CC=CC3(C)C2C1CC=C1OC13C

>  <smiles>  (262) 
[H]C1=C([H])C2=C([H])C([H])([H])C(C([H])([H])[H])(C([H])([H])[H])C3([H])C([H])([H])C([H])=C4OC4(C([H])([H])[H])C(C([H])([H])[H])(C([H])=C1[H])C23[H]

$$$$
74:1:0
     RDKit          3D

 44 47  0  0  1  0  0  0  0  0999 V2000
    3.0636   -2.8152   -2.1358 C   0  0  0  0  0  0  0  0  0  0  0  0
    4.5639   -2.6614   -1.7814 C   0  0  0  0  0  0  0  0  0  0  0  0
    5.3525   -3.0610   -3.0480 C   0  0  0  0  0  0  0  0  0  0  0  0
    4.8422   -1.1899   -1.4449 C   0  0  0  0  0  0  0  0  0  0  0  0
    4.3325   -0.8009   -0.0712 C   0  0  0  0  0  0  0  0  0  0  0  0
    4.0060   -1.6487    0.9257 C   0  0  0  0  0  0  0  0  0  0  0  0
    3.4091   -1.0083    2.0813 C   0  0  0  0  0  0  0  0  0  0  0  0
    3.6730   -1.3037    3.3601 C   0  0  0  0  0  0  0  0  0  0  0  0
    4.6277   -2.2990    3.7948 C   0  0  0  0  0  0  0  0  0  0  0  0
    4.8459   -3.4943    3.2127 C   0  0  0  0  0  0  0  0  0  0  0  0
    4.1179   -4.1223    2.0128 C   0  0  1  0  0  0  0  0  0  0  0  0
    2.6852   -4.4359    2.5219 C   0  0  0  0  0  0  0  0  0  0  0  0
    4.0715   -3.1777    0.7183 C   0  0  2  0  0  0  0  0  0  0  0  0
    4.9721   -3.5269   -0.5452 C   0  0  2  0  0  0  0  0  0  0  0  0
    6.5307   -3.4727   -0.2842 C   0  0  0  0  0  0  0  0  0  0  0  0
    7.0341   -4.5375    0.6678 C   0  0  0  0  0  0  0  0  0  0  0  0
    6.1447   -5.2917    1.3021 C   0  0  0  0  0  0  0  0  0  0  0  0
    5.9776   -6.0366    2.4208 O   0  0  0  0  0  0  0  0  0  0  0  0
    4.7793   -5.4723    1.6545 C   0  0  1  0  0  0  0  0  0  0  0  0
    4.0026   -6.5078    0.8536 C   0  0  0  0  0  0  0  0  0  0  0  0
    2.8122   -2.3653   -3.0933 H   0  0  0  0  0  0  0  0  0  0  0  0
    2.4219   -2.3277   -1.4075 H   0  0  0  0  0  0  0  0  0  0  0  0
    2.7571   -3.8625   -2.1767 H   0  0  0  0  0  0  0  0  0  0  0  0
    6.3937   -2.7406   -3.0105 H   0  0  0  0  0  0  0  0  0  0  0  0
    4.9233   -2.5911   -3.9295 H   0  0  0  0  0  0  0  0  0  0  0  0
    5.3391   -4.1399   -3.2072 H   0  0  0  0  0  0  0  0  0  0  0  0
    5.9098   -0.9862   -1.4564 H   0  0  0  0  0  0  0  0  0  0  0  0
    4.3968   -0.5372   -2.1982 H   0  0  0  0  0  0  0  0  0  0  0  0
    4.2224    0.2629    0.0831 H   0  0  0  0  0  0  0  0  0  0  0  0
    2.6916   -0.2214    1.8966 H   0  0  0  0  0  0  0  0  0  0  0  0
    3.1587   -0.7335    4.1222 H   0  0  0  0  0  0  0  0  0  0  0  0
    5.2222   -2.0533    4.6590 H   0  0  0  0  0  0  0  0  0  0  0  0
    5.5831   -4.1136    3.7014 H   0  0  0  0  0  0  0  0  0  0  0  0
    2.0670   -4.9170    1.7648 H   0  0  0  0  0  0  0  0  0  0  0  0
    2.1491   -3.5413    2.8392 H   0  0  0  0  0  0  0  0  0  0  0  0
    2.7158   -5.1097    3.3805 H   0  0  0  0  0  0  0  0  0  0  0  0
    3.0699   -3.3892    0.3576 H   0  0  0  0  0  0  0  0  0  0  0  0
    4.7518   -4.5453   -0.8593 H   0  0  0  0  0  0  0  0  0  0  0  0
    7.0960   -3.6581   -1.1948 H   0  0  0  0  0  0  0  0  0  0  0  0
    6.8365   -2.4947    0.0960 H   0  0  0  0  0  0  0  0  0  0  0  0
    8.0844   -4.5981    0.8946 H   0  0  0  0  0  0  0  0  0  0  0  0
    3.3944   -6.0227    0.0896 H   0  0  0  0  0  0  0  0  0  0  0  0
    3.3476   -7.0920    1.4976 H   0  0  0  0  0  0  0  0  0  0  0  0
    4.6873   -7.1888    0.3425 H   0  0  0  0  0  0  0  0  0  0  0  0
  1  2  1  0
  1 21  1  0
  1 22  1  0
  1 23  1  0
  2 14  1  0
  2  3  1  0
  2  4  1  0
  3 24  1  0
  3 25  1  0
  3 26  1  0
  4  5  1  0
  4 27  1  0
  4 28  1  0
  5  6  2  0
  5 29  1  0
  6 13  1  0
  6  7  1  0
  7  8  2  0
  7 30  1  0
  8  9  1  0
  8 31  1  0
  9 10  2  0
  9 32  1  0
 10 11  1  0
 10 33  1  0
 11 19  1  0
 11 12  1  1
 11 13  1  0
 12 34  1  0
 12 35  1  0
 12 36  1  0
 13 14  1  0
 13 37  1  6
 14 15  1  0
 14 38  1  6
 15 16  1  0
 15 39  1  0
 15 40  1  0
 16 17  2  0
 16 41  1  0
 17 19  1  0
 17 18  1  0
 18 19  1  0
 19 20  1  6
 20 42  1  0
 20 43  1  0
 20 44  1  0
M  END
>  <i_m_ct_stereo_status>  (263) 
1

>  <s_m_source_file>  (263) 
/var/tmp/pbs.5076255.sched01/tmpq3cms3f1/82_sdm1vz9.sdf

>  <i_m_source_file_index>  (263) 
27

>  <i_lp_mmshare_version>  (263) 
48012

>  <i_f3d_flags>  (263) 
0

>  <s_epik_input>  (263) 
TzFDMihbQ0gzXSlDMT1bQ0hdW0NIMl1bQ0BASF0zQyhbQ0gzXSkoW0NIM10pW0NIMl1bQ0hdPUMoW0NAQEhdM1tDQEBdMjRbQ0gzXSlbQ0hdPVtDSF1bQ0hdPVtDSF00

>  <s_epik_cmdline>  (263) 
J2VwaWtfcHl0aG9uJywgJy1waHQnLCAnMi4wJywgJy1waCcsICc3LjAnLCAnLXRuJywgJzgnLCAnLW1hJywgJzIwMCcsICctaW1hZScsICc8aW5maWxlLm1hZT4nLCAnLW9tYWUnLCAnPG91dGZpbGUubWFlPic=

>  <r_lp_tautomer_probability>  (263) 
1

>  <r_epik_Ionization_Penalty>  (263) 
0

>  <r_epik_Ionization_Penalty_Charging>  (263) 
0

>  <r_epik_Ionization_Penalty_Neutral>  (263) 
0

>  <r_epik_State_Penalty>  (263) 
-0

>  <r_epik_Charging_Adjusted_Penalty>  (263) 
0

>  <i_epik_Tot_Q>  (263) 
0

>  <i_epik_Tot_abs_Q>  (263) 
0

>  <s_lp_Force_Field>  (263) 
OPLS3e

>  <r_lp_Energy>  (263) 
53.8448

>  <b_lp_Chiralities_Consistent>  (263) 
1

>  <s_lp_Variant>  (263) 
74:0-2

>  <s_i_glide_gridfile>  (263) 
pfpi4k_grid

>  <i_i_glide_lignum>  (263) 
27

>  <i_i_glide_rotatable_bonds>  (263) 
0

>  <r_i_docking_score>  (263) 
-3.55129

>  <r_i_glide_ligand_efficiency>  (263) 
-0.177565

>  <r_i_glide_ligand_efficiency_sa>  (263) 
-0.481985

>  <r_i_glide_ligand_efficiency_ln>  (263) 
-0.888772

>  <r_i_glide_gscore>  (263) 
-3.55129

>  <r_i_glide_lipo>  (263) 
-0.753102

>  <r_i_glide_hbond>  (263) 
0

>  <r_i_glide_metal>  (263) 
-0

>  <r_i_glide_rewards>  (263) 
-1.57914

>  <r_i_glide_evdw>  (263) 
-23.6725

>  <r_i_glide_ecoul>  (263) 
-0.236202

>  <r_i_glide_erotb>  (263) 
0

>  <r_i_glide_esite>  (263) 
0

>  <r_i_glide_emodel>  (263) 
-28.7216

>  <r_i_glide_energy>  (263) 
-23.9087

>  <r_i_glide_einternal>  (263) 
0

>  <r_i_glide_intrahb_reward>  (263) 
-0

>  <i_i_glide_confnum>  (263) 
1

>  <i_i_glide_posenum>  (263) 
1

>  <r_i_glide_eff_state_penalty>  (263) 
0

>  <ligand_id>  (263) 
74

>  <original_smiles>  (263) 
CC1(C)CC=C2C=CC=CC3(C)C2C1CC=C1OC13C

>  <smiles>  (263) 
[H]C1=C([H])C2=C([H])C([H])([H])C(C([H])([H])[H])(C([H])([H])[H])C3([H])C([H])([H])C([H])=C4OC4(C([H])([H])[H])C(C([H])([H])[H])(C([H])=C1[H])C23[H]

$$$$
74:1:1
     RDKit          3D

 44 47  0  0  1  0  0  0  0  0999 V2000
    4.5072   -3.6578   -3.7333 C   0  0  0  0  0  0  0  0  0  0  0  0
    3.9137   -2.4543   -2.9650 C   0  0  0  0  0  0  0  0  0  0  0  0
    3.9852   -1.2450   -3.9259 C   0  0  0  0  0  0  0  0  0  0  0  0
    2.4495   -2.7320   -2.6302 C   0  0  0  0  0  0  0  0  0  0  0  0
    2.2537   -3.6531   -1.4542 C   0  0  0  0  0  0  0  0  0  0  0  0
    3.1989   -3.9868   -0.5335 C   0  0  0  0  0  0  0  0  0  0  0  0
    2.8070   -5.0655    0.3445 C   0  0  0  0  0  0  0  0  0  0  0  0
    3.0846   -5.1339    1.6573 C   0  0  0  0  0  0  0  0  0  0  0  0
    3.7738   -4.0949    2.3873 C   0  0  0  0  0  0  0  0  0  0  0  0
    4.8308   -3.3904    1.9330 C   0  0  0  0  0  0  0  0  0  0  0  0
    5.5821   -3.5327    0.6061 C   0  0  1  0  0  0  0  0  0  0  0  0
    6.3200   -4.8905    0.7012 C   0  0  0  0  0  0  0  0  0  0  0  0
    4.6358   -3.4752   -0.6861 C   0  0  2  0  0  0  0  0  0  0  0  0
    4.6814   -2.2012   -1.6278 C   0  0  2  0  0  0  0  0  0  0  0  0
    4.1940   -0.8906   -0.9316 C   0  0  0  0  0  0  0  0  0  0  0  0
    5.0639   -0.4178    0.1986 C   0  0  0  0  0  0  0  0  0  0  0  0
    6.1087   -1.1538    0.5367 C   0  0  0  0  0  0  0  0  0  0  0  0
    6.8550   -1.4012    1.6153 O   0  0  0  0  0  0  0  0  0  0  0  0
    6.6725   -2.4498    0.5087 C   0  0  1  0  0  0  0  0  0  0  0  0
    7.8607   -2.6304   -0.4190 C   0  0  0  0  0  0  0  0  0  0  0  0
    4.0757   -3.7386   -4.7295 H   0  0  0  0  0  0  0  0  0  0  0  0
    4.2772   -4.5984   -3.2449 H   0  0  0  0  0  0  0  0  0  0  0  0
    5.5981   -3.5986   -3.8162 H   0  0  0  0  0  0  0  0  0  0  0  0
    3.3819   -0.4044   -3.5919 H   0  0  0  0  0  0  0  0  0  0  0  0
    3.6115   -1.5013   -4.9148 H   0  0  0  0  0  0  0  0  0  0  0  0
    5.0098   -0.9077   -4.0427 H   0  0  0  0  0  0  0  0  0  0  0  0
    1.9483   -1.8106   -2.3691 H   0  0  0  0  0  0  0  0  0  0  0  0
    1.9199   -3.1292   -3.4995 H   0  0  0  0  0  0  0  0  0  0  0  0
    1.2819   -4.1087   -1.4189 H   0  0  0  0  0  0  0  0  0  0  0  0
    2.2878   -5.9007   -0.0947 H   0  0  0  0  0  0  0  0  0  0  0  0
    2.7442   -6.0056    2.2014 H   0  0  0  0  0  0  0  0  0  0  0  0
    3.4056   -3.8698    3.3720 H   0  0  0  0  0  0  0  0  0  0  0  0
    5.2320   -2.6685    2.6349 H   0  0  0  0  0  0  0  0  0  0  0  0
    6.9298   -5.0858   -0.1736 H   0  0  0  0  0  0  0  0  0  0  0  0
    5.6371   -5.7324    0.8052 H   0  0  0  0  0  0  0  0  0  0  0  0
    6.9913   -4.9095    1.5632 H   0  0  0  0  0  0  0  0  0  0  0  0
    5.0947   -4.2383   -1.2993 H   0  0  0  0  0  0  0  0  0  0  0  0
    5.7068   -2.0193   -1.9447 H   0  0  0  0  0  0  0  0  0  0  0  0
    4.2245   -0.0617   -1.6388 H   0  0  0  0  0  0  0  0  0  0  0  0
    3.1631   -0.9734   -0.5609 H   0  0  0  0  0  0  0  0  0  0  0  0
    4.8172    0.4919    0.7153 H   0  0  0  0  0  0  0  0  0  0  0  0
    7.5491   -3.0886   -1.3578 H   0  0  0  0  0  0  0  0  0  0  0  0
    8.6234   -3.2512    0.0427 H   0  0  0  0  0  0  0  0  0  0  0  0
    8.3163   -1.6685   -0.6518 H   0  0  0  0  0  0  0  0  0  0  0  0
  1  2  1  0
  1 21  1  0
  1 22  1  0
  1 23  1  0
  2 14  1  0
  2  3  1  0
  2  4  1  0
  3 24  1  0
  3 25  1  0
  3 26  1  0
  4  5  1  0
  4 27  1  0
  4 28  1  0
  5  6  2  0
  5 29  1  0
  6 13  1  0
  6  7  1  0
  7  8  2  0
  7 30  1  0
  8  9  1  0
  8 31  1  0
  9 10  2  0
  9 32  1  0
 10 11  1  0
 10 33  1  0
 11 19  1  0
 11 12  1  1
 11 13  1  0
 12 34  1  0
 12 35  1  0
 12 36  1  0
 13 14  1  0
 13 37  1  6
 14 15  1  0
 14 38  1  6
 15 16  1  0
 15 39  1  0
 15 40  1  0
 16 17  2  0
 16 41  1  0
 17 19  1  0
 17 18  1  0
 18 19  1  0
 19 20  1  6
 20 42  1  0
 20 43  1  0
 20 44  1  0
M  END
>  <i_m_ct_stereo_status>  (264) 
1

>  <s_m_source_file>  (264) 
/var/tmp/pbs.5076255.sched01/tmpq3cms3f1/82_sdm1vz9.sdf

>  <i_m_source_file_index>  (264) 
27

>  <i_lp_mmshare_version>  (264) 
48012

>  <i_f3d_flags>  (264) 
0

>  <s_epik_input>  (264) 
TzFDMihbQ0gzXSlDMT1bQ0hdW0NIMl1bQ0BASF0zQyhbQ0gzXSkoW0NIM10pW0NIMl1bQ0hdPUMoW0NAQEhdM1tDQEBdMjRbQ0gzXSlbQ0hdPVtDSF1bQ0hdPVtDSF00

>  <s_epik_cmdline>  (264) 
J2VwaWtfcHl0aG9uJywgJy1waHQnLCAnMi4wJywgJy1waCcsICc3LjAnLCAnLXRuJywgJzgnLCAnLW1hJywgJzIwMCcsICctaW1hZScsICc8aW5maWxlLm1hZT4nLCAnLW9tYWUnLCAnPG91dGZpbGUubWFlPic=

>  <r_lp_tautomer_probability>  (264) 
1

>  <r_epik_Ionization_Penalty>  (264) 
0

>  <r_epik_Ionization_Penalty_Charging>  (264) 
0

>  <r_epik_Ionization_Penalty_Neutral>  (264) 
0

>  <r_epik_State_Penalty>  (264) 
-0

>  <r_epik_Charging_Adjusted_Penalty>  (264) 
0

>  <i_epik_Tot_Q>  (264) 
0

>  <i_epik_Tot_abs_Q>  (264) 
0

>  <s_lp_Force_Field>  (264) 
OPLS3e

>  <r_lp_Energy>  (264) 
53.8448

>  <b_lp_Chiralities_Consistent>  (264) 
1

>  <s_lp_Variant>  (264) 
74:0-2

>  <s_i_glide_gridfile>  (264) 
pfpi4k_grid

>  <i_i_glide_lignum>  (264) 
27

>  <i_i_glide_rotatable_bonds>  (264) 
0

>  <r_i_docking_score>  (264) 
-3.32376

>  <r_i_glide_ligand_efficiency>  (264) 
-0.166188

>  <r_i_glide_ligand_efficiency_sa>  (264) 
-0.451103

>  <r_i_glide_ligand_efficiency_ln>  (264) 
-0.831827

>  <r_i_glide_gscore>  (264) 
-3.32376

>  <r_i_glide_lipo>  (264) 
-0.880822

>  <r_i_glide_hbond>  (264) 
0

>  <r_i_glide_metal>  (264) 
-0

>  <r_i_glide_rewards>  (264) 
-1.57914

>  <r_i_glide_evdw>  (264) 
-20.5966

>  <r_i_glide_ecoul>  (264) 
1.10686

>  <r_i_glide_erotb>  (264) 
0

>  <r_i_glide_esite>  (264) 
0

>  <r_i_glide_emodel>  (264) 
-23.8291

>  <r_i_glide_energy>  (264) 
-19.4897

>  <r_i_glide_einternal>  (264) 
0

>  <r_i_glide_intrahb_reward>  (264) 
-0

>  <i_i_glide_confnum>  (264) 
1

>  <i_i_glide_posenum>  (264) 
15

>  <r_i_glide_eff_state_penalty>  (264) 
0

>  <ligand_id>  (264) 
74

>  <original_smiles>  (264) 
CC1(C)CC=C2C=CC=CC3(C)C2C1CC=C1OC13C

>  <smiles>  (264) 
[H]C1=C([H])C2=C([H])C([H])([H])C(C([H])([H])[H])(C([H])([H])[H])C3([H])C([H])([H])C([H])=C4OC4(C([H])([H])[H])C(C([H])([H])[H])(C([H])=C1[H])C23[H]

$$$$
74:1:2
     RDKit          3D

 44 47  0  0  1  0  0  0  0  0999 V2000
    4.6724   -3.6095   -3.2864 C   0  0  0  0  0  0  0  0  0  0  0  0
    3.9014   -2.4914   -2.5480 C   0  0  0  0  0  0  0  0  0  0  0  0
    4.1548   -1.1987   -3.3492 C   0  0  0  0  0  0  0  0  0  0  0  0
    2.3981   -2.7894   -2.5605 C   0  0  0  0  0  0  0  0  0  0  0  0
    1.9751   -3.8124   -1.5243 C   0  0  0  0  0  0  0  0  0  0  0  0
    2.7064   -4.2204   -0.4681 C   0  0  0  0  0  0  0  0  0  0  0  0
    2.1700   -5.3899    0.2089 C   0  0  0  0  0  0  0  0  0  0  0  0
    2.1555   -5.5815    1.5250 C   0  0  0  0  0  0  0  0  0  0  0  0
    2.6456   -4.6119    2.4833 C   0  0  0  0  0  0  0  0  0  0  0  0
    3.7576   -3.8663    2.3306 C   0  0  0  0  0  0  0  0  0  0  0  0
    4.7849   -3.8842    1.1916 C   0  0  1  0  0  0  0  0  0  0  0  0
    5.5105   -5.2538    1.3094 C   0  0  0  0  0  0  0  0  0  0  0  0
    4.1402   -3.7098   -0.2639 C   0  0  2  0  0  0  0  0  0  0  0  0
    4.3602   -2.3555   -1.0550 C   0  0  2  0  0  0  0  0  0  0  0  0
    3.7275   -1.1102   -0.3599 C   0  0  0  0  0  0  0  0  0  0  0  0
    4.3602   -0.6917    0.9357 C   0  0  0  0  0  0  0  0  0  0  0  0
    5.2839   -1.4915    1.4566 C   0  0  0  0  0  0  0  0  0  0  0  0
    5.7780   -1.8572    2.6480 O   0  0  0  0  0  0  0  0  0  0  0  0
    5.8494   -2.7914    1.4412 C   0  0  1  0  0  0  0  0  0  0  0  0
    7.2007   -2.8853    0.7548 C   0  0  0  0  0  0  0  0  0  0  0  0
    4.4766   -3.6003   -4.3586 H   0  0  0  0  0  0  0  0  0  0  0  0
    4.3706   -4.5943   -2.9472 H   0  0  0  0  0  0  0  0  0  0  0  0
    5.7498   -3.5471   -3.1262 H   0  0  0  0  0  0  0  0  0  0  0  0
    3.4613   -0.3953   -3.1098 H   0  0  0  0  0  0  0  0  0  0  0  0
    4.0660   -1.3624   -4.4239 H   0  0  0  0  0  0  0  0  0  0  0  0
    5.1493   -0.8309   -3.1247 H   0  0  0  0  0  0  0  0  0  0  0  0
    1.8392   -1.8799   -2.3484 H   0  0  0  0  0  0  0  0  0  0  0  0
    2.0870   -3.1188   -3.5535 H   0  0  0  0  0  0  0  0  0  0  0  0
    1.0178   -4.2618   -1.7395 H   0  0  0  0  0  0  0  0  0  0  0  0
    1.7643   -6.1751   -0.4140 H   0  0  0  0  0  0  0  0  0  0  0  0
    1.7168   -6.4994    1.9000 H   0  0  0  0  0  0  0  0  0  0  0  0
    2.0623   -4.4708    3.3733 H   0  0  0  0  0  0  0  0  0  0  0  0
    3.9785   -3.2071    3.1617 H   0  0  0  0  0  0  0  0  0  0  0  0
    6.2975   -5.3832    0.5695 H   0  0  0  0  0  0  0  0  0  0  0  0
    4.8314   -6.0953    1.1923 H   0  0  0  0  0  0  0  0  0  0  0  0
    5.9787   -5.3557    2.2907 H   0  0  0  0  0  0  0  0  0  0  0  0
    4.7240   -4.4215   -0.8351 H   0  0  0  0  0  0  0  0  0  0  0  0
    5.4253   -2.1547   -1.1264 H   0  0  0  0  0  0  0  0  0  0  0  0
    3.8639   -0.2553   -1.0042 H   0  0  0  0  0  0  0  0  0  0  0  0
    2.6591   -1.2659   -0.1740 H   0  0  0  0  0  0  0  0  0  0  0  0
    3.9769    0.1509    1.4671 H   0  0  0  0  0  0  0  0  0  0  0  0
    7.0995   -3.2779   -0.2562 H   0  0  0  0  0  0  0  0  0  0  0  0
    7.8649   -3.5409    1.3102 H   0  0  0  0  0  0  0  0  0  0  0  0
    7.6559   -1.8952    0.6888 H   0  0  0  0  0  0  0  0  0  0  0  0
  1  2  1  0
  1 21  1  0
  1 22  1  0
  1 23  1  0
  2 14  1  0
  2  3  1  0
  2  4  1  0
  3 24  1  0
  3 25  1  0
  3 26  1  0
  4  5  1  0
  4 27  1  0
  4 28  1  0
  5  6  2  0
  5 29  1  0
  6 13  1  0
  6  7  1  0
  7  8  2  0
  7 30  1  0
  8  9  1  0
  8 31  1  0
  9 10  2  0
  9 32  1  0
 10 11  1  0
 10 33  1  0
 11 19  1  0
 11 12  1  6
 11 13  1  0
 12 34  1  0
 12 35  1  0
 12 36  1  0
 13 14  1  0
 13 37  1  6
 14 15  1  0
 14 38  1  6
 15 16  1  0
 15 39  1  0
 15 40  1  0
 16 17  2  0
 16 41  1  0
 17 19  1  0
 17 18  1  0
 18 19  1  0
 19 20  1  6
 20 42  1  0
 20 43  1  0
 20 44  1  0
M  END
>  <i_m_ct_stereo_status>  (265) 
1

>  <s_m_source_file>  (265) 
/var/tmp/pbs.5076255.sched01/tmpq3cms3f1/82_sdm1vz9.sdf

>  <i_m_source_file_index>  (265) 
27

>  <i_lp_mmshare_version>  (265) 
48012

>  <i_f3d_flags>  (265) 
0

>  <s_epik_input>  (265) 
TzFDMihbQ0gzXSlDMT1bQ0hdW0NIMl1bQ0BASF0zQyhbQ0gzXSkoW0NIM10pW0NIMl1bQ0hdPUMoW0NAQEhdM1tDQEBdMjRbQ0gzXSlbQ0hdPVtDSF1bQ0hdPVtDSF00

>  <s_epik_cmdline>  (265) 
J2VwaWtfcHl0aG9uJywgJy1waHQnLCAnMi4wJywgJy1waCcsICc3LjAnLCAnLXRuJywgJzgnLCAnLW1hJywgJzIwMCcsICctaW1hZScsICc8aW5maWxlLm1hZT4nLCAnLW9tYWUnLCAnPG91dGZpbGUubWFlPic=

>  <r_lp_tautomer_probability>  (265) 
1

>  <r_epik_Ionization_Penalty>  (265) 
0

>  <r_epik_Ionization_Penalty_Charging>  (265) 
0

>  <r_epik_Ionization_Penalty_Neutral>  (265) 
0

>  <r_epik_State_Penalty>  (265) 
-0

>  <r_epik_Charging_Adjusted_Penalty>  (265) 
0

>  <i_epik_Tot_Q>  (265) 
0

>  <i_epik_Tot_abs_Q>  (265) 
0

>  <s_lp_Force_Field>  (265) 
OPLS3e

>  <r_lp_Energy>  (265) 
53.8448

>  <b_lp_Chiralities_Consistent>  (265) 
1

>  <s_lp_Variant>  (265) 
74:0-2

>  <s_i_glide_gridfile>  (265) 
pfpi4k_grid

>  <i_i_glide_lignum>  (265) 
27

>  <i_i_glide_rotatable_bonds>  (265) 
0

>  <r_i_docking_score>  (265) 
-3.21668

>  <r_i_glide_ligand_efficiency>  (265) 
-0.160834

>  <r_i_glide_ligand_efficiency_sa>  (265) 
-0.43657

>  <r_i_glide_ligand_efficiency_ln>  (265) 
-0.805028

>  <r_i_glide_gscore>  (265) 
-3.21668

>  <r_i_glide_lipo>  (265) 
-0.739816

>  <r_i_glide_hbond>  (265) 
0

>  <r_i_glide_metal>  (265) 
-0

>  <r_i_glide_rewards>  (265) 
-1.57914

>  <r_i_glide_evdw>  (265) 
-18.3653

>  <r_i_glide_ecoul>  (265) 
0.13693

>  <r_i_glide_erotb>  (265) 
0

>  <r_i_glide_esite>  (265) 
0

>  <r_i_glide_emodel>  (265) 
-22.4015

>  <r_i_glide_energy>  (265) 
-18.2284

>  <r_i_glide_einternal>  (265) 
0

>  <r_i_glide_intrahb_reward>  (265) 
-0

>  <i_i_glide_confnum>  (265) 
2

>  <i_i_glide_posenum>  (265) 
6

>  <r_i_glide_eff_state_penalty>  (265) 
0

>  <ligand_id>  (265) 
74

>  <original_smiles>  (265) 
CC1(C)CC=C2C=CC=CC3(C)C2C1CC=C1OC13C

>  <smiles>  (265) 
[H]C1=C([H])C2=C([H])C([H])([H])C(C([H])([H])[H])(C([H])([H])[H])C3([H])C([H])([H])C([H])=C4OC4(C([H])([H])[H])C(C([H])([H])[H])(C([H])=C1[H])C23[H]

$$$$
76:0:0
     RDKit          3D

 52 55  0  0  1  0  0  0  0  0999 V2000
    5.6732   -7.1361    1.3113 C   0  0  0  0  0  0  0  0  0  0  0  0
    5.5426   -6.1794    0.1176 C   0  0  0  0  0  0  0  0  0  0  0  0
    5.0126   -4.7597    0.4067 C   0  0  1  0  0  0  0  0  0  0  0  0
    3.8829   -4.7922    1.4452 C   0  0  0  0  0  0  0  0  0  0  0  0
    6.0925   -4.0193    0.9807 O   0  0  0  0  0  0  0  0  0  0  0  0
    6.5352   -2.9117    0.1875 C   0  0  2  0  0  0  0  0  0  0  0  0
    7.9232   -3.2425   -0.3856 C   0  0  0  0  0  0  0  0  0  0  0  0
    6.5480   -1.7063    1.1234 C   0  0  0  0  0  0  0  0  0  0  0  0
    5.0791   -1.3271    1.2714 C   0  0  1  0  0  0  0  0  0  0  0  0
    4.8909    0.0939    1.7807 C   0  0  0  0  0  0  0  0  0  0  0  0
    4.5473   -1.5351   -0.1497 C   0  0  2  0  0  0  0  0  0  0  0  0
    3.0178   -1.6737   -0.2674 C   0  0  0  0  0  0  0  0  0  0  0  0
    2.4798   -3.0570   -0.7117 C   0  0  0  0  0  0  0  0  0  0  0  0
    3.4078   -3.8532   -1.5125 N   0  0  1  0  0  0  0  0  0  0  0  0
    3.4703   -3.3906   -2.9226 C   0  0  0  0  0  0  0  0  0  0  0  0
    4.5482   -2.3356   -3.2584 C   0  0  1  0  0  0  0  0  0  0  0  0
    3.9590   -0.9833   -3.6848 C   0  0  0  0  0  0  0  0  0  0  0  0
    5.7692   -2.2518   -2.2808 C   0  0  0  0  0  0  0  0  0  0  0  0
    5.4076   -2.6422   -0.8252 C   0  0  1  0  0  0  0  0  0  0  0  0
    4.7623   -3.9938   -0.9284 C   0  0  1  0  0  0  0  0  0  0  0  0
    6.1615   -8.0669    1.0172 H   0  0  0  0  0  0  0  0  0  0  0  0
    4.6951   -7.4129    1.7109 H   0  0  0  0  0  0  0  0  0  0  0  0
    6.2655   -6.6977    2.1169 H   0  0  0  0  0  0  0  0  0  0  0  0
    6.5341   -6.0505   -0.3085 H   0  0  0  0  0  0  0  0  0  0  0  0
    4.9226   -6.6540   -0.6473 H   0  0  0  0  0  0  0  0  0  0  0  0
    3.0494   -5.4164    1.1108 H   0  0  0  0  0  0  0  0  0  0  0  0
    3.5097   -3.7993    1.6915 H   0  0  0  0  0  0  0  0  0  0  0  0
    4.2479   -5.2001    2.3836 H   0  0  0  0  0  0  0  0  0  0  0  0
    8.3421   -2.4160   -0.9633 H   0  0  0  0  0  0  0  0  0  0  0  0
    7.8912   -4.1165   -1.0317 H   0  0  0  0  0  0  0  0  0  0  0  0
    8.6160   -3.4676    0.4293 H   0  0  0  0  0  0  0  0  0  0  0  0
    6.9843   -1.9583    2.0762 H   0  0  0  0  0  0  0  0  0  0  0  0
    7.1202   -0.8914    0.6836 H   0  0  0  0  0  0  0  0  0  0  0  0
    4.6039   -2.0052    1.9751 H   0  0  0  0  0  0  0  0  0  0  0  0
    5.3440    0.7401    1.0356 H   0  0  0  0  0  0  0  0  0  0  0  0
    5.3551    0.2380    2.7604 H   0  0  0  0  0  0  0  0  0  0  0  0
    3.8422    0.3791    1.8756 H   0  0  0  0  0  0  0  0  0  0  0  0
    4.7912   -0.5912   -0.6651 H   0  0  0  0  0  0  0  0  0  0  0  0
    2.5630   -1.3865    0.6781 H   0  0  0  0  0  0  0  0  0  0  0  0
    2.7377   -0.9185   -0.9910 H   0  0  0  0  0  0  0  0  0  0  0  0
    2.0925   -3.6025    0.1530 H   0  0  0  0  0  0  0  0  0  0  0  0
    1.5894   -2.9298   -1.3413 H   0  0  0  0  0  0  0  0  0  0  0  0
    3.7188   -4.2587   -3.5378 H   0  0  0  0  0  0  0  0  0  0  0  0
    2.4848   -3.0689   -3.2934 H   0  0  0  0  0  0  0  0  0  0  0  0
    4.9411   -2.7264   -4.1949 H   0  0  0  0  0  0  0  0  0  0  0  0
    3.4828   -0.4456   -2.8633 H   0  0  0  0  0  0  0  0  0  0  0  0
    3.2232   -1.1179   -4.4784 H   0  0  0  0  0  0  0  0  0  0  0  0
    4.7156   -0.3313   -4.0965 H   0  0  0  0  0  0  0  0  0  0  0  0
    6.5613   -2.8923   -2.6596 H   0  0  0  0  0  0  0  0  0  0  0  0
    6.1688   -1.2393   -2.2824 H   0  0  0  0  0  0  0  0  0  0  0  0
    5.3255   -4.5606   -1.6787 H   0  0  0  0  0  0  0  0  0  0  0  0
    3.0274   -4.7936   -1.6084 H   0  0  0  0  0  0  0  0  0  0  0  0
  1  2  1  0
  1 21  1  0
  1 22  1  0
  1 23  1  0
  3  2  1  6
  2 24  1  0
  2 25  1  0
  3 20  1  0
  3  4  1  0
  3  5  1  0
  4 26  1  0
  4 27  1  0
  4 28  1  0
  5  6  1  0
  6 19  1  0
  6  7  1  6
  6  8  1  0
  7 29  1  0
  7 30  1  0
  7 31  1  0
  8  9  1  0
  8 32  1  0
  8 33  1  0
  9 10  1  0
  9 11  1  0
  9 34  1  1
 10 35  1  0
 10 36  1  0
 10 37  1  0
 11 19  1  0
 11 12  1  0
 11 38  1  6
 12 13  1  0
 12 39  1  0
 12 40  1  0
 13 14  1  0
 13 41  1  0
 13 42  1  0
 14 20  1  0
 14 15  1  0
 14 52  1  6
 15 16  1  0
 15 43  1  0
 15 44  1  0
 16 17  1  0
 16 18  1  0
 16 45  1  6
 17 46  1  0
 17 47  1  0
 17 48  1  0
 19 18  1  6
 18 49  1  0
 18 50  1  0
 19 20  1  0
 20 51  1  6
M  CHG  1  14   1
M  END
>  <i_m_ct_stereo_status>  (266) 
1

>  <s_m_source_file>  (266) 
/var/tmp/pbs.5076255.sched01/tmpq3cms3f1/82_sdm1vz9.sdf

>  <i_m_source_file_index>  (266) 
29

>  <i_lp_mmshare_version>  (266) 
48012

>  <i_f3d_flags>  (266) 
0

>  <s_epik_input>  (266) 
W0NIM11bQ0BAXTEoW0NAQF0yMzQpT1tDQF0oW0NIM10pKFtDSDJdW0NIM10pW0NASF00TihbQ0gyXVtDQEBIXShbQ0gzXSlbQ0gyXTMpW0NIMl1bQ0gyXVtDQEhdMltDQEBIXShbQ0gyXTEpW0NIM10=

>  <s_epik_cmdline>  (266) 
J2VwaWtfcHl0aG9uJywgJy1waHQnLCAnMi4wJywgJy1waCcsICc3LjAnLCAnLXRuJywgJzgnLCAnLW1hJywgJzIwMCcsICctaW1hZScsICc8aW5maWxlLm1hZT4nLCAnLW9tYWUnLCAnPG91dGZpbGUubWFlPic=

>  <r_epik_Ionization_Penalty>  (266) 
0.00116668

>  <r_epik_Ionization_Penalty_Charging>  (266) 
0.00116668

>  <r_epik_Ionization_Penalty_Neutral>  (266) 
8.98543e-14

>  <r_epik_State_Penalty>  (266) 
0.000768466

>  <r_epik_Charging_Adjusted_Penalty>  (266) 
0.00193514

>  <i_epik_Tot_Q>  (266) 
1

>  <i_epik_Tot_abs_Q>  (266) 
1

>  <s_lp_Force_Field>  (266) 
OPLS3e

>  <r_lp_Energy>  (266) 
54.4592

>  <b_lp_Chiralities_Consistent>  (266) 
1

>  <s_lp_Variant>  (266) 
76:0-1

>  <s_i_glide_gridfile>  (266) 
pfpi4k_grid

>  <i_i_glide_lignum>  (266) 
29

>  <i_i_glide_rotatable_bonds>  (266) 
1

>  <r_i_docking_score>  (266) 
-3.99868

>  <r_i_glide_ligand_efficiency>  (266) 
-0.199934

>  <r_i_glide_ligand_efficiency_sa>  (266) 
-0.542704

>  <r_i_glide_ligand_efficiency_ln>  (266) 
-1.00074

>  <r_i_glide_gscore>  (266) 
-3.99868

>  <r_i_glide_lipo>  (266) 
-1.07173

>  <r_i_glide_hbond>  (266) 
0

>  <r_i_glide_metal>  (266) 
-0

>  <r_i_glide_rewards>  (266) 
-1.51055

>  <r_i_glide_evdw>  (266) 
-10.9797

>  <r_i_glide_ecoul>  (266) 
-5.73392

>  <r_i_glide_erotb>  (266) 
0

>  <r_i_glide_esite>  (266) 
-0.00732146

>  <r_i_glide_emodel>  (266) 
-18.9211

>  <r_i_glide_energy>  (266) 
-16.7137

>  <r_i_glide_einternal>  (266) 
1.00232

>  <r_i_glide_intrahb_reward>  (266) 
-0

>  <i_i_glide_confnum>  (266) 
1

>  <i_i_glide_posenum>  (266) 
20

>  <r_i_glide_eff_state_penalty>  (266) 
0

>  <ligand_id>  (266) 
76

>  <original_smiles>  (266) 
CCC1(C)OC2(C)CC(C)C3CCN4CC(C)CC32C41

>  <smiles>  (266) 
[H]C([H])([H])C([H])([H])C1(C([H])([H])[H])OC2(C([H])([H])[H])C([H])([H])C([H])(C([H])([H])[H])C3([H])C([H])([H])C([H])([H])[N+]4([H])C([H])([H])C([H])(C([H])([H])[H])C([H])([H])C32C14[H]

$$$$
76:0:1
     RDKit          3D

 52 55  0  0  1  0  0  0  0  0999 V2000
    7.0572   -6.2216    1.1277 C   0  0  0  0  0  0  0  0  0  0  0  0
    7.1929   -4.7388    1.4666 C   0  0  0  0  0  0  0  0  0  0  0  0
    5.8962   -3.8969    1.3225 C   0  0  1  0  0  0  0  0  0  0  0  0
    4.7575   -4.4587    2.1908 C   0  0  0  0  0  0  0  0  0  0  0  0
    6.2021   -2.6315    1.9066 O   0  0  0  0  0  0  0  0  0  0  0  0
    6.1533   -1.5336    0.9914 C   0  0  2  0  0  0  0  0  0  0  0  0
    7.5934   -1.0879    0.7286 C   0  0  0  0  0  0  0  0  0  0  0  0
    5.2966   -0.4496    1.6531 C   0  0  0  0  0  0  0  0  0  0  0  0
    3.8648   -0.9344    1.4685 C   0  0  1  0  0  0  0  0  0  0  0  0
    2.8193    0.1775    1.6551 C   0  0  0  0  0  0  0  0  0  0  0  0
    3.8978   -1.5557    0.0566 C   0  0  2  0  0  0  0  0  0  0  0  0
    2.7820   -2.5718   -0.2712 C   0  0  0  0  0  0  0  0  0  0  0  0
    3.1704   -4.0332   -0.4882 C   0  0  0  0  0  0  0  0  0  0  0  0
    4.5646   -4.2268   -0.9434 N   0  0  1  0  0  0  0  0  0  0  0  0
    4.7448   -3.9342   -2.3909 C   0  0  0  0  0  0  0  0  0  0  0  0
    5.1648   -2.4831   -2.7625 C   0  0  1  0  0  0  0  0  0  0  0  0
    4.0889   -1.7240   -3.5572 C   0  0  0  0  0  0  0  0  0  0  0  0
    5.8189   -1.6302   -1.6371 C   0  0  0  0  0  0  0  0  0  0  0  0
    5.3509   -2.0349   -0.2201 C   0  0  1  0  0  0  0  0  0  0  0  0
    5.5893   -3.5198   -0.1458 C   0  0  1  0  0  0  0  0  0  0  0  0
    7.9955   -6.7485    1.2928 H   0  0  0  0  0  0  0  0  0  0  0  0
    6.7845   -6.3144    0.0754 H   0  0  0  0  0  0  0  0  0  0  0  0
    6.3042   -6.7277    1.7254 H   0  0  0  0  0  0  0  0  0  0  0  0
    7.5375   -4.6757    2.4772 H   0  0  0  0  0  0  0  0  0  0  0  0
    8.0004   -4.3079    0.8692 H   0  0  0  0  0  0  0  0  0  0  0  0
    4.4512   -5.4595    1.8813 H   0  0  0  0  0  0  0  0  0  0  0  0
    3.8738   -3.8250    2.1786 H   0  0  0  0  0  0  0  0  0  0  0  0
    5.0846   -4.5180    3.2287 H   0  0  0  0  0  0  0  0  0  0  0  0
    7.5971   -0.2325    0.0951 H   0  0  0  0  0  0  0  0  0  0  0  0
    8.2166   -1.8723    0.2977 H   0  0  0  0  0  0  0  0  0  0  0  0
    8.0613   -0.7418    1.6491 H   0  0  0  0  0  0  0  0  0  0  0  0
    5.5518   -0.3017    2.7020 H   0  0  0  0  0  0  0  0  0  0  0  0
    5.4371    0.4946    1.1268 H   0  0  0  0  0  0  0  0  0  0  0  0
    3.6679   -1.7037    2.2111 H   0  0  0  0  0  0  0  0  0  0  0  0
    2.9772    0.9992    0.9600 H   0  0  0  0  0  0  0  0  0  0  0  0
    2.8595    0.5901    2.6639 H   0  0  0  0  0  0  0  0  0  0  0  0
    1.8099   -0.1993    1.4907 H   0  0  0  0  0  0  0  0  0  0  0  0
    3.7055   -0.7073   -0.6065 H   0  0  0  0  0  0  0  0  0  0  0  0
    2.0081   -2.5451    0.4955 H   0  0  0  0  0  0  0  0  0  0  0  0
    2.3061   -2.2600   -1.1946 H   0  0  0  0  0  0  0  0  0  0  0  0
    2.9655   -4.6311    0.3946 H   0  0  0  0  0  0  0  0  0  0  0  0
    2.4690   -4.4277   -1.2186 H   0  0  0  0  0  0  0  0  0  0  0  0
    5.5465   -4.5871   -2.7186 H   0  0  0  0  0  0  0  0  0  0  0  0
    3.8912   -4.2403   -2.9923 H   0  0  0  0  0  0  0  0  0  0  0  0
    5.9490   -2.6592   -3.4954 H   0  0  0  0  0  0  0  0  0  0  0  0
    3.2114   -1.5020   -2.9557 H   0  0  0  0  0  0  0  0  0  0  0  0
    3.7565   -2.3109   -4.4130 H   0  0  0  0  0  0  0  0  0  0  0  0
    4.4698   -0.7740   -3.9373 H   0  0  0  0  0  0  0  0  0  0  0  0
    6.8964   -1.7886   -1.7203 H   0  0  0  0  0  0  0  0  0  0  0  0
    5.6285   -0.5687   -1.8060 H   0  0  0  0  0  0  0  0  0  0  0  0
    6.5302   -3.7095   -0.6640 H   0  0  0  0  0  0  0  0  0  0  0  0
    4.7359   -5.2162   -0.8631 H   0  0  0  0  0  0  0  0  0  0  0  0
  1  2  1  0
  1 21  1  0
  1 22  1  0
  1 23  1  0
  3  2  1  6
  2 24  1  0
  2 25  1  0
  3 20  1  0
  3  4  1  0
  3  5  1  0
  4 26  1  0
  4 27  1  0
  4 28  1  0
  5  6  1  0
  6 19  1  0
  6  7  1  6
  6  8  1  0
  7 29  1  0
  7 30  1  0
  7 31  1  0
  8  9  1  0
  8 32  1  0
  8 33  1  0
  9 10  1  0
  9 11  1  0
  9 34  1  1
 10 35  1  0
 10 36  1  0
 10 37  1  0
 11 19  1  0
 11 12  1  0
 11 38  1  6
 12 13  1  0
 12 39  1  0
 12 40  1  0
 13 14  1  0
 13 41  1  0
 13 42  1  0
 14 20  1  0
 14 15  1  0
 14 52  1  6
 15 16  1  0
 15 43  1  0
 15 44  1  0
 16 17  1  0
 16 18  1  0
 16 45  1  6
 17 46  1  0
 17 47  1  0
 17 48  1  0
 19 18  1  6
 18 49  1  0
 18 50  1  0
 19 20  1  0
 20 51  1  6
M  CHG  1  14   1
M  END
>  <i_m_ct_stereo_status>  (267) 
1

>  <s_m_source_file>  (267) 
/var/tmp/pbs.5076255.sched01/tmpq3cms3f1/82_sdm1vz9.sdf

>  <i_m_source_file_index>  (267) 
29

>  <i_lp_mmshare_version>  (267) 
48012

>  <i_f3d_flags>  (267) 
0

>  <s_epik_input>  (267) 
W0NIM11bQ0BAXTEoW0NAQF0yMzQpT1tDQF0oW0NIM10pKFtDSDJdW0NIM10pW0NASF00TihbQ0gyXVtDQEBIXShbQ0gzXSlbQ0gyXTMpW0NIMl1bQ0gyXVtDQEhdMltDQEBIXShbQ0gyXTEpW0NIM10=

>  <s_epik_cmdline>  (267) 
J2VwaWtfcHl0aG9uJywgJy1waHQnLCAnMi4wJywgJy1waCcsICc3LjAnLCAnLXRuJywgJzgnLCAnLW1hJywgJzIwMCcsICctaW1hZScsICc8aW5maWxlLm1hZT4nLCAnLW9tYWUnLCAnPG91dGZpbGUubWFlPic=

>  <r_epik_Ionization_Penalty>  (267) 
0.00116668

>  <r_epik_Ionization_Penalty_Charging>  (267) 
0.00116668

>  <r_epik_Ionization_Penalty_Neutral>  (267) 
8.98543e-14

>  <r_epik_State_Penalty>  (267) 
0.000768466

>  <r_epik_Charging_Adjusted_Penalty>  (267) 
0.00193514

>  <i_epik_Tot_Q>  (267) 
1

>  <i_epik_Tot_abs_Q>  (267) 
1

>  <s_lp_Force_Field>  (267) 
OPLS3e

>  <r_lp_Energy>  (267) 
54.4592

>  <b_lp_Chiralities_Consistent>  (267) 
1

>  <s_lp_Variant>  (267) 
76:0-1

>  <s_i_glide_gridfile>  (267) 
pfpi4k_grid

>  <i_i_glide_lignum>  (267) 
29

>  <i_i_glide_rotatable_bonds>  (267) 
1

>  <r_i_docking_score>  (267) 
-3.52732

>  <r_i_glide_ligand_efficiency>  (267) 
-0.176366

>  <r_i_glide_ligand_efficiency_sa>  (267) 
-0.478731

>  <r_i_glide_ligand_efficiency_ln>  (267) 
-0.882773

>  <r_i_glide_gscore>  (267) 
-3.52732

>  <r_i_glide_lipo>  (267) 
-0.974343

>  <r_i_glide_hbond>  (267) 
0

>  <r_i_glide_metal>  (267) 
-0

>  <r_i_glide_rewards>  (267) 
-1.51055

>  <r_i_glide_evdw>  (267) 
-12.2331

>  <r_i_glide_ecoul>  (267) 
-2.74879

>  <r_i_glide_erotb>  (267) 
0

>  <r_i_glide_esite>  (267) 
-0.0184562

>  <r_i_glide_emodel>  (267) 
-17.7103

>  <r_i_glide_energy>  (267) 
-14.9819

>  <r_i_glide_einternal>  (267) 
0.395165

>  <r_i_glide_intrahb_reward>  (267) 
-0

>  <i_i_glide_confnum>  (267) 
1

>  <i_i_glide_posenum>  (267) 
1

>  <r_i_glide_eff_state_penalty>  (267) 
0

>  <ligand_id>  (267) 
76

>  <original_smiles>  (267) 
CCC1(C)OC2(C)CC(C)C3CCN4CC(C)CC32C41

>  <smiles>  (267) 
[H]C([H])([H])C([H])([H])C1(C([H])([H])[H])OC2(C([H])([H])[H])C([H])([H])C([H])(C([H])([H])[H])C3([H])C([H])([H])C([H])([H])[N+]4([H])C([H])([H])C([H])(C([H])([H])[H])C([H])([H])C32C14[H]

$$$$
76:0:2
     RDKit          3D

 52 55  0  0  1  0  0  0  0  0999 V2000
    8.5104   -5.1148    0.6736 C   0  0  0  0  0  0  0  0  0  0  0  0
    7.0845   -5.4552    1.1495 C   0  0  0  0  0  0  0  0  0  0  0  0
    6.0305   -4.3029    1.1007 C   0  0  1  0  0  0  0  0  0  0  0  0
    4.8593   -4.6670    2.0391 C   0  0  0  0  0  0  0  0  0  0  0  0
    6.6290   -3.1341    1.6595 O   0  0  0  0  0  0  0  0  0  0  0  0
    6.7227   -2.0441    0.7306 C   0  0  2  0  0  0  0  0  0  0  0  0
    8.2029   -1.8326    0.3323 C   0  0  0  0  0  0  0  0  0  0  0  0
    6.1091   -0.8286    1.4333 C   0  0  0  0  0  0  0  0  0  0  0  0
    4.6027   -1.0372    1.3792 C   0  0  1  0  0  0  0  0  0  0  0  0
    3.8139    0.2610    1.6164 C   0  0  0  0  0  0  0  0  0  0  0  0
    4.4122   -1.6243   -0.0374 C   0  0  2  0  0  0  0  0  0  0  0  0
    3.0823   -2.3749   -0.2877 C   0  0  0  0  0  0  0  0  0  0  0  0
    3.1686   -3.8932   -0.5205 C   0  0  0  0  0  0  0  0  0  0  0  0
    4.4698   -4.3450   -1.0565 N   0  0  1  0  0  0  0  0  0  0  0  0
    4.6021   -4.1032   -2.5182 C   0  0  0  0  0  0  0  0  0  0  0  0
    5.2725   -2.7635   -2.9297 C   0  0  1  0  0  0  0  0  0  0  0  0
    4.2901   -1.8153   -3.6513 C   0  0  0  0  0  0  0  0  0  0  0  0
    6.1546   -2.0571   -1.8647 C   0  0  0  0  0  0  0  0  0  0  0  0
    5.7315   -2.3734   -0.4120 C   0  0  1  0  0  0  0  0  0  0  0  0
    5.6789   -3.8702   -0.3366 C   0  0  1  0  0  0  0  0  0  0  0  0
    9.1677   -5.9855    0.7332 H   0  0  0  0  0  0  0  0  0  0  0  0
    8.9524   -4.3435    1.3066 H   0  0  0  0  0  0  0  0  0  0  0  0
    8.5349   -4.7674   -0.3582 H   0  0  0  0  0  0  0  0  0  0  0  0
    6.7180   -6.3048    0.5691 H   0  0  0  0  0  0  0  0  0  0  0  0
    7.1761   -5.8071    2.1768 H   0  0  0  0  0  0  0  0  0  0  0  0
    4.3665   -5.6050    1.7525 H   0  0  0  0  0  0  0  0  0  0  0  0
    4.0994   -3.8858    2.0861 H   0  0  0  0  0  0  0  0  0  0  0  0
    5.2203   -4.7921    3.0588 H   0  0  0  0  0  0  0  0  0  0  0  0
    8.3320   -0.9963   -0.3067 H   0  0  0  0  0  0  0  0  0  0  0  0
    8.6309   -2.6656   -0.2222 H   0  0  0  0  0  0  0  0  0  0  0  0
    8.8466   -1.5870    1.1814 H   0  0  0  0  0  0  0  0  0  0  0  0
    6.4773   -0.7111    2.4526 H   0  0  0  0  0  0  0  0  0  0  0  0
    6.3470    0.0620    0.8552 H   0  0  0  0  0  0  0  0  0  0  0  0
    4.3119   -1.7584    2.1433 H   0  0  0  0  0  0  0  0  0  0  0  0
    4.0895    1.0172    0.8826 H   0  0  0  0  0  0  0  0  0  0  0  0
    4.0194    0.6625    2.6116 H   0  0  0  0  0  0  0  0  0  0  0  0
    2.7384    0.1014    1.5377 H   0  0  0  0  0  0  0  0  0  0  0  0
    4.3585   -0.7385   -0.6830 H   0  0  0  0  0  0  0  0  0  0  0  0
    2.3770   -2.1880    0.5265 H   0  0  0  0  0  0  0  0  0  0  0  0
    2.6118   -1.9419   -1.1605 H   0  0  0  0  0  0  0  0  0  0  0  0
    2.9169   -4.4356    0.3875 H   0  0  0  0  0  0  0  0  0  0  0  0
    2.3690   -4.1699   -1.2087 H   0  0  0  0  0  0  0  0  0  0  0  0
    5.2061   -4.9150   -2.9094 H   0  0  0  0  0  0  0  0  0  0  0  0
    3.6575   -4.2068   -3.0421 H   0  0  0  0  0  0  0  0  0  0  0  0
    5.9702   -3.0719   -3.7035 H   0  0  0  0  0  0  0  0  0  0  0  0
    3.5178   -1.4238   -2.9922 H   0  0  0  0  0  0  0  0  0  0  0  0
    3.7809   -2.3278   -4.4682 H   0  0  0  0  0  0  0  0  0  0  0  0
    4.8019   -0.9542   -4.0833 H   0  0  0  0  0  0  0  0  0  0  0  0
    7.1838   -2.3777   -2.0375 H   0  0  0  0  0  0  0  0  0  0  0  0
    6.1356   -0.9837   -2.0209 H   0  0  0  0  0  0  0  0  0  0  0  0
    6.5036   -4.2527   -0.9294 H   0  0  0  0  0  0  0  0  0  0  0  0
    4.4381   -5.3515   -0.9817 H   0  0  0  0  0  0  0  0  0  0  0  0
  1  2  1  0
  1 21  1  0
  1 22  1  0
  1 23  1  0
  3  2  1  6
  2 24  1  0
  2 25  1  0
  3 20  1  0
  3  4  1  0
  3  5  1  0
  4 26  1  0
  4 27  1  0
  4 28  1  0
  5  6  1  0
  6 19  1  0
  6  7  1  6
  6  8  1  0
  7 29  1  0
  7 30  1  0
  7 31  1  0
  8  9  1  0
  8 32  1  0
  8 33  1  0
  9 10  1  0
  9 11  1  0
  9 34  1  1
 10 35  1  0
 10 36  1  0
 10 37  1  0
 11 19  1  0
 11 12  1  0
 11 38  1  6
 12 13  1  0
 12 39  1  0
 12 40  1  0
 13 14  1  0
 13 41  1  0
 13 42  1  0
 14 20  1  0
 14 15  1  0
 14 52  1  6
 15 16  1  0
 15 43  1  0
 15 44  1  0
 16 17  1  0
 16 18  1  0
 16 45  1  6
 17 46  1  0
 17 47  1  0
 17 48  1  0
 19 18  1  6
 18 49  1  0
 18 50  1  0
 19 20  1  0
 20 51  1  6
M  CHG  1  14   1
M  END
>  <i_m_ct_stereo_status>  (268) 
1

>  <s_m_source_file>  (268) 
/var/tmp/pbs.5076255.sched01/tmpq3cms3f1/82_sdm1vz9.sdf

>  <i_m_source_file_index>  (268) 
29

>  <i_lp_mmshare_version>  (268) 
48012

>  <i_f3d_flags>  (268) 
0

>  <s_epik_input>  (268) 
W0NIM11bQ0BAXTEoW0NAQF0yMzQpT1tDQF0oW0NIM10pKFtDSDJdW0NIM10pW0NASF00TihbQ0gyXVtDQEBIXShbQ0gzXSlbQ0gyXTMpW0NIMl1bQ0gyXVtDQEhdMltDQEBIXShbQ0gyXTEpW0NIM10=

>  <s_epik_cmdline>  (268) 
J2VwaWtfcHl0aG9uJywgJy1waHQnLCAnMi4wJywgJy1waCcsICc3LjAnLCAnLXRuJywgJzgnLCAnLW1hJywgJzIwMCcsICctaW1hZScsICc8aW5maWxlLm1hZT4nLCAnLW9tYWUnLCAnPG91dGZpbGUubWFlPic=

>  <r_epik_Ionization_Penalty>  (268) 
0.00116668

>  <r_epik_Ionization_Penalty_Charging>  (268) 
0.00116668

>  <r_epik_Ionization_Penalty_Neutral>  (268) 
8.98543e-14

>  <r_epik_State_Penalty>  (268) 
0.000768466

>  <r_epik_Charging_Adjusted_Penalty>  (268) 
0.00193514

>  <i_epik_Tot_Q>  (268) 
1

>  <i_epik_Tot_abs_Q>  (268) 
1

>  <s_lp_Force_Field>  (268) 
OPLS3e

>  <r_lp_Energy>  (268) 
54.4592

>  <b_lp_Chiralities_Consistent>  (268) 
1

>  <s_lp_Variant>  (268) 
76:0-1

>  <s_i_glide_gridfile>  (268) 
pfpi4k_grid

>  <i_i_glide_lignum>  (268) 
29

>  <i_i_glide_rotatable_bonds>  (268) 
1

>  <r_i_docking_score>  (268) 
-3.51693

>  <r_i_glide_ligand_efficiency>  (268) 
-0.175846

>  <r_i_glide_ligand_efficiency_sa>  (268) 
-0.477321

>  <r_i_glide_ligand_efficiency_ln>  (268) 
-0.880171

>  <r_i_glide_gscore>  (268) 
-3.51693

>  <r_i_glide_lipo>  (268) 
-0.794524

>  <r_i_glide_hbond>  (268) 
0

>  <r_i_glide_metal>  (268) 
-0

>  <r_i_glide_rewards>  (268) 
-1.51055

>  <r_i_glide_evdw>  (268) 
-13.1776

>  <r_i_glide_ecoul>  (268) 
-3.47402

>  <r_i_glide_erotb>  (268) 
0

>  <r_i_glide_esite>  (268) 
-0.0318735

>  <r_i_glide_emodel>  (268) 
-18.7917

>  <r_i_glide_energy>  (268) 
-16.6516

>  <r_i_glide_einternal>  (268) 
1.55765

>  <r_i_glide_intrahb_reward>  (268) 
-0

>  <i_i_glide_confnum>  (268) 
1

>  <i_i_glide_posenum>  (268) 
36

>  <r_i_glide_eff_state_penalty>  (268) 
0

>  <ligand_id>  (268) 
76

>  <original_smiles>  (268) 
CCC1(C)OC2(C)CC(C)C3CCN4CC(C)CC32C41

>  <smiles>  (268) 
[H]C([H])([H])C([H])([H])C1(C([H])([H])[H])OC2(C([H])([H])[H])C([H])([H])C([H])(C([H])([H])[H])C3([H])C([H])([H])C([H])([H])[N+]4([H])C([H])([H])C([H])(C([H])([H])[H])C([H])([H])C32C14[H]

$$$$
78:0:0
     RDKit          3D

 47 52  0  0  1  0  0  0  0  0999 V2000
    2.4099   -8.7811    3.4544 C   0  0  0  0  0  0  0  0  0  0  0  0
    3.5595   -8.0944    4.2140 C   0  0  2  0  0  0  0  0  0  0  0  0
    3.4381   -6.5457    4.2587 C   0  0  0  0  0  0  0  0  0  0  0  0
    4.4292   -5.9465    3.2350 C   0  0  1  0  0  0  0  0  0  0  0  0
    5.2791   -7.1347    2.7884 C   0  0  1  0  0  0  0  0  0  0  0  0
    7.2254   -6.7315    2.6850 Br  0  0  0  0  0  0  0  0  0  0  0  0
    4.9346   -8.3838    3.5804 C   0  0  0  0  0  0  0  0  0  0  0  0
    4.6312   -7.0205    1.3916 C   0  0  0  0  0  0  0  0  0  0  0  0
    4.5646   -7.7708    0.4230 O   0  0  0  0  0  0  0  0  0  0  0  0
    4.0826   -5.6046    1.7308 C   0  0  1  0  0  0  0  0  0  0  0  0
    2.6099   -5.4856    1.3160 C   0  0  0  0  0  0  0  0  0  0  0  0
    1.6469   -5.9654    1.9091 O   0  0  0  0  0  0  0  0  0  0  0  0
    2.3577   -4.8067    0.1696 O   0  0  0  0  0  0  0  0  0  0  0  0
    3.3212   -4.0732   -0.5768 C   0  0  1  0  0  0  0  0  0  0  0  0
    3.2760   -2.5651   -0.2563 C   0  0  0  0  0  0  0  0  0  0  0  0
    4.7435   -2.0678   -0.3777 C   0  0  1  0  0  0  0  0  0  0  0  0
    4.7949   -0.7544   -1.1650 C   0  0  0  0  0  0  0  0  0  0  0  0
    5.6082   -2.0722    0.9333 C   0  0  2  0  0  0  0  0  0  0  0  0
    7.0515   -2.1471    0.4106 C   0  0  0  0  0  0  0  0  0  0  0  0
    6.9453   -2.9956   -0.8612 C   0  0  0  0  0  0  0  0  0  0  0  0
    5.4385   -3.2264   -1.0679 C   0  0  1  0  0  0  0  0  0  0  0  0
    4.7690   -4.3710   -0.3102 C   0  0  0  0  0  0  0  0  0  0  0  0
    4.9626   -4.5730    1.0064 C   0  0  0  0  0  0  0  0  0  0  0  0
    5.3770   -3.3406    1.8196 C   0  0  0  0  0  0  0  0  0  0  0  0
    2.3785   -8.4875    2.4024 H   0  0  0  0  0  0  0  0  0  0  0  0
    1.4412   -8.5349    3.8962 H   0  0  0  0  0  0  0  0  0  0  0  0
    2.5146   -9.8690    3.4805 H   0  0  0  0  0  0  0  0  0  0  0  0
    3.5383   -8.4930    5.2297 H   0  0  0  0  0  0  0  0  0  0  0  0
    2.4100   -6.2038    4.1706 H   0  0  0  0  0  0  0  0  0  0  0  0
    3.7422   -6.2236    5.2526 H   0  0  0  0  0  0  0  0  0  0  0  0
    5.0497   -5.1726    3.6877 H   0  0  0  0  0  0  0  0  0  0  0  0
    5.6599   -8.5090    4.3822 H   0  0  0  0  0  0  0  0  0  0  0  0
    4.9602   -9.2980    2.9882 H   0  0  0  0  0  0  0  0  0  0  0  0
    3.1344   -4.2182   -1.6369 H   0  0  0  0  0  0  0  0  0  0  0  0
    2.6191   -2.0724   -0.9758 H   0  0  0  0  0  0  0  0  0  0  0  0
    2.8827   -2.3474    0.7358 H   0  0  0  0  0  0  0  0  0  0  0  0
    5.8099   -0.4141   -1.3446 H   0  0  0  0  0  0  0  0  0  0  0  0
    4.2900    0.0332   -0.6093 H   0  0  0  0  0  0  0  0  0  0  0  0
    4.3196   -0.8428   -2.1426 H   0  0  0  0  0  0  0  0  0  0  0  0
    5.4633   -1.1688    1.5296 H   0  0  0  0  0  0  0  0  0  0  0  0
    7.4204   -1.1464    0.1758 H   0  0  0  0  0  0  0  0  0  0  0  0
    7.7557   -2.5829    1.1188 H   0  0  0  0  0  0  0  0  0  0  0  0
    7.3323   -2.4086   -1.6995 H   0  0  0  0  0  0  0  0  0  0  0  0
    7.5335   -3.9095   -0.8100 H   0  0  0  0  0  0  0  0  0  0  0  0
    5.1919   -3.2915   -2.1325 H   0  0  0  0  0  0  0  0  0  0  0  0
    6.2375   -3.5836    2.4400 H   0  0  0  0  0  0  0  0  0  0  0  0
    4.5572   -3.1126    2.5015 H   0  0  0  0  0  0  0  0  0  0  0  0
  1  2  1  0
  1 25  1  0
  1 26  1  0
  1 27  1  0
  2  7  1  0
  2  3  1  0
  2 28  1  1
  3  4  1  0
  3 29  1  0
  3 30  1  0
  4 10  1  0
  4  5  1  0
  4 31  1  1
  5  6  1  6
  5  7  1  0
  5  8  1  0
  7 32  1  0
  7 33  1  0
  8  9  2  0
 10  8  1  6
 10 23  1  0
 10 11  1  0
 11 12  2  0
 11 13  1  0
 13 14  1  0
 14 22  1  0
 14 15  1  0
 14 34  1  6
 15 16  1  0
 15 35  1  0
 15 36  1  0
 16 21  1  0
 16 17  1  6
 16 18  1  0
 17 37  1  0
 17 38  1  0
 17 39  1  0
 18 24  1  0
 18 19  1  0
 18 40  1  1
 19 20  1  0
 19 41  1  0
 19 42  1  0
 20 21  1  0
 20 43  1  0
 20 44  1  0
 21 22  1  0
 21 45  1  6
 22 23  2  0
 23 24  1  0
 24 46  1  0
 24 47  1  0
M  END
>  <i_m_ct_stereo_status>  (269) 
1

>  <s_m_source_file>  (269) 
/var/tmp/pbs.5076255.sched01/tmpq3cms3f1/82_sdm1vz9.sdf

>  <i_m_source_file_index>  (269) 
32

>  <i_lp_mmshare_version>  (269) 
48012

>  <i_f3d_flags>  (269) 
0

>  <s_epik_input>  (269) 
W0NIM11bQ0BIXShbQ0gyXTEpW0NIMl1bQ0BAXShCcikoQzI9TylbQ0BIXTFbQ0BAXTIzQzQ9QzVbQ0BASF0oT0MzPU8pW0NIMl1bQ0BAXTYoW0NIM10pW0NAQEhdKFtDSDJdNClbQ0gyXVtDSDJdW0NAQEhdNTY=

>  <s_epik_cmdline>  (269) 
J2VwaWtfcHl0aG9uJywgJy1waHQnLCAnMi4wJywgJy1waCcsICc3LjAnLCAnLXRuJywgJzgnLCAnLW1hJywgJzIwMCcsICctaW1hZScsICc8aW5maWxlLm1hZT4nLCAnLW9tYWUnLCAnPG91dGZpbGUubWFlPic=

>  <r_lp_tautomer_probability>  (269) 
1

>  <r_epik_Ionization_Penalty>  (269) 
0

>  <r_epik_Ionization_Penalty_Charging>  (269) 
0

>  <r_epik_Ionization_Penalty_Neutral>  (269) 
0

>  <r_epik_State_Penalty>  (269) 
-0

>  <r_epik_Charging_Adjusted_Penalty>  (269) 
0

>  <i_epik_Tot_Q>  (269) 
0

>  <i_epik_Tot_abs_Q>  (269) 
0

>  <s_epik_Chemistry_Notes>  (269) 
This compound has an ester and may undergo hydrolysis at high or low pH.

>  <s_lp_Force_Field>  (269) 
OPLS3e

>  <r_lp_Energy>  (269) 
102.87

>  <b_lp_Chiralities_Consistent>  (269) 
1

>  <s_lp_Variant>  (269) 
78:0-1

>  <s_i_glide_gridfile>  (269) 
pfpi4k_grid

>  <i_i_glide_lignum>  (269) 
32

>  <i_i_glide_rotatable_bonds>  (269) 
0

>  <r_i_docking_score>  (269) 
-2.78869

>  <r_i_glide_ligand_efficiency>  (269) 
-0.116195

>  <r_i_glide_ligand_efficiency_sa>  (269) 
-0.335166

>  <r_i_glide_ligand_efficiency_ln>  (269) 
-0.667462

>  <r_i_glide_gscore>  (269) 
-2.78869

>  <r_i_glide_lipo>  (269) 
-0.389109

>  <r_i_glide_hbond>  (269) 
0

>  <r_i_glide_metal>  (269) 
-0

>  <r_i_glide_rewards>  (269) 
-0.855993

>  <r_i_glide_evdw>  (269) 
-23.2191

>  <r_i_glide_ecoul>  (269) 
-2.41616

>  <r_i_glide_erotb>  (269) 
0

>  <r_i_glide_esite>  (269) 
-0.0202099

>  <r_i_glide_emodel>  (269) 
-29.8021

>  <r_i_glide_energy>  (269) 
-25.6353

>  <r_i_glide_einternal>  (269) 
0

>  <r_i_glide_intrahb_reward>  (269) 
-0

>  <i_i_glide_confnum>  (269) 
1

>  <i_i_glide_posenum>  (269) 
15

>  <r_i_glide_eff_state_penalty>  (269) 
0

>  <ligand_id>  (269) 
78

>  <original_smiles>  (269) 
CC1CC2C(Br)(C1)C(=O)C21C(=O)OC2CC3(C)C4CCC3C2=C1C4

>  <smiles>  (269) 
[H]C([H])([H])C1([H])C([H])([H])C2(Br)C(=O)C3(C(=O)OC4([H])C5=C3C([H])([H])C3([H])C([H])([H])C([H])([H])C5([H])C3(C([H])([H])[H])C4([H])[H])C2([H])C1([H])[H]

$$$$
78:0:1
     RDKit          3D

 47 52  0  0  1  0  0  0  0  0999 V2000
    3.1321  -10.0522    3.1731 C   0  0  0  0  0  0  0  0  0  0  0  0
    4.3228   -9.3734    3.8769 C   0  0  2  0  0  0  0  0  0  0  0  0
    4.0607   -7.8867    4.2441 C   0  0  0  0  0  0  0  0  0  0  0  0
    4.7980   -6.9897    3.2232 C   0  0  1  0  0  0  0  0  0  0  0  0
    5.6685   -7.9656    2.4278 C   0  0  1  0  0  0  0  0  0  0  0  0
    7.5166   -7.3070    2.1125 Br  0  0  0  0  0  0  0  0  0  0  0  0
    5.5877   -9.3679    2.9985 C   0  0  0  0  0  0  0  0  0  0  0  0
    4.7774   -7.6822    1.2038 C   0  0  0  0  0  0  0  0  0  0  0  0
    4.6039   -8.2499    0.1230 O   0  0  0  0  0  0  0  0  0  0  0  0
    4.1714   -6.4283    1.8926 C   0  0  1  0  0  0  0  0  0  0  0  0
    2.6420   -6.4255    1.7326 C   0  0  0  0  0  0  0  0  0  0  0  0
    1.8545   -7.1248    2.3495 O   0  0  0  0  0  0  0  0  0  0  0  0
    2.1372   -5.5834    0.7908 O   0  0  0  0  0  0  0  0  0  0  0  0
    2.8907   -4.6165    0.0612 C   0  0  1  0  0  0  0  0  0  0  0  0
    2.7546   -3.2013    0.6759 C   0  0  0  0  0  0  0  0  0  0  0  0
    4.1302   -2.5083    0.4446 C   0  0  1  0  0  0  0  0  0  0  0  0
    3.9483   -1.0640   -0.0669 C   0  0  0  0  0  0  0  0  0  0  0  0
    5.2036   -2.6452    1.5836 C   0  0  2  0  0  0  0  0  0  0  0  0
    6.5363   -2.4420    0.8426 C   0  0  0  0  0  0  0  0  0  0  0  0
    6.2931   -3.0631   -0.5378 C   0  0  0  0  0  0  0  0  0  0  0  0
    4.8032   -3.4361   -0.5580 C   0  0  1  0  0  0  0  0  0  0  0  0
    4.3822   -4.7699    0.0504 C   0  0  0  0  0  0  0  0  0  0  0  0
    4.8167   -5.1790    1.2548 C   0  0  0  0  0  0  0  0  0  0  0  0
    5.2462   -4.0735    2.2216 C   0  0  0  0  0  0  0  0  0  0  0  0
    2.8923   -9.5797    2.2178 H   0  0  0  0  0  0  0  0  0  0  0  0
    2.2337  -10.0184    3.7954 H   0  0  0  0  0  0  0  0  0  0  0  0
    3.3458  -11.1046    2.9627 H   0  0  0  0  0  0  0  0  0  0  0  0
    4.5121   -9.9478    4.7840 H   0  0  0  0  0  0  0  0  0  0  0  0
    3.0036   -7.6663    4.3791 H   0  0  0  0  0  0  0  0  0  0  0  0
    4.4978   -7.7124    5.2240 H   0  0  0  0  0  0  0  0  0  0  0  0
    5.4154   -6.2428    3.7182 H   0  0  0  0  0  0  0  0  0  0  0  0
    6.4475   -9.5392    3.6415 H   0  0  0  0  0  0  0  0  0  0  0  0
    5.6032  -10.1549    2.2418 H   0  0  0  0  0  0  0  0  0  0  0  0
    2.5395   -4.5990   -0.9646 H   0  0  0  0  0  0  0  0  0  0  0  0
    1.9383   -2.6764    0.1819 H   0  0  0  0  0  0  0  0  0  0  0  0
    2.5232   -3.2310    1.7404 H   0  0  0  0  0  0  0  0  0  0  0  0
    4.8880   -0.5782   -0.3285 H   0  0  0  0  0  0  0  0  0  0  0  0
    3.4578   -0.4422    0.6805 H   0  0  0  0  0  0  0  0  0  0  0  0
    3.3270   -1.0494   -0.9637 H   0  0  0  0  0  0  0  0  0  0  0  0
    5.0754   -1.8926    2.3609 H   0  0  0  0  0  0  0  0  0  0  0  0
    6.7549   -1.3779    0.7529 H   0  0  0  0  0  0  0  0  0  0  0  0
    7.3969   -2.8997    1.3334 H   0  0  0  0  0  0  0  0  0  0  0  0
    6.4702   -2.2873   -1.2846 H   0  0  0  0  0  0  0  0  0  0  0  0
    6.9602   -3.8954   -0.7633 H   0  0  0  0  0  0  0  0  0  0  0  0
    4.3817   -3.3376   -1.5648 H   0  0  0  0  0  0  0  0  0  0  0  0
    6.2220   -4.3123    2.6435 H   0  0  0  0  0  0  0  0  0  0  0  0
    4.5391   -4.0768    3.0542 H   0  0  0  0  0  0  0  0  0  0  0  0
  1  2  1  0
  1 25  1  0
  1 26  1  0
  1 27  1  0
  2  7  1  0
  2  3  1  0
  2 28  1  1
  3  4  1  0
  3 29  1  0
  3 30  1  0
  4 10  1  0
  4  5  1  0
  4 31  1  1
  5  6  1  6
  5  7  1  0
  5  8  1  0
  7 32  1  0
  7 33  1  0
  8  9  2  0
 10  8  1  6
 10 23  1  0
 10 11  1  0
 11 12  2  0
 11 13  1  0
 13 14  1  0
 14 22  1  0
 14 15  1  0
 14 34  1  6
 15 16  1  0
 15 35  1  0
 15 36  1  0
 16 21  1  0
 16 17  1  6
 16 18  1  0
 17 37  1  0
 17 38  1  0
 17 39  1  0
 18 24  1  0
 18 19  1  0
 18 40  1  1
 19 20  1  0
 19 41  1  0
 19 42  1  0
 20 21  1  0
 20 43  1  0
 20 44  1  0
 21 22  1  0
 21 45  1  6
 22 23  2  0
 23 24  1  0
 24 46  1  0
 24 47  1  0
M  END
>  <i_m_ct_stereo_status>  (270) 
1

>  <s_m_source_file>  (270) 
/var/tmp/pbs.5076255.sched01/tmpq3cms3f1/82_sdm1vz9.sdf

>  <i_m_source_file_index>  (270) 
32

>  <i_lp_mmshare_version>  (270) 
48012

>  <i_f3d_flags>  (270) 
0

>  <s_epik_input>  (270) 
W0NIM11bQ0BIXShbQ0gyXTEpW0NIMl1bQ0BAXShCcikoQzI9TylbQ0BIXTFbQ0BAXTIzQzQ9QzVbQ0BASF0oT0MzPU8pW0NIMl1bQ0BAXTYoW0NIM10pW0NAQEhdKFtDSDJdNClbQ0gyXVtDSDJdW0NAQEhdNTY=

>  <s_epik_cmdline>  (270) 
J2VwaWtfcHl0aG9uJywgJy1waHQnLCAnMi4wJywgJy1waCcsICc3LjAnLCAnLXRuJywgJzgnLCAnLW1hJywgJzIwMCcsICctaW1hZScsICc8aW5maWxlLm1hZT4nLCAnLW9tYWUnLCAnPG91dGZpbGUubWFlPic=

>  <r_lp_tautomer_probability>  (270) 
1

>  <r_epik_Ionization_Penalty>  (270) 
0

>  <r_epik_Ionization_Penalty_Charging>  (270) 
0

>  <r_epik_Ionization_Penalty_Neutral>  (270) 
0

>  <r_epik_State_Penalty>  (270) 
-0

>  <r_epik_Charging_Adjusted_Penalty>  (270) 
0

>  <i_epik_Tot_Q>  (270) 
0

>  <i_epik_Tot_abs_Q>  (270) 
0

>  <s_epik_Chemistry_Notes>  (270) 
This compound has an ester and may undergo hydrolysis at high or low pH.

>  <s_lp_Force_Field>  (270) 
OPLS3e

>  <r_lp_Energy>  (270) 
102.87

>  <b_lp_Chiralities_Consistent>  (270) 
1

>  <s_lp_Variant>  (270) 
78:0-1

>  <s_i_glide_gridfile>  (270) 
pfpi4k_grid

>  <i_i_glide_lignum>  (270) 
32

>  <i_i_glide_rotatable_bonds>  (270) 
0

>  <r_i_docking_score>  (270) 
-2.78496

>  <r_i_glide_ligand_efficiency>  (270) 
-0.11604

>  <r_i_glide_ligand_efficiency_sa>  (270) 
-0.334717

>  <r_i_glide_ligand_efficiency_ln>  (270) 
-0.666568

>  <r_i_glide_gscore>  (270) 
-2.78496

>  <r_i_glide_lipo>  (270) 
-0.349785

>  <r_i_glide_hbond>  (270) 
-0.0106722

>  <r_i_glide_metal>  (270) 
-0

>  <r_i_glide_rewards>  (270) 
-0.827815

>  <r_i_glide_evdw>  (270) 
-24.9226

>  <r_i_glide_ecoul>  (270) 
-2.31277

>  <r_i_glide_erotb>  (270) 
0

>  <r_i_glide_esite>  (270) 
-0.00363698

>  <r_i_glide_emodel>  (270) 
-31.4085

>  <r_i_glide_energy>  (270) 
-27.2354

>  <r_i_glide_einternal>  (270) 
0

>  <r_i_glide_intrahb_reward>  (270) 
-0

>  <i_i_glide_confnum>  (270) 
2

>  <i_i_glide_posenum>  (270) 
36

>  <r_i_glide_eff_state_penalty>  (270) 
0

>  <ligand_id>  (270) 
78

>  <original_smiles>  (270) 
CC1CC2C(Br)(C1)C(=O)C21C(=O)OC2CC3(C)C4CCC3C2=C1C4

>  <smiles>  (270) 
[H]C([H])([H])C1([H])C([H])([H])C2(Br)C(=O)C3(C(=O)OC4([H])C5=C3C([H])([H])C3([H])C([H])([H])C([H])([H])C5([H])C3(C([H])([H])[H])C4([H])[H])C2([H])C1([H])[H]

$$$$
78:0:2
     RDKit          3D

 47 52  0  0  1  0  0  0  0  0999 V2000
    2.1446   -2.8563    6.5244 C   0  0  0  0  0  0  0  0  0  0  0  0
    2.5323   -1.4487    6.0342 C   0  0  2  0  0  0  0  0  0  0  0  0
    1.9199   -1.0860    4.6518 C   0  0  0  0  0  0  0  0  0  0  0  0
    3.0231   -1.2200    3.5770 C   0  0  1  0  0  0  0  0  0  0  0  0
    4.3184   -1.4094    4.3667 C   0  0  1  0  0  0  0  0  0  0  0  0
    5.7949   -0.2555    3.6742 Br  0  0  0  0  0  0  0  0  0  0  0  0
    4.0577   -1.2903    5.8623 C   0  0  0  0  0  0  0  0  0  0  0  0
    4.3860   -2.8547    3.8161 C   0  0  0  0  0  0  0  0  0  0  0  0
    4.9948   -3.8730    4.1365 O   0  0  0  0  0  0  0  0  0  0  0  0
    3.3303   -2.5164    2.7295 C   0  0  1  0  0  0  0  0  0  0  0  0
    2.2696   -3.6158    2.6733 C   0  0  0  0  0  0  0  0  0  0  0  0
    1.3640   -3.7795    3.4867 O   0  0  0  0  0  0  0  0  0  0  0  0
    2.3758   -4.5089    1.6462 O   0  0  0  0  0  0  0  0  0  0  0  0
    3.2847   -4.3984    0.5513 C   0  0  1  0  0  0  0  0  0  0  0  0
    2.6171   -3.7647   -0.6976 C   0  0  0  0  0  0  0  0  0  0  0  0
    3.7359   -2.9412   -1.4058 C   0  0  1  0  0  0  0  0  0  0  0  0
    3.7496   -3.1649   -2.9349 C   0  0  0  0  0  0  0  0  0  0  0  0
    3.8545   -1.4328   -1.0024 C   0  0  2  0  0  0  0  0  0  0  0  0
    5.3137   -1.0918   -1.3191 C   0  0  0  0  0  0  0  0  0  0  0  0
    6.0791   -2.3830   -1.0177 C   0  0  0  0  0  0  0  0  0  0  0  0
    4.9953   -3.4246   -0.7007 C   0  0  1  0  0  0  0  0  0  0  0  0
    4.4518   -3.4721    0.7252 C   0  0  0  0  0  0  0  0  0  0  0  0
    4.0746   -2.3661    1.3927 C   0  0  0  0  0  0  0  0  0  0  0  0
    3.6720   -1.1667    0.5257 C   0  0  0  0  0  0  0  0  0  0  0  0
    2.5103   -3.6357    5.8540 H   0  0  0  0  0  0  0  0  0  0  0  0
    1.0611   -2.9632    6.5992 H   0  0  0  0  0  0  0  0  0  0  0  0
    2.5666   -3.0574    7.5120 H   0  0  0  0  0  0  0  0  0  0  0  0
    2.1768   -0.7463    6.7908 H   0  0  0  0  0  0  0  0  0  0  0  0
    0.9938   -1.6202    4.4436 H   0  0  0  0  0  0  0  0  0  0  0  0
    1.6191   -0.0399    4.6952 H   0  0  0  0  0  0  0  0  0  0  0  0
    3.0890   -0.3268    2.9606 H   0  0  0  0  0  0  0  0  0  0  0  0
    4.3319   -0.2897    6.1913 H   0  0  0  0  0  0  0  0  0  0  0  0
    4.6405   -1.9842    6.4737 H   0  0  0  0  0  0  0  0  0  0  0  0
    3.6691   -5.3824    0.3072 H   0  0  0  0  0  0  0  0  0  0  0  0
    2.1801   -4.5396   -1.3249 H   0  0  0  0  0  0  0  0  0  0  0  0
    1.8078   -3.0891   -0.4367 H   0  0  0  0  0  0  0  0  0  0  0  0
    4.5756   -2.6634   -3.4355 H   0  0  0  0  0  0  0  0  0  0  0  0
    2.8228   -2.8170   -3.3896 H   0  0  0  0  0  0  0  0  0  0  0  0
    3.8563   -4.2235   -3.1715 H   0  0  0  0  0  0  0  0  0  0  0  0
    3.1712   -0.8079   -1.5784 H   0  0  0  0  0  0  0  0  0  0  0  0
    5.4097   -0.8243   -2.3712 H   0  0  0  0  0  0  0  0  0  0  0  0
    5.6989   -0.2534   -0.7376 H   0  0  0  0  0  0  0  0  0  0  0  0
    6.5944   -2.6843   -1.9305 H   0  0  0  0  0  0  0  0  0  0  0  0
    6.8245   -2.2735   -0.2286 H   0  0  0  0  0  0  0  0  0  0  0  0
    5.2913   -4.4288   -1.0224 H   0  0  0  0  0  0  0  0  0  0  0  0
    4.1832   -0.2631    0.8606 H   0  0  0  0  0  0  0  0  0  0  0  0
    2.6106   -0.9935    0.6951 H   0  0  0  0  0  0  0  0  0  0  0  0
  1  2  1  0
  1 25  1  0
  1 26  1  0
  1 27  1  0
  2  7  1  0
  2  3  1  0
  2 28  1  1
  3  4  1  0
  3 29  1  0
  3 30  1  0
  4 10  1  0
  4  5  1  0
  4 31  1  6
  5  6  1  6
  5  7  1  0
  5  8  1  0
  7 32  1  0
  7 33  1  0
  8  9  2  0
 10  8  1  1
 10 23  1  0
 10 11  1  0
 11 12  2  0
 11 13  1  0
 13 14  1  0
 14 22  1  0
 14 15  1  0
 14 34  1  6
 15 16  1  0
 15 35  1  0
 15 36  1  0
 16 21  1  0
 16 17  1  6
 16 18  1  0
 17 37  1  0
 17 38  1  0
 17 39  1  0
 18 24  1  0
 18 19  1  0
 18 40  1  6
 19 20  1  0
 19 41  1  0
 19 42  1  0
 20 21  1  0
 20 43  1  0
 20 44  1  0
 21 22  1  0
 21 45  1  6
 22 23  2  0
 23 24  1  0
 24 46  1  0
 24 47  1  0
M  END
>  <i_m_ct_stereo_status>  (271) 
1

>  <s_m_source_file>  (271) 
/var/tmp/pbs.5076255.sched01/tmpq3cms3f1/82_sdm1vz9.sdf

>  <i_m_source_file_index>  (271) 
32

>  <i_lp_mmshare_version>  (271) 
48012

>  <i_f3d_flags>  (271) 
0

>  <s_epik_input>  (271) 
W0NIM11bQ0BIXShbQ0gyXTEpW0NIMl1bQ0BAXShCcikoQzI9TylbQ0BIXTFbQ0BAXTIzQzQ9QzVbQ0BASF0oT0MzPU8pW0NIMl1bQ0BAXTYoW0NIM10pW0NAQEhdKFtDSDJdNClbQ0gyXVtDSDJdW0NAQEhdNTY=

>  <s_epik_cmdline>  (271) 
J2VwaWtfcHl0aG9uJywgJy1waHQnLCAnMi4wJywgJy1waCcsICc3LjAnLCAnLXRuJywgJzgnLCAnLW1hJywgJzIwMCcsICctaW1hZScsICc8aW5maWxlLm1hZT4nLCAnLW9tYWUnLCAnPG91dGZpbGUubWFlPic=

>  <r_lp_tautomer_probability>  (271) 
1

>  <r_epik_Ionization_Penalty>  (271) 
0

>  <r_epik_Ionization_Penalty_Charging>  (271) 
0

>  <r_epik_Ionization_Penalty_Neutral>  (271) 
0

>  <r_epik_State_Penalty>  (271) 
-0

>  <r_epik_Charging_Adjusted_Penalty>  (271) 
0

>  <i_epik_Tot_Q>  (271) 
0

>  <i_epik_Tot_abs_Q>  (271) 
0

>  <s_epik_Chemistry_Notes>  (271) 
This compound has an ester and may undergo hydrolysis at high or low pH.

>  <s_lp_Force_Field>  (271) 
OPLS3e

>  <r_lp_Energy>  (271) 
102.87

>  <b_lp_Chiralities_Consistent>  (271) 
1

>  <s_lp_Variant>  (271) 
78:0-1

>  <s_i_glide_gridfile>  (271) 
pfpi4k_grid

>  <i_i_glide_lignum>  (271) 
32

>  <i_i_glide_rotatable_bonds>  (271) 
0

>  <r_i_docking_score>  (271) 
-2.16425

>  <r_i_glide_ligand_efficiency>  (271) 
-0.090177

>  <r_i_glide_ligand_efficiency_sa>  (271) 
-0.260116

>  <r_i_glide_ligand_efficiency_ln>  (271) 
-0.518004

>  <r_i_glide_gscore>  (271) 
-2.16425

>  <r_i_glide_lipo>  (271) 
-0.204041

>  <r_i_glide_hbond>  (271) 
0

>  <r_i_glide_metal>  (271) 
-0

>  <r_i_glide_rewards>  (271) 
-0.759758

>  <r_i_glide_evdw>  (271) 
-21.8421

>  <r_i_glide_ecoul>  (271) 
-0.698256

>  <r_i_glide_erotb>  (271) 
0

>  <r_i_glide_esite>  (271) 
-0.0036065

>  <r_i_glide_emodel>  (271) 
-25.6256

>  <r_i_glide_energy>  (271) 
-22.5404

>  <r_i_glide_einternal>  (271) 
0

>  <r_i_glide_intrahb_reward>  (271) 
-0

>  <i_i_glide_confnum>  (271) 
2

>  <i_i_glide_posenum>  (271) 
3

>  <r_i_glide_eff_state_penalty>  (271) 
0

>  <ligand_id>  (271) 
78

>  <original_smiles>  (271) 
CC1CC2C(Br)(C1)C(=O)C21C(=O)OC2CC3(C)C4CCC3C2=C1C4

>  <smiles>  (271) 
[H]C([H])([H])C1([H])C([H])([H])C2(Br)C(=O)C3(C(=O)OC4([H])C5=C3C([H])([H])C3([H])C([H])([H])C([H])([H])C5([H])C3(C([H])([H])[H])C4([H])[H])C2([H])C1([H])[H]

$$$$
79:0:0
     RDKit          3D

 56 60  0  0  1  0  0  0  0  0999 V2000
    4.2227   -8.4929    1.2886 C   0  0  0  0  0  0  0  0  0  0  0  0
    4.5398   -7.6226    2.5126 C   0  0  2  0  0  0  0  0  0  0  0  0
    3.3170   -7.2195    3.3414 C   0  0  0  0  0  0  0  0  0  0  0  0
    3.6996   -5.9142    4.0573 C   0  0  0  0  0  0  0  0  0  0  0  0
    5.0231   -5.4340    3.4299 C   0  0  1  0  0  0  0  0  0  0  0  0
    5.2298   -6.2950    2.1942 C   0  0  2  0  0  0  0  0  0  0  0  0
    4.5600   -5.5877    1.1560 O   0  0  0  0  0  0  0  0  0  0  0  0
    4.5129   -4.1784    1.3981 C   0  0  1  0  0  0  0  0  0  0  0  0
    5.3159   -3.4130    0.3227 C   0  0  1  0  0  0  0  0  0  0  0  0
    4.8408   -3.8367   -1.0817 C   0  0  0  0  0  0  0  0  0  0  0  0
    3.3674   -3.4715   -1.3134 C   0  0  0  0  0  0  0  0  0  0  0  0
    2.4523   -3.8641   -0.1370 C   0  0  1  0  0  0  0  0  0  0  0  0
    1.8218   -5.2680   -0.2918 C   0  0  0  0  0  0  0  0  0  0  0  0
    3.0596   -3.6975    1.2807 C   0  0  2  0  0  0  0  0  0  0  0  0
    2.9887   -2.3107    1.7885 N   0  0  1  0  0  0  0  0  0  0  0  0
    3.1509   -2.3078    3.2630 C   0  0  0  0  0  0  0  0  0  0  0  0
    4.5097   -2.8714    3.7104 C   0  0  0  0  0  0  0  0  0  0  0  0
    5.0703   -4.0297    2.8372 C   0  0  1  0  0  0  0  0  0  0  0  0
    3.8137   -1.3323    1.0181 C   0  0  1  0  0  0  0  0  0  0  0  0
    3.8157    0.0799    1.6286 C   0  0  0  0  0  0  0  0  0  0  0  0
    5.2068   -1.8703    0.5079 C   0  0  1  0  0  0  0  0  0  0  0  0
    6.4535   -1.3136    1.2070 C   0  0  0  0  0  0  0  0  0  0  0  0
    3.5414   -7.9834    0.6118 H   0  0  0  0  0  0  0  0  0  0  0  0
    3.7533   -9.4321    1.5829 H   0  0  0  0  0  0  0  0  0  0  0  0
    5.1250   -8.7373    0.7283 H   0  0  0  0  0  0  0  0  0  0  0  0
    5.2085   -8.1836    3.1654 H   0  0  0  0  0  0  0  0  0  0  0  0
    2.4626   -7.0416    2.6871 H   0  0  0  0  0  0  0  0  0  0  0  0
    3.0351   -8.0023    4.0465 H   0  0  0  0  0  0  0  0  0  0  0  0
    2.8978   -5.1867    3.9548 H   0  0  0  0  0  0  0  0  0  0  0  0
    3.8397   -6.0833    5.1259 H   0  0  0  0  0  0  0  0  0  0  0  0
    5.8359   -5.5890    4.1421 H   0  0  0  0  0  0  0  0  0  0  0  0
    6.2844   -6.4092    1.9404 H   0  0  0  0  0  0  0  0  0  0  0  0
    6.3644   -3.7151    0.3891 H   0  0  0  0  0  0  0  0  0  0  0  0
    5.4563   -3.3752   -1.8551 H   0  0  0  0  0  0  0  0  0  0  0  0
    4.9756   -4.9134   -1.2047 H   0  0  0  0  0  0  0  0  0  0  0  0
    3.2635   -2.4151   -1.5599 H   0  0  0  0  0  0  0  0  0  0  0  0
    3.0089   -3.9577   -2.2141 H   0  0  0  0  0  0  0  0  0  0  0  0
    1.6211   -3.1735   -0.2383 H   0  0  0  0  0  0  0  0  0  0  0  0
    2.5746   -6.0642   -0.2943 H   0  0  0  0  0  0  0  0  0  0  0  0
    1.2492   -5.3270   -1.2101 H   0  0  0  0  0  0  0  0  0  0  0  0
    1.1352   -5.5009    0.5156 H   0  0  0  0  0  0  0  0  0  0  0  0
    2.4457   -4.2991    1.9458 H   0  0  0  0  0  0  0  0  0  0  0  0
    3.0015   -1.3163    3.6873 H   0  0  0  0  0  0  0  0  0  0  0  0
    2.3599   -2.9160    3.7015 H   0  0  0  0  0  0  0  0  0  0  0  0
    5.2217   -2.0495    3.7405 H   0  0  0  0  0  0  0  0  0  0  0  0
    4.4320   -3.1943    4.7485 H   0  0  0  0  0  0  0  0  0  0  0  0
    6.1404   -3.8390    2.7321 H   0  0  0  0  0  0  0  0  0  0  0  0
    3.2165   -1.1837    0.1221 H   0  0  0  0  0  0  0  0  0  0  0  0
    4.2244    0.8002    0.9160 H   0  0  0  0  0  0  0  0  0  0  0  0
    4.4079    0.1386    2.5449 H   0  0  0  0  0  0  0  0  0  0  0  0
    2.8037    0.4120    1.8618 H   0  0  0  0  0  0  0  0  0  0  0  0
    5.3061   -1.4356   -0.4876 H   0  0  0  0  0  0  0  0  0  0  0  0
    6.5643   -1.6139    2.2448 H   0  0  0  0  0  0  0  0  0  0  0  0
    6.4285   -0.2334    1.1742 H   0  0  0  0  0  0  0  0  0  0  0  0
    7.3648   -1.6208    0.6872 H   0  0  0  0  0  0  0  0  0  0  0  0
    2.0392   -1.9999    1.6341 H   0  0  0  0  0  0  0  0  0  0  0  0
  1  2  1  0
  1 23  1  0
  1 24  1  0
  1 25  1  0
  2  6  1  0
  2  3  1  0
  2 26  1  1
  3  4  1  0
  3 27  1  0
  3 28  1  0
  4  5  1  0
  4 29  1  0
  4 30  1  0
  5 18  1  0
  5  6  1  0
  5 31  1  1
  6  7  1  0
  6 32  1  6
  8  7  1  6
  8 14  1  0
  8 18  1  0
  8  9  1  0
  9 21  1  0
  9 10  1  0
  9 33  1  6
 10 11  1  0
 10 34  1  0
 10 35  1  0
 11 12  1  0
 11 36  1  0
 11 37  1  0
 12 13  1  0
 12 14  1  0
 12 38  1  1
 13 39  1  0
 13 40  1  0
 13 41  1  0
 14 15  1  0
 14 42  1  1
 15 16  1  0
 15 19  1  0
 15 56  1  1
 16 17  1  0
 16 43  1  0
 16 44  1  0
 17 18  1  0
 17 45  1  0
 17 46  1  0
 18 47  1  6
 19 20  1  0
 19 21  1  0
 19 48  1  6
 20 49  1  0
 20 50  1  0
 20 51  1  0
 21 22  1  0
 21 52  1  6
 22 53  1  0
 22 54  1  0
 22 55  1  0
M  CHG  1  15   1
M  END
>  <i_m_ct_stereo_status>  (272) 
1

>  <s_m_source_file>  (272) 
/var/tmp/pbs.5076255.sched01/tmpq3cms3f1/82_sdm1vz9.sdf

>  <i_m_source_file_index>  (272) 
33

>  <i_lp_mmshare_version>  (272) 
48012

>  <i_f3d_flags>  (272) 
0

>  <s_epik_input>  (272) 
W0NIMl0xW0NIMl1bQ0BASF0oW0NIM10pW0NAQEhdKE8yKVtDQEhdMVtDQEBIXTNbQ0gyXVtDSDJdTihbQ0BASF0oW0NIM10pW0NASF00W0NIM10pW0NASF01W0NASF0oW0NIM10pW0NIMl1bQ0gyXVtDQEBIXTRbQ0BAXTIzNQ==

>  <s_epik_cmdline>  (272) 
J2VwaWtfcHl0aG9uJywgJy1waHQnLCAnMi4wJywgJy1waCcsICc3LjAnLCAnLXRuJywgJzgnLCAnLW1hJywgJzIwMCcsICctaW1hZScsICc8aW5maWxlLm1hZT4nLCAnLW9tYWUnLCAnPG91dGZpbGUubWFlPic=

>  <r_epik_Ionization_Penalty>  (272) 
0.000474933

>  <r_epik_Ionization_Penalty_Charging>  (272) 
0.000474933

>  <r_epik_Ionization_Penalty_Neutral>  (272) 
1.33005e-13

>  <r_epik_State_Penalty>  (272) 
0.00029446

>  <r_epik_Charging_Adjusted_Penalty>  (272) 
0.000769392

>  <i_epik_Tot_Q>  (272) 
1

>  <i_epik_Tot_abs_Q>  (272) 
1

>  <s_lp_Force_Field>  (272) 
OPLS3e

>  <r_lp_Energy>  (272) 
51.7923

>  <b_lp_Chiralities_Consistent>  (272) 
1

>  <s_lp_Variant>  (272) 
79:0-1

>  <s_i_glide_gridfile>  (272) 
pfpi4k_grid

>  <i_i_glide_lignum>  (272) 
33

>  <i_i_glide_rotatable_bonds>  (272) 
0

>  <r_i_docking_score>  (272) 
-2.79566

>  <r_i_glide_ligand_efficiency>  (272) 
-0.127075

>  <r_i_glide_ligand_efficiency_sa>  (272) 
-0.35607

>  <r_i_glide_ligand_efficiency_ln>  (272) 
-0.683361

>  <r_i_glide_gscore>  (272) 
-2.79566

>  <r_i_glide_lipo>  (272) 
-0.373738

>  <r_i_glide_hbond>  (272) 
0

>  <r_i_glide_metal>  (272) 
-0

>  <r_i_glide_rewards>  (272) 
-1.33302

>  <r_i_glide_evdw>  (272) 
-15.2603

>  <r_i_glide_ecoul>  (272) 
-2.08658

>  <r_i_glide_erotb>  (272) 
0

>  <r_i_glide_esite>  (272) 
-0.0128998

>  <r_i_glide_emodel>  (272) 
-19.6685

>  <r_i_glide_energy>  (272) 
-17.3468

>  <r_i_glide_einternal>  (272) 
0

>  <r_i_glide_intrahb_reward>  (272) 
-0

>  <i_i_glide_confnum>  (272) 
1

>  <i_i_glide_posenum>  (272) 
8

>  <r_i_glide_eff_state_penalty>  (272) 
0

>  <ligand_id>  (272) 
79

>  <original_smiles>  (272) 
CC1CCC2C1OC13C4CCC(C)C1N(CCC23)C(C)C4C

>  <smiles>  (272) 
[H]C([H])([H])C1([H])C([H])([H])C([H])([H])C2([H])C1([H])OC13C2([H])C([H])([H])C([H])([H])[N+]2([H])C([H])(C([H])([H])[H])C([H])(C([H])([H])[H])C1([H])C([H])([H])C([H])([H])C([H])(C([H])([H])[H])C32[H]

$$$$
79:0:1
     RDKit          3D

 56 60  0  0  1  0  0  0  0  0999 V2000
    4.2301   -2.3193   -1.3207 C   0  0  0  0  0  0  0  0  0  0  0  0
    4.0704   -3.5857   -0.4663 C   0  0  2  0  0  0  0  0  0  0  0  0
    2.6172   -3.9958   -0.2144 C   0  0  0  0  0  0  0  0  0  0  0  0
    2.6228   -4.7962    1.0980 C   0  0  0  0  0  0  0  0  0  0  0  0
    4.0159   -4.6042    1.7307 C   0  0  1  0  0  0  0  0  0  0  0  0
    4.6800   -3.4924    0.9341 C   0  0  2  0  0  0  0  0  0  0  0  0
    4.2870   -2.2968    1.6035 O   0  0  0  0  0  0  0  0  0  0  0  0
    4.0026   -2.5141    2.9895 C   0  0  1  0  0  0  0  0  0  0  0  0
    5.0001   -1.7401    3.8709 C   0  0  1  0  0  0  0  0  0  0  0  0
    5.0345   -0.2601    3.4324 C   0  0  0  0  0  0  0  0  0  0  0  0
    3.6750    0.4335    3.6033 C   0  0  0  0  0  0  0  0  0  0  0  0
    2.4608   -0.4047    3.1279 C   0  0  1  0  0  0  0  0  0  0  0  0
    2.0803   -0.0349    1.6844 C   0  0  0  0  0  0  0  0  0  0  0  0
    2.6094   -1.9508    3.3124 C   0  0  2  0  0  0  0  0  0  0  0  0
    2.2482   -2.4201    4.6764 N   0  0  1  0  0  0  0  0  0  0  0  0
    1.9553   -3.8795    4.6485 C   0  0  0  0  0  0  0  0  0  0  0  0
    3.1647   -4.7206    4.2092 C   0  0  0  0  0  0  0  0  0  0  0  0
    4.0907   -4.0580    3.1511 C   0  0  1  0  0  0  0  0  0  0  0  0
    3.1650   -1.9371    5.7657 C   0  0  1  0  0  0  0  0  0  0  0  0
    2.8334   -2.5237    7.1543 C   0  0  0  0  0  0  0  0  0  0  0  0
    4.6949   -1.8904    5.3990 C   0  0  1  0  0  0  0  0  0  0  0  0
    5.5940   -2.9442    6.0835 C   0  0  0  0  0  0  0  0  0  0  0  0
    3.7338   -1.4615   -0.8665 H   0  0  0  0  0  0  0  0  0  0  0  0
    3.7946   -2.4608   -2.3100 H   0  0  0  0  0  0  0  0  0  0  0  0
    5.2820   -2.0650   -1.4531 H   0  0  0  0  0  0  0  0  0  0  0  0
    4.5616   -4.4116   -0.9830 H   0  0  0  0  0  0  0  0  0  0  0  0
    1.9977   -3.1052   -0.1061 H   0  0  0  0  0  0  0  0  0  0  0  0
    2.2129   -4.5774   -1.0433 H   0  0  0  0  0  0  0  0  0  0  0  0
    1.8198   -4.4551    1.7477 H   0  0  0  0  0  0  0  0  0  0  0  0
    2.4490   -5.8563    0.9075 H   0  0  0  0  0  0  0  0  0  0  0  0
    4.5833   -5.5332    1.6336 H   0  0  0  0  0  0  0  0  0  0  0  0
    5.7674   -3.5761    0.9353 H   0  0  0  0  0  0  0  0  0  0  0  0
    5.9849   -2.1440    3.6546 H   0  0  0  0  0  0  0  0  0  0  0  0
    5.7983    0.2870    3.9884 H   0  0  0  0  0  0  0  0  0  0  0  0
    5.3442   -0.1982    2.3873 H   0  0  0  0  0  0  0  0  0  0  0  0
    3.5514    0.7195    4.6473 H   0  0  0  0  0  0  0  0  0  0  0  0
    3.6956    1.3839    3.0657 H   0  0  0  0  0  0  0  0  0  0  0  0
    1.6053   -0.0819    3.7216 H   0  0  0  0  0  0  0  0  0  0  0  0
    2.8757   -0.2533    0.9718 H   0  0  0  0  0  0  0  0  0  0  0  0
    1.8387    1.0260    1.5956 H   0  0  0  0  0  0  0  0  0  0  0  0
    1.1915   -0.5798    1.3659 H   0  0  0  0  0  0  0  0  0  0  0  0
    1.8899   -2.3992    2.6301 H   0  0  0  0  0  0  0  0  0  0  0  0
    1.5809   -4.2318    5.6087 H   0  0  0  0  0  0  0  0  0  0  0  0
    1.1328   -4.0482    3.9521 H   0  0  0  0  0  0  0  0  0  0  0  0
    3.7377   -4.9609    5.1008 H   0  0  0  0  0  0  0  0  0  0  0  0
    2.8225   -5.6919    3.8528 H   0  0  0  0  0  0  0  0  0  0  0  0
    5.1125   -4.2906    3.4578 H   0  0  0  0  0  0  0  0  0  0  0  0
    2.8672   -0.8975    5.8723 H   0  0  0  0  0  0  0  0  0  0  0  0
    3.3687   -1.9846    7.9373 H   0  0  0  0  0  0  0  0  0  0  0  0
    3.1031   -3.5766    7.2382 H   0  0  0  0  0  0  0  0  0  0  0  0
    1.7702   -2.4311    7.3745 H   0  0  0  0  0  0  0  0  0  0  0  0
    5.0530   -0.9702    5.8647 H   0  0  0  0  0  0  0  0  0  0  0  0
    5.4284   -3.9604    5.7431 H   0  0  0  0  0  0  0  0  0  0  0  0
    5.4870   -2.9300    7.1708 H   0  0  0  0  0  0  0  0  0  0  0  0
    6.6423   -2.7249    5.8868 H   0  0  0  0  0  0  0  0  0  0  0  0
    1.3574   -1.9908    4.8837 H   0  0  0  0  0  0  0  0  0  0  0  0
  1  2  1  0
  1 23  1  0
  1 24  1  0
  1 25  1  0
  2  6  1  0
  2  3  1  0
  2 26  1  6
  3  4  1  0
  3 27  1  0
  3 28  1  0
  4  5  1  0
  4 29  1  0
  4 30  1  0
  5 18  1  0
  5  6  1  0
  5 31  1  1
  6  7  1  0
  6 32  1  6
  8  7  1  6
  8 14  1  0
  8 18  1  0
  8  9  1  0
  9 21  1  0
  9 10  1  0
  9 33  1  1
 10 11  1  0
 10 34  1  0
 10 35  1  0
 11 12  1  0
 11 36  1  0
 11 37  1  0
 12 13  1  0
 12 14  1  0
 12 38  1  1
 13 39  1  0
 13 40  1  0
 13 41  1  0
 14 15  1  0
 14 42  1  6
 15 16  1  0
 15 19  1  0
 15 56  1  1
 16 17  1  0
 16 43  1  0
 16 44  1  0
 17 18  1  0
 17 45  1  0
 17 46  1  0
 18 47  1  1
 19 20  1  0
 19 21  1  0
 19 48  1  1
 20 49  1  0
 20 50  1  0
 20 51  1  0
 21 22  1  0
 21 52  1  1
 22 53  1  0
 22 54  1  0
 22 55  1  0
M  CHG  1  15   1
M  END
>  <i_m_ct_stereo_status>  (273) 
1

>  <s_m_source_file>  (273) 
/var/tmp/pbs.5076255.sched01/tmpq3cms3f1/82_sdm1vz9.sdf

>  <i_m_source_file_index>  (273) 
33

>  <i_lp_mmshare_version>  (273) 
48012

>  <i_f3d_flags>  (273) 
0

>  <s_epik_input>  (273) 
W0NIMl0xW0NIMl1bQ0BASF0oW0NIM10pW0NAQEhdKE8yKVtDQEhdMVtDQEBIXTNbQ0gyXVtDSDJdTihbQ0BASF0oW0NIM10pW0NASF00W0NIM10pW0NASF01W0NASF0oW0NIM10pW0NIMl1bQ0gyXVtDQEBIXTRbQ0BAXTIzNQ==

>  <s_epik_cmdline>  (273) 
J2VwaWtfcHl0aG9uJywgJy1waHQnLCAnMi4wJywgJy1waCcsICc3LjAnLCAnLXRuJywgJzgnLCAnLW1hJywgJzIwMCcsICctaW1hZScsICc8aW5maWxlLm1hZT4nLCAnLW9tYWUnLCAnPG91dGZpbGUubWFlPic=

>  <r_epik_Ionization_Penalty>  (273) 
0.000474933

>  <r_epik_Ionization_Penalty_Charging>  (273) 
0.000474933

>  <r_epik_Ionization_Penalty_Neutral>  (273) 
1.33005e-13

>  <r_epik_State_Penalty>  (273) 
0.00029446

>  <r_epik_Charging_Adjusted_Penalty>  (273) 
0.000769392

>  <i_epik_Tot_Q>  (273) 
1

>  <i_epik_Tot_abs_Q>  (273) 
1

>  <s_lp_Force_Field>  (273) 
OPLS3e

>  <r_lp_Energy>  (273) 
51.7923

>  <b_lp_Chiralities_Consistent>  (273) 
1

>  <s_lp_Variant>  (273) 
79:0-1

>  <s_i_glide_gridfile>  (273) 
pfpi4k_grid

>  <i_i_glide_lignum>  (273) 
33

>  <i_i_glide_rotatable_bonds>  (273) 
0

>  <r_i_docking_score>  (273) 
-2.65158

>  <r_i_glide_ligand_efficiency>  (273) 
-0.120526

>  <r_i_glide_ligand_efficiency_sa>  (273) 
-0.33772

>  <r_i_glide_ligand_efficiency_ln>  (273) 
-0.648143

>  <r_i_glide_gscore>  (273) 
-2.65158

>  <r_i_glide_lipo>  (273) 
-0.273864

>  <r_i_glide_hbond>  (273) 
0

>  <r_i_glide_metal>  (273) 
-0

>  <r_i_glide_rewards>  (273) 
-1.33302

>  <r_i_glide_evdw>  (273) 
-16.0198

>  <r_i_glide_ecoul>  (273) 
-1.62471

>  <r_i_glide_erotb>  (273) 
0

>  <r_i_glide_esite>  (273) 
0

>  <r_i_glide_emodel>  (273) 
-19.8582

>  <r_i_glide_energy>  (273) 
-17.6445

>  <r_i_glide_einternal>  (273) 
0

>  <r_i_glide_intrahb_reward>  (273) 
-0

>  <i_i_glide_confnum>  (273) 
2

>  <i_i_glide_posenum>  (273) 
11

>  <r_i_glide_eff_state_penalty>  (273) 
0

>  <ligand_id>  (273) 
79

>  <original_smiles>  (273) 
CC1CCC2C1OC13C4CCC(C)C1N(CCC23)C(C)C4C

>  <smiles>  (273) 
[H]C([H])([H])C1([H])C([H])([H])C([H])([H])C2([H])C1([H])OC13C2([H])C([H])([H])C([H])([H])[N+]2([H])C([H])(C([H])([H])[H])C([H])(C([H])([H])[H])C1([H])C([H])([H])C([H])([H])C([H])(C([H])([H])[H])C32[H]

$$$$
79:0:2
     RDKit          3D

 56 60  0  0  1  0  0  0  0  0999 V2000
    2.4800   -2.3962   -2.7274 C   0  0  0  0  0  0  0  0  0  0  0  0
    3.9070   -2.1864   -2.2421 C   0  0  2  0  0  0  0  0  0  0  0  0
    4.7828   -3.3856   -2.5391 C   0  0  0  0  0  0  0  0  0  0  0  0
    5.8998   -3.3613   -1.5075 C   0  0  0  0  0  0  0  0  0  0  0  0
    5.5031   -2.3004   -0.4673 C   0  0  1  0  0  0  0  0  0  0  0  0
    4.0510   -1.9508   -0.7394 C   0  0  2  0  0  0  0  0  0  0  0  0
    3.3013   -2.8760    0.0565 O   0  0  0  0  0  0  0  0  0  0  0  0
    4.0192   -3.3184    1.2197 C   0  0  1  0  0  0  0  0  0  0  0  0
    3.3676   -2.8339    2.5363 C   0  0  1  0  0  0  0  0  0  0  0  0
    1.9002   -3.2696    2.5603 C   0  0  0  0  0  0  0  0  0  0  0  0
    1.7431   -4.8039    2.5142 C   0  0  0  0  0  0  0  0  0  0  0  0
    2.6270   -5.4997    1.4619 C   0  0  1  0  0  0  0  0  0  0  0  0
    1.8871   -5.6576    0.1325 C   0  0  0  0  0  0  0  0  0  0  0  0
    4.0344   -4.8538    1.2666 C   0  0  2  0  0  0  0  0  0  0  0  0
    4.9999   -5.2995    2.2962 N   0  0  1  0  0  0  0  0  0  0  0  0
    6.3566   -5.0439    1.7936 C   0  0  0  0  0  0  0  0  0  0  0  0
    6.6152   -3.5729    1.4781 C   0  0  0  0  0  0  0  0  0  0  0  0
    5.4285   -2.7365    0.9743 C   0  0  1  0  0  0  0  0  0  0  0  0
    4.6733   -4.8385    3.6795 C   0  0  1  0  0  0  0  0  0  0  0  0
    5.7156   -5.2408    4.7345 C   0  0  0  0  0  0  0  0  0  0  0  0
    4.0828   -3.3866    3.8161 C   0  0  1  0  0  0  0  0  0  0  0  0
    4.9772   -2.3169    4.4584 C   0  0  0  0  0  0  0  0  0  0  0  0
    1.9702   -3.2150   -2.2161 H   0  0  0  0  0  0  0  0  0  0  0  0
    2.3939   -2.5528   -3.7977 H   0  0  0  0  0  0  0  0  0  0  0  0
    1.9656   -1.4809   -2.4830 H   0  0  0  0  0  0  0  0  0  0  0  0
    4.3273   -1.3144   -2.7477 H   0  0  0  0  0  0  0  0  0  0  0  0
    4.1786   -4.2612   -2.3518 H   0  0  0  0  0  0  0  0  0  0  0  0
    5.1386   -3.4100   -3.5645 H   0  0  0  0  0  0  0  0  0  0  0  0
    5.9744   -4.3489   -1.0524 H   0  0  0  0  0  0  0  0  0  0  0  0
    6.8674   -3.1333   -1.9613 H   0  0  0  0  0  0  0  0  0  0  0  0
    6.1493   -1.4222   -0.5838 H   0  0  0  0  0  0  0  0  0  0  0  0
    3.8150   -0.9346   -0.4197 H   0  0  0  0  0  0  0  0  0  0  0  0
    3.3802   -1.7420    2.5716 H   0  0  0  0  0  0  0  0  0  0  0  0
    1.3781   -2.8401    3.4084 H   0  0  0  0  0  0  0  0  0  0  0  0
    1.4410   -2.8052    1.6904 H   0  0  0  0  0  0  0  0  0  0  0  0
    1.8819   -5.2320    3.5041 H   0  0  0  0  0  0  0  0  0  0  0  0
    0.7032   -5.0518    2.3026 H   0  0  0  0  0  0  0  0  0  0  0  0
    2.7810   -6.5319    1.7930 H   0  0  0  0  0  0  0  0  0  0  0  0
    1.6498   -4.7191   -0.3593 H   0  0  0  0  0  0  0  0  0  0  0  0
    0.9744   -6.2427    0.2379 H   0  0  0  0  0  0  0  0  0  0  0  0
    2.5385   -6.2257   -0.4951 H   0  0  0  0  0  0  0  0  0  0  0  0
    4.3880   -5.2200    0.3052 H   0  0  0  0  0  0  0  0  0  0  0  0
    7.1083   -5.4081    2.4928 H   0  0  0  0  0  0  0  0  0  0  0  0
    6.5192   -5.6335    0.8842 H   0  0  0  0  0  0  0  0  0  0  0  0
    6.7869   -3.0822    2.3980 H   0  0  0  0  0  0  0  0  0  0  0  0
    7.4861   -3.4631    0.8533 H   0  0  0  0  0  0  0  0  0  0  0  0
    5.4643   -1.7836    1.5059 H   0  0  0  0  0  0  0  0  0  0  0  0
    3.8633   -5.5031    3.9520 H   0  0  0  0  0  0  0  0  0  0  0  0
    5.3216   -5.0827    5.7336 H   0  0  0  0  0  0  0  0  0  0  0  0
    6.6167   -4.6590    4.6489 H   0  0  0  0  0  0  0  0  0  0  0  0
    5.9862   -6.2844    4.6482 H   0  0  0  0  0  0  0  0  0  0  0  0
    3.3123   -3.4911    4.5851 H   0  0  0  0  0  0  0  0  0  0  0  0
    5.8013   -2.0108    3.8259 H   0  0  0  0  0  0  0  0  0  0  0  0
    5.3883   -2.6372    5.4238 H   0  0  0  0  0  0  0  0  0  0  0  0
    4.4021   -1.4137    4.6506 H   0  0  0  0  0  0  0  0  0  0  0  0
    4.9219   -6.3019    2.3281 H   0  0  0  0  0  0  0  0  0  0  0  0
  1  2  1  0
  1 23  1  0
  1 24  1  0
  1 25  1  0
  2  6  1  0
  2  3  1  0
  2 26  1  6
  3  4  1  0
  3 27  1  0
  3 28  1  0
  4  5  1  0
  4 29  1  0
  4 30  1  0
  5 18  1  0
  5  6  1  0
  5 31  1  1
  6  7  1  0
  6 32  1  6
  8  7  1  6
  8 14  1  0
  8 18  1  0
  8  9  1  0
  9 21  1  0
  9 10  1  0
  9 33  1  1
 10 11  1  0
 10 34  1  0
 10 35  1  0
 11 12  1  0
 11 36  1  0
 11 37  1  0
 12 13  1  0
 12 14  1  0
 12 38  1  1
 13 39  1  0
 13 40  1  0
 13 41  1  0
 14 15  1  0
 14 42  1  6
 15 16  1  0
 15 19  1  0
 15 56  1  1
 16 17  1  0
 16 43  1  0
 16 44  1  0
 17 18  1  0
 17 45  1  0
 17 46  1  0
 18 47  1  1
 19 20  1  0
 19 21  1  0
 19 48  1  1
 20 49  1  0
 20 50  1  0
 20 51  1  0
 21 22  1  0
 21 52  1  1
 22 53  1  0
 22 54  1  0
 22 55  1  0
M  CHG  1  15   1
M  END
>  <i_m_ct_stereo_status>  (274) 
1

>  <s_m_source_file>  (274) 
/var/tmp/pbs.5076255.sched01/tmpq3cms3f1/82_sdm1vz9.sdf

>  <i_m_source_file_index>  (274) 
33

>  <i_lp_mmshare_version>  (274) 
48012

>  <i_f3d_flags>  (274) 
0

>  <s_epik_input>  (274) 
W0NIMl0xW0NIMl1bQ0BASF0oW0NIM10pW0NAQEhdKE8yKVtDQEhdMVtDQEBIXTNbQ0gyXVtDSDJdTihbQ0BASF0oW0NIM10pW0NASF00W0NIM10pW0NASF01W0NASF0oW0NIM10pW0NIMl1bQ0gyXVtDQEBIXTRbQ0BAXTIzNQ==

>  <s_epik_cmdline>  (274) 
J2VwaWtfcHl0aG9uJywgJy1waHQnLCAnMi4wJywgJy1waCcsICc3LjAnLCAnLXRuJywgJzgnLCAnLW1hJywgJzIwMCcsICctaW1hZScsICc8aW5maWxlLm1hZT4nLCAnLW9tYWUnLCAnPG91dGZpbGUubWFlPic=

>  <r_epik_Ionization_Penalty>  (274) 
0.000474933

>  <r_epik_Ionization_Penalty_Charging>  (274) 
0.000474933

>  <r_epik_Ionization_Penalty_Neutral>  (274) 
1.33005e-13

>  <r_epik_State_Penalty>  (274) 
0.00029446

>  <r_epik_Charging_Adjusted_Penalty>  (274) 
0.000769392

>  <i_epik_Tot_Q>  (274) 
1

>  <i_epik_Tot_abs_Q>  (274) 
1

>  <s_lp_Force_Field>  (274) 
OPLS3e

>  <r_lp_Energy>  (274) 
51.7923

>  <b_lp_Chiralities_Consistent>  (274) 
1

>  <s_lp_Variant>  (274) 
79:0-1

>  <s_i_glide_gridfile>  (274) 
pfpi4k_grid

>  <i_i_glide_lignum>  (274) 
33

>  <i_i_glide_rotatable_bonds>  (274) 
0

>  <r_i_docking_score>  (274) 
-2.54307

>  <r_i_glide_ligand_efficiency>  (274) 
-0.115594

>  <r_i_glide_ligand_efficiency_sa>  (274) 
-0.3239

>  <r_i_glide_ligand_efficiency_ln>  (274) 
-0.62162

>  <r_i_glide_gscore>  (274) 
-2.54307

>  <r_i_glide_lipo>  (274) 
-0.477205

>  <r_i_glide_hbond>  (274) 
0

>  <r_i_glide_metal>  (274) 
-0

>  <r_i_glide_rewards>  (274) 
-1.33302

>  <r_i_glide_evdw>  (274) 
-11.7384

>  <r_i_glide_ecoul>  (274) 
-0.972829

>  <r_i_glide_erotb>  (274) 
0

>  <r_i_glide_esite>  (274) 
0

>  <r_i_glide_emodel>  (274) 
-14.5795

>  <r_i_glide_energy>  (274) 
-12.7113

>  <r_i_glide_einternal>  (274) 
0

>  <r_i_glide_intrahb_reward>  (274) 
-0

>  <i_i_glide_confnum>  (274) 
2

>  <i_i_glide_posenum>  (274) 
15

>  <r_i_glide_eff_state_penalty>  (274) 
0

>  <ligand_id>  (274) 
79

>  <original_smiles>  (274) 
CC1CCC2C1OC13C4CCC(C)C1N(CCC23)C(C)C4C

>  <smiles>  (274) 
[H]C([H])([H])C1([H])C([H])([H])C([H])([H])C2([H])C1([H])OC13C2([H])C([H])([H])C([H])([H])[N+]2([H])C([H])(C([H])([H])[H])C([H])(C([H])([H])[H])C1([H])C([H])([H])C([H])([H])C([H])(C([H])([H])[H])C32[H]

$$$$
80:0:0
     RDKit          3D

 38 42  0  0  1  0  0  0  0  0999 V2000
    2.6214   -2.5458   -2.9336 C   0  0  0  0  0  0  0  0  0  0  0  0
    2.6368   -3.4404   -1.9490 N   0  0  0  0  0  0  0  0  0  0  0  0
    3.3581   -2.9557   -0.8917 C   0  0  0  0  0  0  0  0  0  0  0  0
    3.8077   -1.7227   -1.2530 C   0  0  0  0  0  0  0  0  0  0  0  0
    3.3334   -1.4878   -2.5294 N   0  0  0  0  0  0  0  0  0  0  0  0
    3.5145   -0.2560   -3.3207 C   0  0  0  0  0  0  0  0  0  0  0  0
    2.6144   -0.0033   -4.5080 C   0  0  0  0  0  0  0  0  0  0  0  0
    4.0269   -0.4290   -4.7230 C   0  0  0  0  0  0  0  0  0  0  0  0
    4.6210   -0.8227   -0.3970 C   0  0  2  0  0  0  0  0  0  0  0  0
    5.9777   -1.4874   -0.0811 C   0  0  0  0  0  0  0  0  0  0  0  0
    5.8933   -2.5758    1.0138 C   0  0  1  0  0  0  0  0  0  0  0  0
    5.2735   -1.9806    2.2821 C   0  0  0  0  0  0  0  0  0  0  0  0
    3.8365   -1.5640    1.9529 C   0  0  2  0  0  0  0  0  0  0  0  0
    3.0000   -2.8082    1.5667 C   0  0  0  0  0  0  0  0  0  0  0  0
    3.6003   -3.6420    0.4043 C   0  0  2  0  0  0  0  0  0  0  0  0
    5.1226   -3.8544    0.5980 C   0  0  0  0  0  0  0  0  0  0  0  0
    3.8477   -0.4469    0.8858 C   0  0  0  0  0  0  0  0  0  0  0  0
    2.1100   -2.6760   -3.8711 H   0  0  0  0  0  0  0  0  0  0  0  0
    3.8623    0.5822   -2.7287 H   0  0  0  0  0  0  0  0  0  0  0  0
    1.8159   -0.7032   -4.7634 H   0  0  0  0  0  0  0  0  0  0  0  0
    2.3705    1.0383   -4.7254 H   0  0  0  0  0  0  0  0  0  0  0  0
    4.6377    0.3684   -5.1202 H   0  0  0  0  0  0  0  0  0  0  0  0
    4.2218   -1.4321   -5.1032 H   0  0  0  0  0  0  0  0  0  0  0  0
    4.7985    0.0868   -0.9467 H   0  0  0  0  0  0  0  0  0  0  0  0
    6.4276   -1.8927   -0.9893 H   0  0  0  0  0  0  0  0  0  0  0  0
    6.6547   -0.7101    0.2749 H   0  0  0  0  0  0  0  0  0  0  0  0
    6.9129   -2.8719    1.2507 H   0  0  0  0  0  0  0  0  0  0  0  0
    5.2867   -2.7084    3.0938 H   0  0  0  0  0  0  0  0  0  0  0  0
    5.8549   -1.1252    2.6323 H   0  0  0  0  0  0  0  0  0  0  0  0
    3.3976   -1.1409    2.8541 H   0  0  0  0  0  0  0  0  0  0  0  0
    2.9439   -3.4491    2.4457 H   0  0  0  0  0  0  0  0  0  0  0  0
    1.9731   -2.5143    1.3427 H   0  0  0  0  0  0  0  0  0  0  0  0
    3.1010   -4.6124    0.3594 H   0  0  0  0  0  0  0  0  0  0  0  0
    5.5647   -4.2927   -0.2980 H   0  0  0  0  0  0  0  0  0  0  0  0
    5.2589   -4.5896    1.3895 H   0  0  0  0  0  0  0  0  0  0  0  0
    4.3317    0.4273    1.3213 H   0  0  0  0  0  0  0  0  0  0  0  0
    2.8306   -0.1300    0.6483 H   0  0  0  0  0  0  0  0  0  0  0  0
    2.1963   -4.3535   -2.0096 H   0  0  0  0  0  0  0  0  0  0  0  0
  1  5  1  0
  1  2  2  0
  1 18  1  0
  2  3  1  0
  2 38  1  0
  3 15  1  0
  3  4  2  0
  4  5  1  0
  4  9  1  0
  5  6  1  0
  6  8  1  0
  6  7  1  0
  6 19  1  0
  7  8  1  0
  7 20  1  0
  7 21  1  0
  8 22  1  0
  8 23  1  0
  9 17  1  0
  9 10  1  0
  9 24  1  6
 10 11  1  0
 10 25  1  0
 10 26  1  0
 11 16  1  0
 11 12  1  0
 11 27  1  1
 12 13  1  0
 12 28  1  0
 12 29  1  0
 13 14  1  0
 13 17  1  0
 13 30  1  1
 14 15  1  0
 14 31  1  0
 14 32  1  0
 15 16  1  0
 15 33  1  6
 16 34  1  0
 16 35  1  0
 17 36  1  0
 17 37  1  0
M  CHG  1   2   1
M  END
>  <i_m_ct_stereo_status>  (275) 
1

>  <s_m_source_file>  (275) 
/var/tmp/pbs.5076255.sched01/tmpq3cms3f1/82_sdm1vz9.sdf

>  <i_m_source_file_index>  (275) 
34

>  <i_lp_mmshare_version>  (275) 
48012

>  <i_f3d_flags>  (275) 
2

>  <s_epik_input>  (275) 
W0NIMl0xW0NIMl1bQ0hdMW4oW2NIXW4yKWMoYzIzKVtDQEBIXTRbQ0gyXVtDQEhdNVtDSDJdW0NAQEhdKFtDSDJdNClbQ0gyXVtDQEBIXTNbQ0gyXTU=

>  <s_epik_cmdline>  (275) 
J2VwaWtfcHl0aG9uJywgJy1waHQnLCAnMi4wJywgJy1waCcsICc3LjAnLCAnLXRuJywgJzgnLCAnLW1hJywgJzIwMCcsICctaW1hZScsICc8aW5maWxlLm1hZT4nLCAnLW9tYWUnLCAnPG91dGZpbGUubWFlPic=

>  <r_lp_tautomer_probability>  (275) 
1

>  <r_epik_Ionization_Penalty>  (275) 
0.0124147

>  <r_epik_Ionization_Penalty_Charging>  (275) 
0

>  <r_epik_Ionization_Penalty_Neutral>  (275) 
0.0124147

>  <r_epik_State_Penalty>  (275) 
0.00960871

>  <r_epik_Charging_Adjusted_Penalty>  (275) 
0.00960871

>  <i_epik_Tot_Q>  (275) 
1

>  <i_epik_Tot_abs_Q>  (275) 
1

>  <s_lp_Force_Field>  (275) 
OPLS3e

>  <r_lp_Energy>  (275) 
27.0617

>  <b_lp_Chiralities_Consistent>  (275) 
0

>  <s_lp_Variant>  (275) 
80:0-1

>  <s_i_glide_gridfile>  (275) 
pfpi4k_grid

>  <i_i_glide_lignum>  (275) 
34

>  <i_i_glide_rotatable_bonds>  (275) 
1

>  <r_i_docking_score>  (275) 
-3.82205

>  <r_i_glide_ligand_efficiency>  (275) 
-0.224826

>  <r_i_glide_ligand_efficiency_sa>  (275) 
-0.578092

>  <r_i_glide_ligand_efficiency_ln>  (275) 
-0.997088

>  <r_i_glide_gscore>  (275) 
-3.82205

>  <r_i_glide_lipo>  (275) 
-0.662873

>  <r_i_glide_hbond>  (275) 
0

>  <r_i_glide_metal>  (275) 
-0

>  <r_i_glide_rewards>  (275) 
-1.8454

>  <r_i_glide_evdw>  (275) 
-20.8548

>  <r_i_glide_ecoul>  (275) 
-3.52459

>  <r_i_glide_erotb>  (275) 
0.324369

>  <r_i_glide_esite>  (275) 
-0.0667147

>  <r_i_glide_emodel>  (275) 
-30.0433

>  <r_i_glide_energy>  (275) 
-24.3793

>  <r_i_glide_einternal>  (275) 
1.44889

>  <r_i_glide_intrahb_reward>  (275) 
-0

>  <i_i_glide_confnum>  (275) 
3

>  <i_i_glide_posenum>  (275) 
1

>  <r_i_glide_eff_state_penalty>  (275) 
0

>  <ligand_id>  (275) 
80

>  <original_smiles>  (275) 
c1nc2c(n1C1CC1)C1CC3CC(CC2C3)C1

>  <smiles>  (275) 
[H]c1n(C2([H])C([H])([H])C2([H])[H])c2c([n+]1[H])C1([H])C([H])([H])C3([H])C([H])([H])C2([H])C([H])([H])C([H])(C1([H])[H])C3([H])[H]

$$$$
80:0:1
     RDKit          3D

 38 42  0  0  1  0  0  0  0  0999 V2000
    2.2704   -2.6766   -3.4693 C   0  0  0  0  0  0  0  0  0  0  0  0
    2.1750   -3.4120   -2.3599 N   0  0  0  0  0  0  0  0  0  0  0  0
    3.2332   -3.1552   -1.5333 C   0  0  0  0  0  0  0  0  0  0  0  0
    4.0064   -2.2373   -2.1706 C   0  0  0  0  0  0  0  0  0  0  0  0
    3.3714   -1.9284   -3.3531 N   0  0  0  0  0  0  0  0  0  0  0  0
    3.8393   -1.0448   -4.4272 C   0  0  0  0  0  0  0  0  0  0  0  0
    3.8116    0.4166   -4.0761 C   0  0  0  0  0  0  0  0  0  0  0  0
    2.8268   -0.1182   -5.0679 C   0  0  0  0  0  0  0  0  0  0  0  0
    5.2843   -1.6734   -1.6562 C   0  0  2  0  0  0  0  0  0  0  0  0
    6.3285   -2.8034   -1.4564 C   0  0  0  0  0  0  0  0  0  0  0  0
    6.0963   -3.6548   -0.1826 C   0  0  1  0  0  0  0  0  0  0  0  0
    6.0359   -2.7430    1.0506 C   0  0  0  0  0  0  0  0  0  0  0  0
    4.8183   -1.8252    0.8972 C   0  0  2  0  0  0  0  0  0  0  0  0
    3.5165   -2.6687    0.8828 C   0  0  0  0  0  0  0  0  0  0  0  0
    3.4913   -3.7752   -0.2040 C   0  0  2  0  0  0  0  0  0  0  0  0
    4.8339   -4.5563   -0.2268 C   0  0  0  0  0  0  0  0  0  0  0  0
    5.0131   -0.9169   -0.3361 C   0  0  0  0  0  0  0  0  0  0  0  0
    1.5814   -2.6947   -4.2948 H   0  0  0  0  0  0  0  0  0  0  0  0
    4.6362   -1.4721   -5.0069 H   0  0  0  0  0  0  0  0  0  0  0  0
    3.4394    0.6565   -3.0902 H   0  0  0  0  0  0  0  0  0  0  0  0
    4.5851    1.0691   -4.4692 H   0  0  0  0  0  0  0  0  0  0  0  0
    2.9803    0.1511   -6.1154 H   0  0  0  0  0  0  0  0  0  0  0  0
    1.7971   -0.1822   -4.7506 H   0  0  0  0  0  0  0  0  0  0  0  0
    5.6532   -0.9624   -2.3856 H   0  0  0  0  0  0  0  0  0  0  0  0
    6.3852   -3.4447   -2.3394 H   0  0  0  0  0  0  0  0  0  0  0  0
    7.3087   -2.3423   -1.3656 H   0  0  0  0  0  0  0  0  0  0  0  0
    6.9614   -4.3093   -0.0646 H   0  0  0  0  0  0  0  0  0  0  0  0
    5.9597   -3.3303    1.9656 H   0  0  0  0  0  0  0  0  0  0  0  0
    6.9500   -2.1550    1.1420 H   0  0  0  0  0  0  0  0  0  0  0  0
    4.7761   -1.1724    1.7696 H   0  0  0  0  0  0  0  0  0  0  0  0
    3.4234   -3.1440    1.8601 H   0  0  0  0  0  0  0  0  0  0  0  0
    2.6458   -2.0176    0.7828 H   0  0  0  0  0  0  0  0  0  0  0  0
    2.6820   -4.4694    0.0094 H   0  0  0  0  0  0  0  0  0  0  0  0
    4.8745   -5.2228   -1.0899 H   0  0  0  0  0  0  0  0  0  0  0  0
    4.8636   -5.2059    0.6504 H   0  0  0  0  0  0  0  0  0  0  0  0
    5.8645   -0.2682   -0.1434 H   0  0  0  0  0  0  0  0  0  0  0  0
    4.1534   -0.2553   -0.4565 H   0  0  0  0  0  0  0  0  0  0  0  0
    1.4322   -4.0784   -2.1949 H   0  0  0  0  0  0  0  0  0  0  0  0
  1  5  1  0
  1  2  2  0
  1 18  1  0
  2  3  1  0
  2 38  1  0
  3 15  1  0
  3  4  2  0
  4  5  1  0
  4  9  1  0
  5  6  1  0
  6  8  1  0
  6  7  1  0
  6 19  1  0
  7  8  1  0
  7 20  1  0
  7 21  1  0
  8 22  1  0
  8 23  1  0
  9 17  1  0
  9 10  1  0
  9 24  1  6
 10 11  1  0
 10 25  1  0
 10 26  1  0
 11 16  1  0
 11 12  1  0
 11 27  1  1
 12 13  1  0
 12 28  1  0
 12 29  1  0
 13 14  1  0
 13 17  1  0
 13 30  1  1
 14 15  1  0
 14 31  1  0
 14 32  1  0
 15 16  1  0
 15 33  1  1
 16 34  1  0
 16 35  1  0
 17 36  1  0
 17 37  1  0
M  CHG  1   2   1
M  END
>  <i_m_ct_stereo_status>  (276) 
1

>  <s_m_source_file>  (276) 
/var/tmp/pbs.5076255.sched01/tmpq3cms3f1/82_sdm1vz9.sdf

>  <i_m_source_file_index>  (276) 
34

>  <i_lp_mmshare_version>  (276) 
48012

>  <i_f3d_flags>  (276) 
2

>  <s_epik_input>  (276) 
W0NIMl0xW0NIMl1bQ0hdMW4oW2NIXW4yKWMoYzIzKVtDQEBIXTRbQ0gyXVtDQEhdNVtDSDJdW0NAQEhdKFtDSDJdNClbQ0gyXVtDQEBIXTNbQ0gyXTU=

>  <s_epik_cmdline>  (276) 
J2VwaWtfcHl0aG9uJywgJy1waHQnLCAnMi4wJywgJy1waCcsICc3LjAnLCAnLXRuJywgJzgnLCAnLW1hJywgJzIwMCcsICctaW1hZScsICc8aW5maWxlLm1hZT4nLCAnLW9tYWUnLCAnPG91dGZpbGUubWFlPic=

>  <r_lp_tautomer_probability>  (276) 
1

>  <r_epik_Ionization_Penalty>  (276) 
0.0124147

>  <r_epik_Ionization_Penalty_Charging>  (276) 
0

>  <r_epik_Ionization_Penalty_Neutral>  (276) 
0.0124147

>  <r_epik_State_Penalty>  (276) 
0.00960871

>  <r_epik_Charging_Adjusted_Penalty>  (276) 
0.00960871

>  <i_epik_Tot_Q>  (276) 
1

>  <i_epik_Tot_abs_Q>  (276) 
1

>  <s_lp_Force_Field>  (276) 
OPLS3e

>  <r_lp_Energy>  (276) 
27.0617

>  <b_lp_Chiralities_Consistent>  (276) 
0

>  <s_lp_Variant>  (276) 
80:0-1

>  <s_i_glide_gridfile>  (276) 
pfpi4k_grid

>  <i_i_glide_lignum>  (276) 
34

>  <i_i_glide_rotatable_bonds>  (276) 
1

>  <r_i_docking_score>  (276) 
-3.71382

>  <r_i_glide_ligand_efficiency>  (276) 
-0.21846

>  <r_i_glide_ligand_efficiency_sa>  (276) 
-0.561721

>  <r_i_glide_ligand_efficiency_ln>  (276) 
-0.968852

>  <r_i_glide_gscore>  (276) 
-3.71382

>  <r_i_glide_lipo>  (276) 
-0.33534

>  <r_i_glide_hbond>  (276) 
0

>  <r_i_glide_metal>  (276) 
-0

>  <r_i_glide_rewards>  (276) 
-2.35316

>  <r_i_glide_evdw>  (276) 
-23.935

>  <r_i_glide_ecoul>  (276) 
-1.01954

>  <r_i_glide_erotb>  (276) 
0.324369

>  <r_i_glide_esite>  (276) 
0

>  <r_i_glide_emodel>  (276) 
-31.0612

>  <r_i_glide_energy>  (276) 
-24.9546

>  <r_i_glide_einternal>  (276) 
0.272273

>  <r_i_glide_intrahb_reward>  (276) 
-0

>  <i_i_glide_confnum>  (276) 
3

>  <i_i_glide_posenum>  (276) 
6

>  <r_i_glide_eff_state_penalty>  (276) 
0

>  <ligand_id>  (276) 
80

>  <original_smiles>  (276) 
c1nc2c(n1C1CC1)C1CC3CC(CC2C3)C1

>  <smiles>  (276) 
[H]c1n(C2([H])C([H])([H])C2([H])[H])c2c([n+]1[H])C1([H])C([H])([H])C3([H])C([H])([H])C2([H])C([H])([H])C([H])(C1([H])[H])C3([H])[H]

$$$$
80:0:2
     RDKit          3D

 38 42  0  0  1  0  0  0  0  0999 V2000
    2.3296   -1.7288    2.0578 C   0  0  0  0  0  0  0  0  0  0  0  0
    2.2892   -2.8894    1.4027 N   0  0  0  0  0  0  0  0  0  0  0  0
    2.9695   -2.7862    0.2203 C   0  0  0  0  0  0  0  0  0  0  0  0
    3.4704   -1.5196    0.1715 C   0  0  0  0  0  0  0  0  0  0  0  0
    3.0673   -0.8785    1.3222 N   0  0  0  0  0  0  0  0  0  0  0  0
    3.3913    0.5032    1.7363 C   0  0  0  0  0  0  0  0  0  0  0  0
    3.1973    0.8630    3.2023 C   0  0  0  0  0  0  0  0  0  0  0  0
    2.2269    1.3743    2.1574 C   0  0  0  0  0  0  0  0  0  0  0  0
    4.2979   -0.9826   -0.9447 C   0  0  2  0  0  0  0  0  0  0  0  0
    3.5132   -0.9918   -2.2875 C   0  0  0  0  0  0  0  0  0  0  0  0
    3.3772   -2.3685   -2.9473 C   0  0  1  0  0  0  0  0  0  0  0  0
    4.7737   -2.9553   -3.1511 C   0  0  0  0  0  0  0  0  0  0  0  0
    5.4242   -3.1626   -1.7774 C   0  0  2  0  0  0  0  0  0  0  0  0
    4.6130   -4.2042   -0.9722 C   0  0  0  0  0  0  0  0  0  0  0  0
    3.1089   -3.8442   -0.8138 C   0  0  2  0  0  0  0  0  0  0  0  0
    2.4834   -3.3574   -2.1618 C   0  0  0  0  0  0  0  0  0  0  0  0
    5.5963   -1.8040   -1.0634 C   0  0  0  0  0  0  0  0  0  0  0  0
    1.8451   -1.5283    2.9907 H   0  0  0  0  0  0  0  0  0  0  0  0
    4.2212    0.9310    1.1829 H   0  0  0  0  0  0  0  0  0  0  0  0
    2.8309    0.1354    3.9259 H   0  0  0  0  0  0  0  0  0  0  0  0
    3.9015    1.5835    3.6199 H   0  0  0  0  0  0  0  0  0  0  0  0
    2.2916    2.4333    1.9071 H   0  0  0  0  0  0  0  0  0  0  0  0
    1.2172    0.9680    2.1378 H   0  0  0  0  0  0  0  0  0  0  0  0
    4.5616    0.0450   -0.7091 H   0  0  0  0  0  0  0  0  0  0  0  0
    2.5158   -0.5805   -2.1603 H   0  0  0  0  0  0  0  0  0  0  0  0
    4.0271   -0.3227   -2.9756 H   0  0  0  0  0  0  0  0  0  0  0  0
    2.9152   -2.2111   -3.9258 H   0  0  0  0  0  0  0  0  0  0  0  0
    4.7242   -3.8911   -3.7079 H   0  0  0  0  0  0  0  0  0  0  0  0
    5.3713   -2.2646   -3.7415 H   0  0  0  0  0  0  0  0  0  0  0  0
    6.4257   -3.5662   -1.9421 H   0  0  0  0  0  0  0  0  0  0  0  0
    4.6868   -5.1478   -1.5149 H   0  0  0  0  0  0  0  0  0  0  0  0
    5.0743   -4.3719    0.0040 H   0  0  0  0  0  0  0  0  0  0  0  0
    2.5673   -4.7273   -0.4709 H   0  0  0  0  0  0  0  0  0  0  0  0
    1.4872   -2.9437   -1.9985 H   0  0  0  0  0  0  0  0  0  0  0  0
    2.3095   -4.1989   -2.8323 H   0  0  0  0  0  0  0  0  0  0  0  0
    6.2565   -1.2055   -1.6747 H   0  0  0  0  0  0  0  0  0  0  0  0
    6.0691   -1.9268   -0.0849 H   0  0  0  0  0  0  0  0  0  0  0  0
    1.7890   -3.7089    1.7194 H   0  0  0  0  0  0  0  0  0  0  0  0
  1  5  1  0
  1  2  2  0
  1 18  1  0
  2  3  1  0
  2 38  1  0
  3 15  1  0
  3  4  2  0
  4  5  1  0
  4  9  1  0
  5  6  1  0
  6  8  1  0
  6  7  1  0
  6 19  1  0
  7  8  1  0
  7 20  1  0
  7 21  1  0
  8 22  1  0
  8 23  1  0
  9 17  1  0
  9 10  1  0
  9 24  1  1
 10 11  1  0
 10 25  1  0
 10 26  1  0
 11 16  1  0
 11 12  1  0
 11 27  1  6
 12 13  1  0
 12 28  1  0
 12 29  1  0
 13 14  1  0
 13 17  1  0
 13 30  1  6
 14 15  1  0
 14 31  1  0
 14 32  1  0
 15 16  1  0
 15 33  1  1
 16 34  1  0
 16 35  1  0
 17 36  1  0
 17 37  1  0
M  CHG  1   2   1
M  END
>  <i_m_ct_stereo_status>  (277) 
1

>  <s_m_source_file>  (277) 
/var/tmp/pbs.5076255.sched01/tmpq3cms3f1/82_sdm1vz9.sdf

>  <i_m_source_file_index>  (277) 
34

>  <i_lp_mmshare_version>  (277) 
48012

>  <i_f3d_flags>  (277) 
2

>  <s_epik_input>  (277) 
W0NIMl0xW0NIMl1bQ0hdMW4oW2NIXW4yKWMoYzIzKVtDQEBIXTRbQ0gyXVtDQEhdNVtDSDJdW0NAQEhdKFtDSDJdNClbQ0gyXVtDQEBIXTNbQ0gyXTU=

>  <s_epik_cmdline>  (277) 
J2VwaWtfcHl0aG9uJywgJy1waHQnLCAnMi4wJywgJy1waCcsICc3LjAnLCAnLXRuJywgJzgnLCAnLW1hJywgJzIwMCcsICctaW1hZScsICc8aW5maWxlLm1hZT4nLCAnLW9tYWUnLCAnPG91dGZpbGUubWFlPic=

>  <r_lp_tautomer_probability>  (277) 
1

>  <r_epik_Ionization_Penalty>  (277) 
0.0124147

>  <r_epik_Ionization_Penalty_Charging>  (277) 
0

>  <r_epik_Ionization_Penalty_Neutral>  (277) 
0.0124147

>  <r_epik_State_Penalty>  (277) 
0.00960871

>  <r_epik_Charging_Adjusted_Penalty>  (277) 
0.00960871

>  <i_epik_Tot_Q>  (277) 
1

>  <i_epik_Tot_abs_Q>  (277) 
1

>  <s_lp_Force_Field>  (277) 
OPLS3e

>  <r_lp_Energy>  (277) 
27.0617

>  <b_lp_Chiralities_Consistent>  (277) 
0

>  <s_lp_Variant>  (277) 
80:0-1

>  <s_i_glide_gridfile>  (277) 
pfpi4k_grid

>  <i_i_glide_lignum>  (277) 
34

>  <i_i_glide_rotatable_bonds>  (277) 
1

>  <r_i_docking_score>  (277) 
-3.56946

>  <r_i_glide_ligand_efficiency>  (277) 
-0.209969

>  <r_i_glide_ligand_efficiency_sa>  (277) 
-0.539888

>  <r_i_glide_ligand_efficiency_ln>  (277) 
-0.931194

>  <r_i_glide_gscore>  (277) 
-3.56946

>  <r_i_glide_lipo>  (277) 
-0.544337

>  <r_i_glide_hbond>  (277) 
0

>  <r_i_glide_metal>  (277) 
-0

>  <r_i_glide_rewards>  (277) 
-1.8454

>  <r_i_glide_evdw>  (277) 
-17.7312

>  <r_i_glide_ecoul>  (277) 
-3.41908

>  <r_i_glide_erotb>  (277) 
0.324369

>  <r_i_glide_esite>  (277) 
-0.104669

>  <r_i_glide_emodel>  (277) 
-26.3717

>  <r_i_glide_energy>  (277) 
-21.1503

>  <r_i_glide_einternal>  (277) 
1.45146

>  <r_i_glide_intrahb_reward>  (277) 
-0

>  <i_i_glide_confnum>  (277) 
1

>  <i_i_glide_posenum>  (277) 
7

>  <r_i_glide_eff_state_penalty>  (277) 
0

>  <ligand_id>  (277) 
80

>  <original_smiles>  (277) 
c1nc2c(n1C1CC1)C1CC3CC(CC2C3)C1

>  <smiles>  (277) 
[H]c1n(C2([H])C([H])([H])C2([H])[H])c2c([n+]1[H])C1([H])C([H])([H])C3([H])C([H])([H])C2([H])C([H])([H])C([H])(C1([H])[H])C3([H])[H]

$$$$
80:1:0
     RDKit          3D

 37 41  0  0  1  0  0  0  0  0999 V2000
    4.9415   -1.0722   -1.5786 C   0  0  0  0  0  0  0  0  0  0  0  0
    5.8156   -1.1462   -0.5838 N   0  0  0  0  0  0  0  0  0  0  0  0
    5.4567   -2.3230    0.0616 C   0  0  0  0  0  0  0  0  0  0  0  0
    4.3866   -2.8989   -0.5605 C   0  0  0  0  0  0  0  0  0  0  0  0
    4.0751   -2.0958   -1.6557 N   0  0  0  0  0  0  0  0  0  0  0  0
    2.9969   -2.2799   -2.6090 C   0  0  0  0  0  0  0  0  0  0  0  0
    3.3663   -3.0567   -3.8512 C   0  0  0  0  0  0  0  0  0  0  0  0
    3.1507   -1.5580   -3.9281 C   0  0  0  0  0  0  0  0  0  0  0  0
    3.7084   -4.1542   -0.1270 C   0  0  2  0  0  0  0  0  0  0  0  0
    3.1250   -4.0063    1.3015 C   0  0  0  0  0  0  0  0  0  0  0  0
    4.1849   -4.0945    2.4314 C   0  0  1  0  0  0  0  0  0  0  0  0
    4.9633   -5.4115    2.3068 C   0  0  0  0  0  0  0  0  0  0  0  0
    5.7136   -5.3981    0.9694 C   0  0  2  0  0  0  0  0  0  0  0  0
    6.7549   -4.2504    0.9666 C   0  0  0  0  0  0  0  0  0  0  0  0
    6.1443   -2.8602    1.2689 C   0  0  2  0  0  0  0  0  0  0  0  0
    5.1777   -2.9065    2.4777 C   0  0  0  0  0  0  0  0  0  0  0  0
    4.6887   -5.3493   -0.1928 C   0  0  0  0  0  0  0  0  0  0  0  0
    4.9466   -0.2423   -2.2668 H   0  0  0  0  0  0  0  0  0  0  0  0
    2.0212   -2.4026   -2.1500 H   0  0  0  0  0  0  0  0  0  0  0  0
    4.3855   -3.4274   -3.9410 H   0  0  0  0  0  0  0  0  0  0  0  0
    2.5983   -3.6943   -4.2860 H   0  0  0  0  0  0  0  0  0  0  0  0
    2.2403   -1.2047   -4.4052 H   0  0  0  0  0  0  0  0  0  0  0  0
    4.0295   -0.9526   -4.1324 H   0  0  0  0  0  0  0  0  0  0  0  0
    2.8830   -4.3488   -0.8116 H   0  0  0  0  0  0  0  0  0  0  0  0
    2.5591   -3.0773    1.3853 H   0  0  0  0  0  0  0  0  0  0  0  0
    2.4053   -4.8088    1.4600 H   0  0  0  0  0  0  0  0  0  0  0  0
    3.6499   -4.1103    3.3814 H   0  0  0  0  0  0  0  0  0  0  0  0
    5.6615   -5.5272    3.1373 H   0  0  0  0  0  0  0  0  0  0  0  0
    4.2841   -6.2655    2.3555 H   0  0  0  0  0  0  0  0  0  0  0  0
    6.2617   -6.3361    0.8793 H   0  0  0  0  0  0  0  0  0  0  0  0
    7.5003   -4.4741    1.7277 H   0  0  0  0  0  0  0  0  0  0  0  0
    7.2955   -4.2279    0.0215 H   0  0  0  0  0  0  0  0  0  0  0  0
    6.9595   -2.1820    1.5205 H   0  0  0  0  0  0  0  0  0  0  0  0
    4.6408   -1.9634    2.5710 H   0  0  0  0  0  0  0  0  0  0  0  0
    5.7695   -3.0022    3.3872 H   0  0  0  0  0  0  0  0  0  0  0  0
    4.1078   -6.2712   -0.1721 H   0  0  0  0  0  0  0  0  0  0  0  0
    5.2043   -5.3482   -1.1519 H   0  0  0  0  0  0  0  0  0  0  0  0
  1  5  1  0
  1  2  2  0
  1 18  1  0
  2  3  1  0
  3 15  1  0
  3  4  2  0
  4  5  1  0
  4  9  1  0
  5  6  1  0
  6  8  1  0
  6  7  1  0
  6 19  1  0
  7  8  1  0
  7 20  1  0
  7 21  1  0
  8 22  1  0
  8 23  1  0
  9 17  1  0
  9 10  1  0
  9 24  1  6
 10 11  1  0
 10 25  1  0
 10 26  1  0
 11 16  1  0
 11 12  1  0
 11 27  1  1
 12 13  1  0
 12 28  1  0
 12 29  1  0
 13 14  1  0
 13 17  1  0
 13 30  1  6
 14 15  1  0
 14 31  1  0
 14 32  1  0
 15 16  1  0
 15 33  1  1
 16 34  1  0
 16 35  1  0
 17 36  1  0
 17 37  1  0
M  END
>  <i_m_ct_stereo_status>  (278) 
1

>  <s_m_source_file>  (278) 
/var/tmp/pbs.5076255.sched01/tmpq3cms3f1/82_sdm1vz9.sdf

>  <i_m_source_file_index>  (278) 
35

>  <i_lp_mmshare_version>  (278) 
48012

>  <i_f3d_flags>  (278) 
2

>  <s_epik_input>  (278) 
W0NIMl0xW0NIMl1bQ0hdMW4oW2NIXW4yKWMoYzIzKVtDQEBIXTRbQ0gyXVtDQEhdNVtDSDJdW0NAQEhdKFtDSDJdNClbQ0gyXVtDQEBIXTNbQ0gyXTU=

>  <s_epik_cmdline>  (278) 
J2VwaWtfcHl0aG9uJywgJy1waHQnLCAnMi4wJywgJy1waCcsICc3LjAnLCAnLXRuJywgJzgnLCAnLW1hJywgJzIwMCcsICctaW1hZScsICc8aW5maWxlLm1hZT4nLCAnLW9tYWUnLCAnPG91dGZpbGUubWFlPic=

>  <r_lp_tautomer_probability>  (278) 
1

>  <r_epik_Ionization_Penalty>  (278) 
2.29642

>  <r_epik_Ionization_Penalty_Charging>  (278) 
2.29642

>  <r_epik_Ionization_Penalty_Neutral>  (278) 
1.06956e-10

>  <r_epik_State_Penalty>  (278) 
2.44682

>  <r_epik_Charging_Adjusted_Penalty>  (278) 
4.74324

>  <i_epik_Tot_Q>  (278) 
0

>  <i_epik_Tot_abs_Q>  (278) 
0

>  <s_lp_Force_Field>  (278) 
OPLS3e

>  <r_lp_Energy>  (278) 
18.0155

>  <b_lp_Chiralities_Consistent>  (278) 
0

>  <s_lp_Variant>  (278) 
80:0-2

>  <s_i_glide_gridfile>  (278) 
pfpi4k_grid

>  <i_i_glide_lignum>  (278) 
35

>  <i_i_glide_rotatable_bonds>  (278) 
1

>  <r_i_docking_score>  (278) 
-3.62737

>  <r_i_glide_ligand_efficiency>  (278) 
-0.213375

>  <r_i_glide_ligand_efficiency_sa>  (278) 
-0.548647

>  <r_i_glide_ligand_efficiency_ln>  (278) 
-0.9463

>  <r_i_glide_gscore>  (278) 
-3.62737

>  <r_i_glide_lipo>  (278) 
-0.595855

>  <r_i_glide_hbond>  (278) 
-0.0284877

>  <r_i_glide_metal>  (278) 
-0

>  <r_i_glide_rewards>  (278) 
-1.85228

>  <r_i_glide_evdw>  (278) 
-23.2733

>  <r_i_glide_ecoul>  (278) 
-1.55532

>  <r_i_glide_erotb>  (278) 
0.326801

>  <r_i_glide_esite>  (278) 
-0.0805912

>  <r_i_glide_emodel>  (278) 
-30.3098

>  <r_i_glide_energy>  (278) 
-24.8286

>  <r_i_glide_einternal>  (278) 
0.574653

>  <r_i_glide_intrahb_reward>  (278) 
-0

>  <i_i_glide_confnum>  (278) 
4

>  <i_i_glide_posenum>  (278) 
35

>  <r_i_glide_eff_state_penalty>  (278) 
0

>  <ligand_id>  (278) 
80

>  <original_smiles>  (278) 
c1nc2c(n1C1CC1)C1CC3CC(CC2C3)C1

>  <smiles>  (278) 
[H]c1nc2c(n1C1([H])C([H])([H])C1([H])[H])C1([H])C([H])([H])C3([H])C([H])([H])C2([H])C([H])([H])C([H])(C1([H])[H])C3([H])[H]

$$$$
80:1:1
     RDKit          3D

 37 41  0  0  1  0  0  0  0  0999 V2000
    6.8332   -5.9839    1.2938 C   0  0  0  0  0  0  0  0  0  0  0  0
    7.6083   -4.9433    1.0078 N   0  0  0  0  0  0  0  0  0  0  0  0
    6.7446   -4.0818    0.3406 C   0  0  0  0  0  0  0  0  0  0  0  0
    5.5024   -4.6386    0.2364 C   0  0  0  0  0  0  0  0  0  0  0  0
    5.5572   -5.8804    0.8717 N   0  0  0  0  0  0  0  0  0  0  0  0
    4.4684   -6.8447    1.0334 C   0  0  0  0  0  0  0  0  0  0  0  0
    4.4743   -7.6300    2.3265 C   0  0  0  0  0  0  0  0  0  0  0  0
    4.8699   -8.3028    1.0276 C   0  0  0  0  0  0  0  0  0  0  0  0
    4.3285   -4.0008   -0.4355 C   0  0  2  0  0  0  0  0  0  0  0  0
    4.6143   -3.7548   -1.9381 C   0  0  0  0  0  0  0  0  0  0  0  0
    5.5167   -2.5296   -2.2106 C   0  0  1  0  0  0  0  0  0  0  0  0
    4.8989   -1.2782   -1.5721 C   0  0  0  0  0  0  0  0  0  0  0  0
    4.8571   -1.4900   -0.0530 C   0  0  2  0  0  0  0  0  0  0  0  0
    6.3016   -1.6251    0.4990 C   0  0  0  0  0  0  0  0  0  0  0  0
    7.1288   -2.7405   -0.1890 C   0  0  2  0  0  0  0  0  0  0  0  0
    6.9804   -2.6987   -1.7291 C   0  0  0  0  0  0  0  0  0  0  0  0
    3.9273   -2.6859    0.2784 C   0  0  0  0  0  0  0  0  0  0  0  0
    7.2109   -6.8441    1.8274 H   0  0  0  0  0  0  0  0  0  0  0  0
    3.5223   -6.5441    0.5918 H   0  0  0  0  0  0  0  0  0  0  0  0
    5.2558   -7.4391    3.0603 H   0  0  0  0  0  0  0  0  0  0  0  0
    3.5035   -7.8852    2.7475 H   0  0  0  0  0  0  0  0  0  0  0  0
    4.1622   -9.0015    0.5849 H   0  0  0  0  0  0  0  0  0  0  0  0
    5.9173   -8.5628    0.8867 H   0  0  0  0  0  0  0  0  0  0  0  0
    3.4752   -4.6715   -0.3810 H   0  0  0  0  0  0  0  0  0  0  0  0
    5.0295   -4.6526   -2.3972 H   0  0  0  0  0  0  0  0  0  0  0  0
    3.6616   -3.5954   -2.4468 H   0  0  0  0  0  0  0  0  0  0  0  0
    5.5382   -2.3822   -3.2892 H   0  0  0  0  0  0  0  0  0  0  0  0
    5.4770   -0.3886   -1.8213 H   0  0  0  0  0  0  0  0  0  0  0  0
    3.8959   -1.0995   -1.9629 H   0  0  0  0  0  0  0  0  0  0  0  0
    4.4180   -0.6011    0.3994 H   0  0  0  0  0  0  0  0  0  0  0  0
    6.8156   -0.6744    0.3491 H   0  0  0  0  0  0  0  0  0  0  0  0
    6.2856   -1.7777    1.5793 H   0  0  0  0  0  0  0  0  0  0  0  0
    8.1797   -2.5737    0.0494 H   0  0  0  0  0  0  0  0  0  0  0  0
    7.4357   -3.5771   -2.1846 H   0  0  0  0  0  0  0  0  0  0  0  0
    7.5650   -1.8634   -2.1092 H   0  0  0  0  0  0  0  0  0  0  0  0
    2.9116   -2.4227   -0.0233 H   0  0  0  0  0  0  0  0  0  0  0  0
    3.8769   -2.8434    1.3565 H   0  0  0  0  0  0  0  0  0  0  0  0
  1  5  1  0
  1  2  2  0
  1 18  1  0
  2  3  1  0
  3 15  1  0
  3  4  2  0
  4  5  1  0
  4  9  1  0
  5  6  1  0
  6  8  1  0
  6  7  1  0
  6 19  1  0
  7  8  1  0
  7 20  1  0
  7 21  1  0
  8 22  1  0
  8 23  1  0
  9 17  1  0
  9 10  1  0
  9 24  1  6
 10 11  1  0
 10 25  1  0
 10 26  1  0
 11 16  1  0
 11 12  1  0
 11 27  1  6
 12 13  1  0
 12 28  1  0
 12 29  1  0
 13 14  1  0
 13 17  1  0
 13 30  1  1
 14 15  1  0
 14 31  1  0
 14 32  1  0
 15 16  1  0
 15 33  1  6
 16 34  1  0
 16 35  1  0
 17 36  1  0
 17 37  1  0
M  END
>  <i_m_ct_stereo_status>  (279) 
1

>  <s_m_source_file>  (279) 
/var/tmp/pbs.5076255.sched01/tmpq3cms3f1/82_sdm1vz9.sdf

>  <i_m_source_file_index>  (279) 
35

>  <i_lp_mmshare_version>  (279) 
48012

>  <i_f3d_flags>  (279) 
2

>  <s_epik_input>  (279) 
W0NIMl0xW0NIMl1bQ0hdMW4oW2NIXW4yKWMoYzIzKVtDQEBIXTRbQ0gyXVtDQEhdNVtDSDJdW0NAQEhdKFtDSDJdNClbQ0gyXVtDQEBIXTNbQ0gyXTU=

>  <s_epik_cmdline>  (279) 
J2VwaWtfcHl0aG9uJywgJy1waHQnLCAnMi4wJywgJy1waCcsICc3LjAnLCAnLXRuJywgJzgnLCAnLW1hJywgJzIwMCcsICctaW1hZScsICc8aW5maWxlLm1hZT4nLCAnLW9tYWUnLCAnPG91dGZpbGUubWFlPic=

>  <r_lp_tautomer_probability>  (279) 
1

>  <r_epik_Ionization_Penalty>  (279) 
2.29642

>  <r_epik_Ionization_Penalty_Charging>  (279) 
2.29642

>  <r_epik_Ionization_Penalty_Neutral>  (279) 
1.06956e-10

>  <r_epik_State_Penalty>  (279) 
2.44682

>  <r_epik_Charging_Adjusted_Penalty>  (279) 
4.74324

>  <i_epik_Tot_Q>  (279) 
0

>  <i_epik_Tot_abs_Q>  (279) 
0

>  <s_lp_Force_Field>  (279) 
OPLS3e

>  <r_lp_Energy>  (279) 
18.0155

>  <b_lp_Chiralities_Consistent>  (279) 
0

>  <s_lp_Variant>  (279) 
80:0-2

>  <s_i_glide_gridfile>  (279) 
pfpi4k_grid

>  <i_i_glide_lignum>  (279) 
35

>  <i_i_glide_rotatable_bonds>  (279) 
1

>  <r_i_docking_score>  (279) 
-3.4765

>  <r_i_glide_ligand_efficiency>  (279) 
-0.2045

>  <r_i_glide_ligand_efficiency_sa>  (279) 
-0.525827

>  <r_i_glide_ligand_efficiency_ln>  (279) 
-0.906942

>  <r_i_glide_gscore>  (279) 
-3.4765

>  <r_i_glide_lipo>  (279) 
-0.455611

>  <r_i_glide_hbond>  (279) 
0

>  <r_i_glide_metal>  (279) 
-0

>  <r_i_glide_rewards>  (279) 
-2.09871

>  <r_i_glide_evdw>  (279) 
-23.7814

>  <r_i_glide_ecoul>  (279) 
-0.399394

>  <r_i_glide_erotb>  (279) 
0.326801

>  <r_i_glide_esite>  (279) 
0

>  <r_i_glide_emodel>  (279) 
-29.2608

>  <r_i_glide_energy>  (279) 
-24.1808

>  <r_i_glide_einternal>  (279) 
1.04868

>  <r_i_glide_intrahb_reward>  (279) 
-0

>  <i_i_glide_confnum>  (279) 
4

>  <i_i_glide_posenum>  (279) 
17

>  <r_i_glide_eff_state_penalty>  (279) 
0

>  <ligand_id>  (279) 
80

>  <original_smiles>  (279) 
c1nc2c(n1C1CC1)C1CC3CC(CC2C3)C1

>  <smiles>  (279) 
[H]c1nc2c(n1C1([H])C([H])([H])C1([H])[H])C1([H])C([H])([H])C3([H])C([H])([H])C2([H])C([H])([H])C([H])(C1([H])[H])C3([H])[H]

$$$$
80:1:2
     RDKit          3D

 37 41  0  0  1  0  0  0  0  0999 V2000
    4.7983   -6.0057    1.1275 C   0  0  0  0  0  0  0  0  0  0  0  0
    5.8568   -5.5184    0.4910 N   0  0  0  0  0  0  0  0  0  0  0  0
    5.3818   -4.3274   -0.0473 C   0  0  0  0  0  0  0  0  0  0  0  0
    4.0702   -4.1467    0.2825 C   0  0  0  0  0  0  0  0  0  0  0  0
    3.6910   -5.2416    1.0609 N   0  0  0  0  0  0  0  0  0  0  0  0
    2.3856   -5.4887    1.6698 C   0  0  0  0  0  0  0  0  0  0  0  0
    2.3930   -6.2749    2.9620 C   0  0  0  0  0  0  0  0  0  0  0  0
    1.9219   -6.9269    1.6776 C   0  0  0  0  0  0  0  0  0  0  0  0
    3.2369   -2.9751   -0.1281 C   0  0  2  0  0  0  0  0  0  0  0  0
    3.1155   -2.8888   -1.6704 C   0  0  0  0  0  0  0  0  0  0  0  0
    4.3752   -2.3257   -2.3714 C   0  0  1  0  0  0  0  0  0  0  0  0
    4.7086   -0.9515   -1.7859 C   0  0  0  0  0  0  0  0  0  0  0  0
    5.0461   -1.1266   -0.2984 C   0  0  2  0  0  0  0  0  0  0  0  0
    6.3120   -2.0103   -0.1487 C   0  0  0  0  0  0  0  0  0  0  0  0
    6.1992   -3.3808   -0.8606 C   0  0  2  0  0  0  0  0  0  0  0  0
    5.6207   -3.2447   -2.2911 C   0  0  0  0  0  0  0  0  0  0  0  0
    3.8027   -1.6576    0.4577 C   0  0  0  0  0  0  0  0  0  0  0  0
    4.8384   -6.9426    1.6633 H   0  0  0  0  0  0  0  0  0  0  0  0
    1.6705   -4.6843    1.5430 H   0  0  0  0  0  0  0  0  0  0  0  0
    3.3436   -6.6000    3.3805 H   0  0  0  0  0  0  0  0  0  0  0  0
    1.6367   -6.0119    3.6991 H   0  0  0  0  0  0  0  0  0  0  0  0
    0.8535   -7.0978    1.5609 H   0  0  0  0  0  0  0  0  0  0  0  0
    2.5599   -7.6879    1.2321 H   0  0  0  0  0  0  0  0  0  0  0  0
    2.2305   -3.0955    0.2629 H   0  0  0  0  0  0  0  0  0  0  0  0
    2.8541   -3.8546   -2.0872 H   0  0  0  0  0  0  0  0  0  0  0  0
    2.2667   -2.2527   -1.9200 H   0  0  0  0  0  0  0  0  0  0  0  0
    4.1317   -2.1952   -3.4255 H   0  0  0  0  0  0  0  0  0  0  0  0
    5.5412   -0.4971   -2.3193 H   0  0  0  0  0  0  0  0  0  0  0  0
    3.8711   -0.2662   -1.9153 H   0  0  0  0  0  0  0  0  0  0  0  0
    5.2827   -0.1467    0.1154 H   0  0  0  0  0  0  0  0  0  0  0  0
    7.1568   -1.4745   -0.5786 H   0  0  0  0  0  0  0  0  0  0  0  0
    6.5649   -2.1452    0.9040 H   0  0  0  0  0  0  0  0  0  0  0  0
    7.2050   -3.7936   -0.9467 H   0  0  0  0  0  0  0  0  0  0  0  0
    5.3955   -4.2291   -2.7051 H   0  0  0  0  0  0  0  0  0  0  0  0
    6.3975   -2.8283   -2.9343 H   0  0  0  0  0  0  0  0  0  0  0  0
    3.0211   -0.8968    0.4085 H   0  0  0  0  0  0  0  0  0  0  0  0
    4.0222   -1.7792    1.5188 H   0  0  0  0  0  0  0  0  0  0  0  0
  1  5  1  0
  1  2  2  0
  1 18  1  0
  2  3  1  0
  3 15  1  0
  3  4  2  0
  4  5  1  0
  4  9  1  0
  5  6  1  0
  6  8  1  0
  6  7  1  0
  6 19  1  0
  7  8  1  0
  7 20  1  0
  7 21  1  0
  8 22  1  0
  8 23  1  0
  9 17  1  0
  9 10  1  0
  9 24  1  1
 10 11  1  0
 10 25  1  0
 10 26  1  0
 11 16  1  0
 11 12  1  0
 11 27  1  6
 12 13  1  0
 12 28  1  0
 12 29  1  0
 13 14  1  0
 13 17  1  0
 13 30  1  1
 14 15  1  0
 14 31  1  0
 14 32  1  0
 15 16  1  0
 15 33  1  6
 16 34  1  0
 16 35  1  0
 17 36  1  0
 17 37  1  0
M  END
>  <i_m_ct_stereo_status>  (280) 
1

>  <s_m_source_file>  (280) 
/var/tmp/pbs.5076255.sched01/tmpq3cms3f1/82_sdm1vz9.sdf

>  <i_m_source_file_index>  (280) 
35

>  <i_lp_mmshare_version>  (280) 
48012

>  <i_f3d_flags>  (280) 
2

>  <s_epik_input>  (280) 
W0NIMl0xW0NIMl1bQ0hdMW4oW2NIXW4yKWMoYzIzKVtDQEBIXTRbQ0gyXVtDQEhdNVtDSDJdW0NAQEhdKFtDSDJdNClbQ0gyXVtDQEBIXTNbQ0gyXTU=

>  <s_epik_cmdline>  (280) 
J2VwaWtfcHl0aG9uJywgJy1waHQnLCAnMi4wJywgJy1waCcsICc3LjAnLCAnLXRuJywgJzgnLCAnLW1hJywgJzIwMCcsICctaW1hZScsICc8aW5maWxlLm1hZT4nLCAnLW9tYWUnLCAnPG91dGZpbGUubWFlPic=

>  <r_lp_tautomer_probability>  (280) 
1

>  <r_epik_Ionization_Penalty>  (280) 
2.29642

>  <r_epik_Ionization_Penalty_Charging>  (280) 
2.29642

>  <r_epik_Ionization_Penalty_Neutral>  (280) 
1.06956e-10

>  <r_epik_State_Penalty>  (280) 
2.44682

>  <r_epik_Charging_Adjusted_Penalty>  (280) 
4.74324

>  <i_epik_Tot_Q>  (280) 
0

>  <i_epik_Tot_abs_Q>  (280) 
0

>  <s_lp_Force_Field>  (280) 
OPLS3e

>  <r_lp_Energy>  (280) 
18.0155

>  <b_lp_Chiralities_Consistent>  (280) 
0

>  <s_lp_Variant>  (280) 
80:0-2

>  <s_i_glide_gridfile>  (280) 
pfpi4k_grid

>  <i_i_glide_lignum>  (280) 
35

>  <i_i_glide_rotatable_bonds>  (280) 
1

>  <r_i_docking_score>  (280) 
-3.26823

>  <r_i_glide_ligand_efficiency>  (280) 
-0.192249

>  <r_i_glide_ligand_efficiency_sa>  (280) 
-0.494325

>  <r_i_glide_ligand_efficiency_ln>  (280) 
-0.852607

>  <r_i_glide_gscore>  (280) 
-3.26823

>  <r_i_glide_lipo>  (280) 
-0.4697

>  <r_i_glide_hbond>  (280) 
0

>  <r_i_glide_metal>  (280) 
-0

>  <r_i_glide_rewards>  (280) 
-1.97231

>  <r_i_glide_evdw>  (280) 
-22.7743

>  <r_i_glide_ecoul>  (280) 
-0.0953857

>  <r_i_glide_erotb>  (280) 
0.326801

>  <r_i_glide_esite>  (280) 
0

>  <r_i_glide_emodel>  (280) 
-27.6119

>  <r_i_glide_energy>  (280) 
-22.8696

>  <r_i_glide_einternal>  (280) 
1.05171

>  <r_i_glide_intrahb_reward>  (280) 
-0

>  <i_i_glide_confnum>  (280) 
4

>  <i_i_glide_posenum>  (280) 
36

>  <r_i_glide_eff_state_penalty>  (280) 
0

>  <ligand_id>  (280) 
80

>  <original_smiles>  (280) 
c1nc2c(n1C1CC1)C1CC3CC(CC2C3)C1

>  <smiles>  (280) 
[H]c1nc2c(n1C1([H])C([H])([H])C1([H])[H])C1([H])C([H])([H])C3([H])C([H])([H])C2([H])C([H])([H])C([H])(C1([H])[H])C3([H])[H]

$$$$
81:0:0
     RDKit          3D

 89 94  0  0  1  0  0  0  0  0999 V2000
    1.7673    4.1779    4.0781 C   0  0  0  0  0  0  0  0  0  0  0  0
    1.8330    2.7775    4.3077 O   0  0  0  0  0  0  0  0  0  0  0  0
    2.5262    2.0987    3.3168 C   0  0  2  0  0  0  0  0  0  0  0  0
    1.7833    2.0548    2.1213 O   0  0  0  0  0  0  0  0  0  0  0  0
    1.3696    0.7419    1.8362 C   0  0  1  0  0  0  0  0  0  0  0  0
    2.2124    0.1344    0.8930 O   0  0  0  0  0  0  0  0  0  0  0  0
    1.4577    0.0114    3.1759 C   0  0  1  0  0  0  0  0  0  0  0  0
    1.5763   -1.5009    3.1948 C   0  0  0  0  0  0  0  0  0  0  0  0
    2.4204   -2.1549    4.0303 C   0  0  0  0  0  0  0  0  0  0  0  0
    3.2837   -1.4035    5.0763 C   0  0  1  0  0  0  0  0  0  0  0  0
    4.7386   -1.8937    4.8918 C   0  0  0  0  0  0  0  0  0  0  0  0
    4.8755   -3.4004    5.2161 C   0  0  0  0  0  0  0  0  0  0  0  0
    3.5513   -4.2116    5.0612 C   0  0  1  0  0  0  0  0  0  0  0  0
    2.6648   -3.6785    3.8815 C   0  0  2  0  0  0  0  0  0  0  0  0
    3.3300   -3.8982    2.4905 C   0  0  0  0  0  0  0  0  0  0  0  0
    1.3089   -4.4203    3.9383 C   0  0  0  0  0  0  0  0  0  0  0  0
    1.4550   -5.9465    3.9858 C   0  0  0  0  0  0  0  0  0  0  0  0
    0.9048   -6.6221    3.1194 O   0  0  0  0  0  0  0  0  0  0  0  0
    2.2541   -6.5391    5.1773 C   0  0  1  0  0  0  0  0  0  0  0  0
    1.4389   -6.1583    6.4599 C   0  0  0  0  0  0  0  0  0  0  0  0
    2.4134   -8.1517    5.1333 C   0  0  1  0  0  0  0  0  0  0  0  0
    1.1448   -9.1036    4.9852 C   0  0  1  0  0  0  0  0  0  0  0  0
   -0.1696   -8.6444    5.6481 C   0  0  0  0  0  0  0  0  0  0  0  0
    0.9035   -9.8631    3.6236 C   0  0  1  0  0  0  0  0  0  0  0  0
   -0.4087   -9.5653    2.8686 C   0  0  0  0  0  0  0  0  0  0  0  0
    2.1012   -9.9725    2.6485 C   0  0  0  0  0  0  0  0  0  0  0  0
    3.1907   -8.9141    2.8240 C   0  0  0  0  0  0  0  0  0  0  0  0
    3.6095   -8.7433    4.2989 C   0  0  2  0  0  0  0  0  0  0  0  0
    4.0541  -10.1244    4.8660 C   0  0  0  0  0  0  0  0  0  0  0  0
    4.8778   -7.8755    4.3743 C   0  0  0  0  0  0  0  0  0  0  0  0
    4.6115   -6.3903    4.1632 C   0  0  0  0  0  0  0  0  0  0  0  0
    3.6703   -5.7934    5.2416 C   0  0  1  0  0  0  0  0  0  0  0  0
    4.3430   -6.0256    6.6333 C   0  0  0  0  0  0  0  0  0  0  0  0
    3.0530    0.1673    5.1431 C   0  0  0  0  0  0  0  0  0  0  0  0
    1.8827    0.4001    6.1380 C   0  0  0  0  0  0  0  0  0  0  0  0
    4.2833    0.9318    5.6806 C   0  0  0  0  0  0  0  0  0  0  0  0
    2.7288    0.6181    3.6954 C   0  0  2  0  0  0  0  0  0  0  0  0
    1.2384    4.6513    4.9039 H   0  0  0  0  0  0  0  0  0  0  0  0
    1.2325    4.4094    3.1559 H   0  0  0  0  0  0  0  0  0  0  0  0
    2.7602    4.6311    4.0241 H   0  0  0  0  0  0  0  0  0  0  0  0
    3.4678    2.6032    3.1338 H   0  0  0  0  0  0  0  0  0  0  0  0
    0.3673    0.7541    1.4141 H   0  0  0  0  0  0  0  0  0  0  0  0
    1.6465   -0.2583    0.2085 H   0  0  0  0  0  0  0  0  0  0  0  0
    0.5884    0.3176    3.7593 H   0  0  0  0  0  0  0  0  0  0  0  0
    1.0074   -2.0274    2.4482 H   0  0  0  0  0  0  0  0  0  0  0  0
    2.9867   -1.7708    6.0599 H   0  0  0  0  0  0  0  0  0  0  0  0
    5.0518   -1.7135    3.8608 H   0  0  0  0  0  0  0  0  0  0  0  0
    5.4487   -1.3617    5.5214 H   0  0  0  0  0  0  0  0  0  0  0  0
    5.6905   -3.8117    4.6246 H   0  0  0  0  0  0  0  0  0  0  0  0
    5.1960   -3.4800    6.2562 H   0  0  0  0  0  0  0  0  0  0  0  0
    2.9994   -3.9031    5.9434 H   0  0  0  0  0  0  0  0  0  0  0  0
    3.1125   -4.8712    2.0546 H   0  0  0  0  0  0  0  0  0  0  0  0
    4.4144   -3.7873    2.5281 H   0  0  0  0  0  0  0  0  0  0  0  0
    2.9795   -3.1838    1.7462 H   0  0  0  0  0  0  0  0  0  0  0  0
    0.7487   -4.1051    4.8170 H   0  0  0  0  0  0  0  0  0  0  0  0
    0.7016   -4.1641    3.0723 H   0  0  0  0  0  0  0  0  0  0  0  0
    1.6641   -6.8090    7.3061 H   0  0  0  0  0  0  0  0  0  0  0  0
    0.3621   -6.1905    6.2990 H   0  0  0  0  0  0  0  0  0  0  0  0
    1.6147   -5.1487    6.8145 H   0  0  0  0  0  0  0  0  0  0  0  0
    2.7188   -8.3679    6.1559 H   0  0  0  0  0  0  0  0  0  0  0  0
    1.4078   -9.9302    5.6483 H   0  0  0  0  0  0  0  0  0  0  0  0
   -0.6284   -7.8173    5.1059 H   0  0  0  0  0  0  0  0  0  0  0  0
   -0.0210   -8.3586    6.6891 H   0  0  0  0  0  0  0  0  0  0  0  0
   -0.8965   -9.4540    5.6811 H   0  0  0  0  0  0  0  0  0  0  0  0
    0.7404  -10.8999    3.9323 H   0  0  0  0  0  0  0  0  0  0  0  0
   -0.4472   -8.5529    2.4730 H   0  0  0  0  0  0  0  0  0  0  0  0
   -1.2897   -9.7193    3.4866 H   0  0  0  0  0  0  0  0  0  0  0  0
   -0.5278  -10.2504    2.0325 H   0  0  0  0  0  0  0  0  0  0  0  0
    2.5569  -10.9609    2.7435 H   0  0  0  0  0  0  0  0  0  0  0  0
    1.7531   -9.9312    1.6159 H   0  0  0  0  0  0  0  0  0  0  0  0
    4.0464   -9.1980    2.2093 H   0  0  0  0  0  0  0  0  0  0  0  0
    2.8422   -7.9741    2.4043 H   0  0  0  0  0  0  0  0  0  0  0  0
    4.8620  -10.5502    4.2668 H   0  0  0  0  0  0  0  0  0  0  0  0
    3.2608  -10.8701    4.8905 H   0  0  0  0  0  0  0  0  0  0  0  0
    4.4189  -10.0356    5.8895 H   0  0  0  0  0  0  0  0  0  0  0  0
    5.3865   -8.0306    5.3253 H   0  0  0  0  0  0  0  0  0  0  0  0
    5.5926   -8.2148    3.6218 H   0  0  0  0  0  0  0  0  0  0  0  0
    5.5748   -5.8858    4.1492 H   0  0  0  0  0  0  0  0  0  0  0  0
    4.2082   -6.2774    3.1645 H   0  0  0  0  0  0  0  0  0  0  0  0
    4.2669   -7.0563    6.9779 H   0  0  0  0  0  0  0  0  0  0  0  0
    3.9027   -5.4043    7.4151 H   0  0  0  0  0  0  0  0  0  0  0  0
    5.4088   -5.7870    6.5996 H   0  0  0  0  0  0  0  0  0  0  0  0
    1.6046    1.4480    6.2320 H   0  0  0  0  0  0  0  0  0  0  0  0
    2.1516    0.0711    7.1419 H   0  0  0  0  0  0  0  0  0  0  0  0
    0.9866   -0.1545    5.8629 H   0  0  0  0  0  0  0  0  0  0  0  0
    4.0611    1.9893    5.8212 H   0  0  0  0  0  0  0  0  0  0  0  0
    5.1336    0.8737    4.9973 H   0  0  0  0  0  0  0  0  0  0  0  0
    4.5999    0.5412    6.6499 H   0  0  0  0  0  0  0  0  0  0  0  0
    3.5620    0.2830    3.0746 H   0  0  0  0  0  0  0  0  0  0  0  0
  1  2  1  0
  1 38  1  0
  1 39  1  0
  1 40  1  0
  2  3  1  0
  3 37  1  0
  3  4  1  0
  3 41  1  6
  4  5  1  0
  5  6  1  0
  5  7  1  0
  5 42  1  6
  6 43  1  0
  7 37  1  0
  7  8  1  0
  7 44  1  1
  8  9  2  0
  8 45  1  0
  9 14  1  0
  9 10  1  0
 10 11  1  0
 10 34  1  0
 10 46  1  1
 11 12  1  0
 11 47  1  0
 11 48  1  0
 12 13  1  0
 12 49  1  0
 12 50  1  0
 13 32  1  0
 13 14  1  0
 13 51  1  1
 14 15  1  6
 14 16  1  0
 15 52  1  0
 15 53  1  0
 15 54  1  0
 16 17  1  0
 16 55  1  0
 16 56  1  0
 17 18  2  0
 17 19  1  0
 19 32  1  0
 19 20  1  1
 19 21  1  0
 20 57  1  0
 20 58  1  0
 20 59  1  0
 21 28  1  0
 21 22  1  0
 21 60  1  1
 22 23  1  0
 22 24  1  0
 22 61  1  1
 23 62  1  0
 23 63  1  0
 23 64  1  0
 24 25  1  0
 24 26  1  0
 24 65  1  1
 25 66  1  0
 25 67  1  0
 25 68  1  0
 26 27  1  0
 26 69  1  0
 26 70  1  0
 27 28  1  0
 27 71  1  0
 27 72  1  0
 28 29  1  1
 28 30  1  0
 29 73  1  0
 29 74  1  0
 29 75  1  0
 30 31  1  0
 30 76  1  0
 30 77  1  0
 31 32  1  0
 31 78  1  0
 31 79  1  0
 32 33  1  1
 33 80  1  0
 33 81  1  0
 33 82  1  0
 34 35  1  0
 34 36  1  0
 34 37  1  0
 35 83  1  0
 35 84  1  0
 35 85  1  0
 36 86  1  0
 36 87  1  0
 36 88  1  0
 37 89  1  6
M  END
>  <i_m_ct_stereo_status>  (281) 
1

>  <s_m_source_file>  (281) 
/var/tmp/pbs.5076255.sched01/tmpq3cms3f1/82_sdm1vz9.sdf

>  <i_m_source_file_index>  (281) 
36

>  <i_lp_mmshare_version>  (281) 
48012

>  <i_f3d_flags>  (281) 
0

>  <s_epik_input>  (281) 
W0NIM11PW0NAQEhdMU9bQ0BASF0oW09IXSlbQ0BASF0oW0NIXT0yKVtDQEBIXTFDKFtDSDNdKShbQ0gzXSlbQ0BASF0oQzJbQ0BAXTM0W0NIM10pW0NIMl1bQ0gyXVtDQEBIXTNbQ0BAXTUoW0NIM10pW0NAQF0oW0NIM10pKEMoPU8pW0NIMl00KVtDQEBIXTZbQ0BdKFtDSDNdKShbQ0gyXVtDSDJdNSlbQ0gyXVtDSDJdW0NASF0oW0NIM10pW0NAQEhdNltDSDNd

>  <s_epik_cmdline>  (281) 
J2VwaWtfcHl0aG9uJywgJy1waHQnLCAnMi4wJywgJy1waCcsICc3LjAnLCAnLXRuJywgJzgnLCAnLW1hJywgJzIwMCcsICctaW1hZScsICc8aW5maWxlLm1hZT4nLCAnLW9tYWUnLCAnPG91dGZpbGUubWFlPic=

>  <r_lp_tautomer_probability>  (281) 
1

>  <r_epik_Ionization_Penalty>  (281) 
3.07894e-07

>  <r_epik_Ionization_Penalty_Charging>  (281) 
0

>  <r_epik_Ionization_Penalty_Neutral>  (281) 
3.07894e-07

>  <r_epik_State_Penalty>  (281) 
-0

>  <r_epik_Charging_Adjusted_Penalty>  (281) 
0

>  <i_epik_Tot_Q>  (281) 
0

>  <i_epik_Tot_abs_Q>  (281) 
0

>  <s_epik_Chemistry_Notes>  (281) 
This compound contains an acetal/aminal-like group ( X-CH(R)-Y where X, Y are N, S, or O) that may be acid/base labile, releasing an aldehyde.

>  <s_lp_Force_Field>  (281) 
OPLS3e

>  <r_lp_Energy>  (281) 
107.053

>  <b_lp_Chiralities_Consistent>  (281) 
1

>  <s_lp_Variant>  (281) 
81:0-1

>  <s_i_glide_gridfile>  (281) 
pfpi4k_grid

>  <i_i_glide_lignum>  (281) 
36

>  <i_i_glide_rotatable_bonds>  (281) 
2

>  <r_i_docking_score>  (281) 
-2.40775

>  <r_i_glide_ligand_efficiency>  (281) 
-0.0650743

>  <r_i_glide_ligand_efficiency_sa>  (281) 
-0.216842

>  <r_i_glide_ligand_efficiency_ln>  (281) 
-0.522184

>  <r_i_glide_gscore>  (281) 
-2.40775

>  <r_i_glide_lipo>  (281) 
-0.106614

>  <r_i_glide_hbond>  (281) 
0

>  <r_i_glide_metal>  (281) 
-0

>  <r_i_glide_rewards>  (281) 
0

>  <r_i_glide_evdw>  (281) 
-18.1195

>  <r_i_glide_ecoul>  (281) 
-8.73035

>  <r_i_glide_erotb>  (281) 
0

>  <r_i_glide_esite>  (281) 
-0.0856082

>  <r_i_glide_emodel>  (281) 
-29.7897

>  <r_i_glide_energy>  (281) 
-26.8498

>  <r_i_glide_einternal>  (281) 
2.07516

>  <r_i_glide_intrahb_reward>  (281) 
-0

>  <i_i_glide_confnum>  (281) 
2

>  <i_i_glide_posenum>  (281) 
30

>  <r_i_glide_eff_state_penalty>  (281) 
0

>  <ligand_id>  (281) 
81

>  <original_smiles>  (281) 
COC1OC(O)C2C=C3C(CCC4C3(C)CC(=O)C3(C)C5C(C)C(C)CCC5(C)CCC43C)C(C)(C)C12

>  <smiles>  (281) 
[H]OC1([H])OC([H])(OC([H])([H])[H])C2([H])C1([H])C([H])=C1C([H])(C([H])([H])C([H])([H])C3([H])C1(C([H])([H])[H])C([H])([H])C(=O)C1(C([H])([H])[H])C4([H])C([H])(C([H])([H])[H])C([H])(C([H])([H])[H])C([H])([H])C([H])([H])C4(C([H])([H])[H])C([H])([H])C([H])([H])C31C([H])([H])[H])C2(C([H])([H])[H])C([H])([H])[H]

$$$$
81:0:1
     RDKit          3D

 89 94  0  0  1  0  0  0  0  0999 V2000
   -1.4788    2.1354    2.8546 C   0  0  0  0  0  0  0  0  0  0  0  0
   -0.8541    2.3549    4.1236 O   0  0  0  0  0  0  0  0  0  0  0  0
    0.4940    1.9808    4.2593 C   0  0  2  0  0  0  0  0  0  0  0  0
    1.2467    2.1558    3.0810 O   0  0  0  0  0  0  0  0  0  0  0  0
    1.6993    0.9349    2.5638 C   0  0  1  0  0  0  0  0  0  0  0  0
    3.0595    0.7304    2.8310 O   0  0  0  0  0  0  0  0  0  0  0  0
    0.7968   -0.1218    3.2346 C   0  0  1  0  0  0  0  0  0  0  0  0
    1.2718   -1.5529    3.3620 C   0  0  0  0  0  0  0  0  0  0  0  0
    1.0849   -2.2789    4.4863 C   0  0  0  0  0  0  0  0  0  0  0  0
    0.3376   -1.7140    5.7313 C   0  0  1  0  0  0  0  0  0  0  0  0
    1.2748   -1.9470    6.9365 C   0  0  0  0  0  0  0  0  0  0  0  0
    1.4934   -3.4526    7.1939 C   0  0  0  0  0  0  0  0  0  0  0  0
    1.2744   -4.3611    5.9441 C   0  0  1  0  0  0  0  0  0  0  0  0
    1.7392   -3.6621    4.6199 C   0  0  2  0  0  0  0  0  0  0  0  0
    3.2768   -3.4222    4.5671 C   0  0  0  0  0  0  0  0  0  0  0  0
    1.3081   -4.5540    3.4365 C   0  0  0  0  0  0  0  0  0  0  0  0
    1.7600   -6.0059    3.5857 C   0  0  0  0  0  0  0  0  0  0  0  0
    2.4518   -6.5103    2.6923 O   0  0  0  0  0  0  0  0  0  0  0  0
    1.2730   -6.7797    4.8328 C   0  0  1  0  0  0  0  0  0  0  0  0
   -0.2861   -6.8509    4.6948 C   0  0  0  0  0  0  0  0  0  0  0  0
    1.8462   -8.2922    4.9372 C   0  0  1  0  0  0  0  0  0  0  0  0
    1.6866   -9.3266    3.7324 C   0  0  1  0  0  0  0  0  0  0  0  0
    0.4129   -9.2290    2.8706 C   0  0  0  0  0  0  0  0  0  0  0  0
    2.9626   -9.7320    2.8921 C   0  0  1  0  0  0  0  0  0  0  0  0
    2.9371   -9.4118    1.3794 C   0  0  0  0  0  0  0  0  0  0  0  0
    4.3509   -9.4257    3.5064 C   0  0  0  0  0  0  0  0  0  0  0  0
    4.3735   -8.3194    4.5577 C   0  0  0  0  0  0  0  0  0  0  0  0
    3.2585   -8.4908    5.6091 C   0  0  2  0  0  0  0  0  0  0  0  0
    3.3723   -9.9008    6.2565 C   0  0  0  0  0  0  0  0  0  0  0  0
    3.5029   -7.5141    6.7775 C   0  0  0  0  0  0  0  0  0  0  0  0
    3.1350   -6.0734    6.4543 C   0  0  0  0  0  0  0  0  0  0  0  0
    1.6290   -5.9046    6.1249 C   0  0  1  0  0  0  0  0  0  0  0  0
    0.8129   -6.3984    7.3549 C   0  0  0  0  0  0  0  0  0  0  0  0
   -0.2780   -0.2576    5.5632 C   0  0  0  0  0  0  0  0  0  0  0  0
   -1.7071   -0.4414    4.9925 C   0  0  0  0  0  0  0  0  0  0  0  0
   -0.4103    0.5010    6.9015 C   0  0  0  0  0  0  0  0  0  0  0  0
    0.6816    0.5027    4.6199 C   0  0  2  0  0  0  0  0  0  0  0  0
   -2.5206    2.5098    2.8841 H   0  0  0  0  0  0  0  0  0  0  0  0
   -1.4801    1.0831    2.5695 H   0  0  0  0  0  0  0  0  0  0  0  0
   -0.9607    2.7163    2.0854 H   0  0  0  0  0  0  0  0  0  0  0  0
    0.9158    2.6283    5.0243 H   0  0  0  0  0  0  0  0  0  0  0  0
    1.5673    0.9202    1.4845 H   0  0  0  0  0  0  0  0  0  0  0  0
    3.5353    1.4509    2.4463 H   0  0  0  0  0  0  0  0  0  0  0  0
   -0.1630   -0.1556    2.7011 H   0  0  0  0  0  0  0  0  0  0  0  0
    1.7976   -1.9360    2.5030 H   0  0  0  0  0  0  0  0  0  0  0  0
   -0.5242   -2.3555    5.9140 H   0  0  0  0  0  0  0  0  0  0  0  0
    2.2305   -1.4673    6.7331 H   0  0  0  0  0  0  0  0  0  0  0  0
    0.9038   -1.4970    7.8588 H   0  0  0  0  0  0  0  0  0  0  0  0
    2.4782   -3.5871    7.6446 H   0  0  0  0  0  0  0  0  0  0  0  0
    0.7789   -3.7518    7.9521 H   0  0  0  0  0  0  0  0  0  0  0  0
    0.1846   -4.3642    5.8555 H   0  0  0  0  0  0  0  0  0  0  0  0
    3.8303   -4.2667    4.1603 H   0  0  0  0  0  0  0  0  0  0  0  0
    3.6875   -3.1815    5.5482 H   0  0  0  0  0  0  0  0  0  0  0  0
    3.5473   -2.5922    3.9178 H   0  0  0  0  0  0  0  0  0  0  0  0
    0.2226   -4.5504    3.3486 H   0  0  0  0  0  0  0  0  0  0  0  0
    1.6957   -4.1650    2.4960 H   0  0  0  0  0  0  0  0  0  0  0  0
   -0.7164   -7.6651    5.2784 H   0  0  0  0  0  0  0  0  0  0  0  0
   -0.6151   -6.9803    3.6676 H   0  0  0  0  0  0  0  0  0  0  0  0
   -0.8023   -5.9537    5.0202 H   0  0  0  0  0  0  0  0  0  0  0  0
    1.1771   -8.7261    5.6778 H   0  0  0  0  0  0  0  0  0  0  0  0
    1.4795  -10.2559    4.2710 H   0  0  0  0  0  0  0  0  0  0  0  0
    0.4293   -8.3546    2.2216 H   0  0  0  0  0  0  0  0  0  0  0  0
   -0.4872   -9.2107    3.4816 H   0  0  0  0  0  0  0  0  0  0  0  0
    0.3035  -10.1015    2.2243 H   0  0  0  0  0  0  0  0  0  0  0  0
    2.9299  -10.8144    2.8799 H   0  0  0  0  0  0  0  0  0  0  0  0
    2.9433   -8.3447    1.1806 H   0  0  0  0  0  0  0  0  0  0  0  0
    2.0755   -9.8554    0.8816 H   0  0  0  0  0  0  0  0  0  0  0  0
    3.8099   -9.8321    0.8795 H   0  0  0  0  0  0  0  0  0  0  0  0
    4.7497  -10.3430    3.9562 H   0  0  0  0  0  0  0  0  0  0  0  0
    5.0583   -9.1773    2.7207 H   0  0  0  0  0  0  0  0  0  0  0  0
    5.3596   -8.3219    5.0380 H   0  0  0  0  0  0  0  0  0  0  0  0
    4.3065   -7.3577    4.0667 H   0  0  0  0  0  0  0  0  0  0  0  0
    4.3587  -10.0522    6.6948 H   0  0  0  0  0  0  0  0  0  0  0  0
    3.2129  -10.7221    5.5617 H   0  0  0  0  0  0  0  0  0  0  0  0
    2.6406  -10.0389    7.0516 H   0  0  0  0  0  0  0  0  0  0  0  0
    2.9631   -7.8450    7.6634 H   0  0  0  0  0  0  0  0  0  0  0  0
    4.5493   -7.5560    7.0664 H   0  0  0  0  0  0  0  0  0  0  0  0
    3.4314   -5.4586    7.3089 H   0  0  0  0  0  0  0  0  0  0  0  0
    3.7701   -5.7616    5.6397 H   0  0  0  0  0  0  0  0  0  0  0  0
    0.7832   -7.4820    7.4407 H   0  0  0  0  0  0  0  0  0  0  0  0
   -0.2234   -6.0617    7.3278 H   0  0  0  0  0  0  0  0  0  0  0  0
    1.2433   -6.0272    8.2847 H   0  0  0  0  0  0  0  0  0  0  0  0
   -2.2154    0.5020    4.8125 H   0  0  0  0  0  0  0  0  0  0  0  0
   -2.3483   -0.9894    5.6827 H   0  0  0  0  0  0  0  0  0  0  0  0
   -1.7045   -1.0039    4.0645 H   0  0  0  0  0  0  0  0  0  0  0  0
   -0.9364    1.4522    6.7755 H   0  0  0  0  0  0  0  0  0  0  0  0
    0.5599    0.7347    7.3438 H   0  0  0  0  0  0  0  0  0  0  0  0
   -0.9762   -0.0737    7.6327 H   0  0  0  0  0  0  0  0  0  0  0  0
    1.6634    0.4661    5.0855 H   0  0  0  0  0  0  0  0  0  0  0  0
  1  2  1  0
  1 38  1  0
  1 39  1  0
  1 40  1  0
  2  3  1  0
  3 37  1  0
  3  4  1  0
  3 41  1  1
  4  5  1  0
  5  6  1  0
  5  7  1  0
  5 42  1  6
  6 43  1  0
  7 37  1  0
  7  8  1  0
  7 44  1  6
  8  9  2  0
  8 45  1  0
  9 14  1  0
  9 10  1  0
 10 11  1  0
 10 34  1  0
 10 46  1  1
 11 12  1  0
 11 47  1  0
 11 48  1  0
 12 13  1  0
 12 49  1  0
 12 50  1  0
 13 32  1  0
 13 14  1  0
 13 51  1  6
 14 15  1  1
 14 16  1  0
 15 52  1  0
 15 53  1  0
 15 54  1  0
 16 17  1  0
 16 55  1  0
 16 56  1  0
 17 18  2  0
 17 19  1  0
 19 32  1  0
 19 20  1  6
 19 21  1  0
 20 57  1  0
 20 58  1  0
 20 59  1  0
 21 28  1  0
 21 22  1  0
 21 60  1  1
 22 23  1  0
 22 24  1  0
 22 61  1  1
 23 62  1  0
 23 63  1  0
 23 64  1  0
 24 25  1  0
 24 26  1  0
 24 65  1  6
 25 66  1  0
 25 67  1  0
 25 68  1  0
 26 27  1  0
 26 69  1  0
 26 70  1  0
 27 28  1  0
 27 71  1  0
 27 72  1  0
 28 29  1  1
 28 30  1  0
 29 73  1  0
 29 74  1  0
 29 75  1  0
 30 31  1  0
 30 76  1  0
 30 77  1  0
 31 32  1  0
 31 78  1  0
 31 79  1  0
 32 33  1  1
 33 80  1  0
 33 81  1  0
 33 82  1  0
 34 35  1  0
 34 36  1  0
 34 37  1  0
 35 83  1  0
 35 84  1  0
 35 85  1  0
 36 86  1  0
 36 87  1  0
 36 88  1  0
 37 89  1  1
M  END
>  <i_m_ct_stereo_status>  (282) 
1

>  <s_m_source_file>  (282) 
/var/tmp/pbs.5076255.sched01/tmpq3cms3f1/82_sdm1vz9.sdf

>  <i_m_source_file_index>  (282) 
36

>  <i_lp_mmshare_version>  (282) 
48012

>  <i_f3d_flags>  (282) 
0

>  <s_epik_input>  (282) 
W0NIM11PW0NAQEhdMU9bQ0BASF0oW09IXSlbQ0BASF0oW0NIXT0yKVtDQEBIXTFDKFtDSDNdKShbQ0gzXSlbQ0BASF0oQzJbQ0BAXTM0W0NIM10pW0NIMl1bQ0gyXVtDQEBIXTNbQ0BAXTUoW0NIM10pW0NAQF0oW0NIM10pKEMoPU8pW0NIMl00KVtDQEBIXTZbQ0BdKFtDSDNdKShbQ0gyXVtDSDJdNSlbQ0gyXVtDSDJdW0NASF0oW0NIM10pW0NAQEhdNltDSDNd

>  <s_epik_cmdline>  (282) 
J2VwaWtfcHl0aG9uJywgJy1waHQnLCAnMi4wJywgJy1waCcsICc3LjAnLCAnLXRuJywgJzgnLCAnLW1hJywgJzIwMCcsICctaW1hZScsICc8aW5maWxlLm1hZT4nLCAnLW9tYWUnLCAnPG91dGZpbGUubWFlPic=

>  <r_lp_tautomer_probability>  (282) 
1

>  <r_epik_Ionization_Penalty>  (282) 
3.07894e-07

>  <r_epik_Ionization_Penalty_Charging>  (282) 
0

>  <r_epik_Ionization_Penalty_Neutral>  (282) 
3.07894e-07

>  <r_epik_State_Penalty>  (282) 
-0

>  <r_epik_Charging_Adjusted_Penalty>  (282) 
0

>  <i_epik_Tot_Q>  (282) 
0

>  <i_epik_Tot_abs_Q>  (282) 
0

>  <s_epik_Chemistry_Notes>  (282) 
This compound contains an acetal/aminal-like group ( X-CH(R)-Y where X, Y are N, S, or O) that may be acid/base labile, releasing an aldehyde.

>  <s_lp_Force_Field>  (282) 
OPLS3e

>  <r_lp_Energy>  (282) 
107.053

>  <b_lp_Chiralities_Consistent>  (282) 
1

>  <s_lp_Variant>  (282) 
81:0-1

>  <s_i_glide_gridfile>  (282) 
pfpi4k_grid

>  <i_i_glide_lignum>  (282) 
36

>  <i_i_glide_rotatable_bonds>  (282) 
2

>  <r_i_docking_score>  (282) 
-1.5767

>  <r_i_glide_ligand_efficiency>  (282) 
-0.0426136

>  <r_i_glide_ligand_efficiency_sa>  (282) 
-0.141998

>  <r_i_glide_ligand_efficiency_ln>  (282) 
-0.34195

>  <r_i_glide_gscore>  (282) 
-1.5767

>  <r_i_glide_lipo>  (282) 
-0.00755198

>  <r_i_glide_hbond>  (282) 
0

>  <r_i_glide_metal>  (282) 
-0

>  <r_i_glide_rewards>  (282) 
0

>  <r_i_glide_evdw>  (282) 
-24.9568

>  <r_i_glide_ecoul>  (282) 
-1.87032

>  <r_i_glide_erotb>  (282) 
0

>  <r_i_glide_esite>  (282) 
-0.0407624

>  <r_i_glide_emodel>  (282) 
-25.934

>  <r_i_glide_energy>  (282) 
-26.8271

>  <r_i_glide_einternal>  (282) 
5.54476

>  <r_i_glide_intrahb_reward>  (282) 
-0

>  <i_i_glide_confnum>  (282) 
1

>  <i_i_glide_posenum>  (282) 
21

>  <r_i_glide_eff_state_penalty>  (282) 
0

>  <ligand_id>  (282) 
81

>  <original_smiles>  (282) 
COC1OC(O)C2C=C3C(CCC4C3(C)CC(=O)C3(C)C5C(C)C(C)CCC5(C)CCC43C)C(C)(C)C12

>  <smiles>  (282) 
[H]OC1([H])OC([H])(OC([H])([H])[H])C2([H])C1([H])C([H])=C1C([H])(C([H])([H])C([H])([H])C3([H])C1(C([H])([H])[H])C([H])([H])C(=O)C1(C([H])([H])[H])C4([H])C([H])(C([H])([H])[H])C([H])(C([H])([H])[H])C([H])([H])C([H])([H])C4(C([H])([H])[H])C([H])([H])C([H])([H])C31C([H])([H])[H])C2(C([H])([H])[H])C([H])([H])[H]

$$$$
81:0:2
     RDKit          3D

 89 94  0  0  1  0  0  0  0  0999 V2000
    2.8180    4.5210    5.7499 C   0  0  0  0  0  0  0  0  0  0  0  0
    2.8475    3.1032    5.6723 O   0  0  0  0  0  0  0  0  0  0  0  0
    2.7166    2.6140    4.3781 C   0  0  2  0  0  0  0  0  0  0  0  0
    1.4092    2.8281    3.8907 O   0  0  0  0  0  0  0  0  0  0  0  0
    0.7219    1.6116    3.7282 C   0  0  1  0  0  0  0  0  0  0  0  0
    0.7349    1.1788    2.3847 O   0  0  0  0  0  0  0  0  0  0  0  0
    1.4742    0.6290    4.6247 C   0  0  1  0  0  0  0  0  0  0  0  0
    1.3587   -0.8589    4.3663 C   0  0  0  0  0  0  0  0  0  0  0  0
    2.4265   -1.6947    4.4291 C   0  0  0  0  0  0  0  0  0  0  0  0
    3.8363   -1.1905    4.8320 C   0  0  1  0  0  0  0  0  0  0  0  0
    4.8068   -1.6742    3.7321 C   0  0  0  0  0  0  0  0  0  0  0  0
    4.9025   -3.2170    3.6971 C   0  0  0  0  0  0  0  0  0  0  0  0
    3.6444   -3.9449    4.2647 C   0  0  1  0  0  0  0  0  0  0  0  0
    2.3198   -3.1632    3.9540 C   0  0  2  0  0  0  0  0  0  0  0  0
    2.0061   -3.1206    2.4311 C   0  0  0  0  0  0  0  0  0  0  0  0
    1.1677   -3.8645    4.7104 C   0  0  0  0  0  0  0  0  0  0  0  0
    1.1047   -5.3734    4.4462 C   0  0  0  0  0  0  0  0  0  0  0  0
    0.0731   -5.8587    3.9871 O   0  0  0  0  0  0  0  0  0  0  0  0
    2.3549   -6.2107    4.8156 C   0  0  1  0  0  0  0  0  0  0  0  0
    2.5121   -6.0668    6.3671 C   0  0  0  0  0  0  0  0  0  0  0  0
    2.2227   -7.7847    4.4569 C   0  0  1  0  0  0  0  0  0  0  0  0
    0.9870   -8.6480    4.9741 C   0  0  1  0  0  0  0  0  0  0  0  0
    0.3916   -8.2966    6.3528 C   0  0  0  0  0  0  0  0  0  0  0  0
   -0.1117   -9.1103    3.9444 C   0  0  1  0  0  0  0  0  0  0  0  0
   -1.5556   -8.6200    4.1811 C   0  0  0  0  0  0  0  0  0  0  0  0
    0.2483   -9.0643    2.4450 C   0  0  0  0  0  0  0  0  0  0  0  0
    1.3685   -8.0955    2.0683 C   0  0  0  0  0  0  0  0  0  0  0  0
    2.5946   -8.2352    2.9937 C   0  0  2  0  0  0  0  0  0  0  0  0
    3.0835   -9.7142    2.9729 C   0  0  0  0  0  0  0  0  0  0  0  0
    3.7711   -7.4368    2.4058 C   0  0  0  0  0  0  0  0  0  0  0  0
    3.6478   -5.9326    2.6110 C   0  0  0  0  0  0  0  0  0  0  0  0
    3.6224   -5.5337    4.1104 C   0  0  1  0  0  0  0  0  0  0  0  0
    4.9425   -6.0563    4.7602 C   0  0  0  0  0  0  0  0  0  0  0  0
    3.9195    0.3409    5.2436 C   0  0  0  0  0  0  0  0  0  0  0  0
    3.6074    0.4104    6.7637 C   0  0  0  0  0  0  0  0  0  0  0  0
    5.3271    0.9347    5.0314 C   0  0  0  0  0  0  0  0  0  0  0  0
    2.8815    1.0811    4.3574 C   0  0  2  0  0  0  0  0  0  0  0  0
    2.9506    4.8306    6.7862 H   0  0  0  0  0  0  0  0  0  0  0  0
    1.8664    4.9241    5.4005 H   0  0  0  0  0  0  0  0  0  0  0  0
    3.6223    4.9732    5.1663 H   0  0  0  0  0  0  0  0  0  0  0  0
    3.4351    3.1003    3.7178 H   0  0  0  0  0  0  0  0  0  0  0  0
   -0.3183    1.7273    4.0170 H   0  0  0  0  0  0  0  0  0  0  0  0
    1.6295    1.1180    2.0959 H   0  0  0  0  0  0  0  0  0  0  0  0
    1.1698    0.8396    5.6532 H   0  0  0  0  0  0  0  0  0  0  0  0
    0.3904   -1.2118    4.0512 H   0  0  0  0  0  0  0  0  0  0  0  0
    4.1292   -1.7362    5.7300 H   0  0  0  0  0  0  0  0  0  0  0  0
    4.4709   -1.3065    2.7601 H   0  0  0  0  0  0  0  0  0  0  0  0
    5.8163   -1.2904    3.8698 H   0  0  0  0  0  0  0  0  0  0  0  0
    5.1452   -3.5299    2.6838 H   0  0  0  0  0  0  0  0  0  0  0  0
    5.7574   -3.5082    4.3086 H   0  0  0  0  0  0  0  0  0  0  0  0
    3.7696   -3.8016    5.3336 H   0  0  0  0  0  0  0  0  0  0  0  0
    1.4436   -3.9866    2.0937 H   0  0  0  0  0  0  0  0  0  0  0  0
    2.9056   -3.0511    1.8186 H   0  0  0  0  0  0  0  0  0  0  0  0
    1.3904   -2.2647    2.1557 H   0  0  0  0  0  0  0  0  0  0  0  0
    1.2832   -3.7093    5.7822 H   0  0  0  0  0  0  0  0  0  0  0  0
    0.2106   -3.4272    4.4318 H   0  0  0  0  0  0  0  0  0  0  0  0
    3.0952   -6.8791    6.8027 H   0  0  0  0  0  0  0  0  0  0  0  0
    1.5546   -6.0351    6.8854 H   0  0  0  0  0  0  0  0  0  0  0  0
    3.0037   -5.1525    6.6798 H   0  0  0  0  0  0  0  0  0  0  0  0
    3.0352   -8.2103    5.0429 H   0  0  0  0  0  0  0  0  0  0  0  0
    1.4676   -9.5971    5.2174 H   0  0  0  0  0  0  0  0  0  0  0  0
   -0.1678   -7.3617    6.3217 H   0  0  0  0  0  0  0  0  0  0  0  0
    1.1609   -8.2302    7.1218 H   0  0  0  0  0  0  0  0  0  0  0  0
   -0.2926   -9.0740    6.6970 H   0  0  0  0  0  0  0  0  0  0  0  0
   -0.1983  -10.1817    4.1379 H   0  0  0  0  0  0  0  0  0  0  0  0
   -1.6756   -7.5503    4.0456 H   0  0  0  0  0  0  0  0  0  0  0  0
   -1.9062   -8.8664    5.1805 H   0  0  0  0  0  0  0  0  0  0  0  0
   -2.2457   -9.1148    3.4984 H   0  0  0  0  0  0  0  0  0  0  0  0
    0.5260  -10.0666    2.1098 H   0  0  0  0  0  0  0  0  0  0  0  0
   -0.6343   -8.8187    1.8522 H   0  0  0  0  0  0  0  0  0  0  0  0
    1.6440   -8.2808    1.0298 H   0  0  0  0  0  0  0  0  0  0  0  0
    0.9800   -7.0821    2.0794 H   0  0  0  0  0  0  0  0  0  0  0  0
    3.3131  -10.0386    1.9554 H   0  0  0  0  0  0  0  0  0  0  0  0
    2.3601  -10.4258    3.3674 H   0  0  0  0  0  0  0  0  0  0  0  0
    3.9890   -9.8408    3.5660 H   0  0  0  0  0  0  0  0  0  0  0  0
    4.7130   -7.7928    2.8220 H   0  0  0  0  0  0  0  0  0  0  0  0
    3.8470   -7.6423    1.3364 H   0  0  0  0  0  0  0  0  0  0  0  0
    4.4776   -5.4639    2.0876 H   0  0  0  0  0  0  0  0  0  0  0  0
    2.7557   -5.6127    2.0886 H   0  0  0  0  0  0  0  0  0  0  0  0
    4.9362   -7.1323    4.9317 H   0  0  0  0  0  0  0  0  0  0  0  0
    5.1400   -5.5896    5.7271 H   0  0  0  0  0  0  0  0  0  0  0  0
    5.8042   -5.8469    4.1219 H   0  0  0  0  0  0  0  0  0  0  0  0
    3.5936    1.4273    7.1507 H   0  0  0  0  0  0  0  0  0  0  0  0
    4.3663   -0.1188    7.3402 H   0  0  0  0  0  0  0  0  0  0  0  0
    2.6537   -0.0522    7.0136 H   0  0  0  0  0  0  0  0  0  0  0  0
    5.3837    1.9536    5.4144 H   0  0  0  0  0  0  0  0  0  0  0  0
    5.5927    0.9577    3.9734 H   0  0  0  0  0  0  0  0  0  0  0  0
    6.0914    0.3558    5.5512 H   0  0  0  0  0  0  0  0  0  0  0  0
    3.1394    0.8454    3.3228 H   0  0  0  0  0  0  0  0  0  0  0  0
  1  2  1  0
  1 38  1  0
  1 39  1  0
  1 40  1  0
  2  3  1  0
  3 37  1  0
  3  4  1  0
  3 41  1  6
  4  5  1  0
  5  6  1  0
  5  7  1  0
  5 42  1  1
  6 43  1  0
  7 37  1  0
  7  8  1  0
  7 44  1  1
  8  9  2  0
  8 45  1  0
  9 14  1  0
  9 10  1  0
 10 11  1  0
 10 34  1  0
 10 46  1  1
 11 12  1  0
 11 47  1  0
 11 48  1  0
 12 13  1  0
 12 49  1  0
 12 50  1  0
 13 32  1  0
 13 14  1  0
 13 51  1  1
 14 15  1  6
 14 16  1  0
 15 52  1  0
 15 53  1  0
 15 54  1  0
 16 17  1  0
 16 55  1  0
 16 56  1  0
 17 18  2  0
 17 19  1  0
 19 32  1  0
 19 20  1  1
 19 21  1  0
 20 57  1  0
 20 58  1  0
 20 59  1  0
 21 28  1  0
 21 22  1  0
 21 60  1  1
 22 23  1  0
 22 24  1  0
 22 61  1  1
 23 62  1  0
 23 63  1  0
 23 64  1  0
 24 25  1  0
 24 26  1  0
 24 65  1  1
 25 66  1  0
 25 67  1  0
 25 68  1  0
 26 27  1  0
 26 69  1  0
 26 70  1  0
 27 28  1  0
 27 71  1  0
 27 72  1  0
 28 29  1  1
 28 30  1  0
 29 73  1  0
 29 74  1  0
 29 75  1  0
 30 31  1  0
 30 76  1  0
 30 77  1  0
 31 32  1  0
 31 78  1  0
 31 79  1  0
 32 33  1  1
 33 80  1  0
 33 81  1  0
 33 82  1  0
 34 35  1  0
 34 36  1  0
 34 37  1  0
 35 83  1  0
 35 84  1  0
 35 85  1  0
 36 86  1  0
 36 87  1  0
 36 88  1  0
 37 89  1  6
M  END
>  <i_m_ct_stereo_status>  (283) 
1

>  <s_m_source_file>  (283) 
/var/tmp/pbs.5076255.sched01/tmpq3cms3f1/82_sdm1vz9.sdf

>  <i_m_source_file_index>  (283) 
36

>  <i_lp_mmshare_version>  (283) 
48012

>  <i_f3d_flags>  (283) 
0

>  <s_epik_input>  (283) 
W0NIM11PW0NAQEhdMU9bQ0BASF0oW09IXSlbQ0BASF0oW0NIXT0yKVtDQEBIXTFDKFtDSDNdKShbQ0gzXSlbQ0BASF0oQzJbQ0BAXTM0W0NIM10pW0NIMl1bQ0gyXVtDQEBIXTNbQ0BAXTUoW0NIM10pW0NAQF0oW0NIM10pKEMoPU8pW0NIMl00KVtDQEBIXTZbQ0BdKFtDSDNdKShbQ0gyXVtDSDJdNSlbQ0gyXVtDSDJdW0NASF0oW0NIM10pW0NAQEhdNltDSDNd

>  <s_epik_cmdline>  (283) 
J2VwaWtfcHl0aG9uJywgJy1waHQnLCAnMi4wJywgJy1waCcsICc3LjAnLCAnLXRuJywgJzgnLCAnLW1hJywgJzIwMCcsICctaW1hZScsICc8aW5maWxlLm1hZT4nLCAnLW9tYWUnLCAnPG91dGZpbGUubWFlPic=

>  <r_lp_tautomer_probability>  (283) 
1

>  <r_epik_Ionization_Penalty>  (283) 
3.07894e-07

>  <r_epik_Ionization_Penalty_Charging>  (283) 
0

>  <r_epik_Ionization_Penalty_Neutral>  (283) 
3.07894e-07

>  <r_epik_State_Penalty>  (283) 
-0

>  <r_epik_Charging_Adjusted_Penalty>  (283) 
0

>  <i_epik_Tot_Q>  (283) 
0

>  <i_epik_Tot_abs_Q>  (283) 
0

>  <s_epik_Chemistry_Notes>  (283) 
This compound contains an acetal/aminal-like group ( X-CH(R)-Y where X, Y are N, S, or O) that may be acid/base labile, releasing an aldehyde.

>  <s_lp_Force_Field>  (283) 
OPLS3e

>  <r_lp_Energy>  (283) 
107.053

>  <b_lp_Chiralities_Consistent>  (283) 
1

>  <s_lp_Variant>  (283) 
81:0-1

>  <s_i_glide_gridfile>  (283) 
pfpi4k_grid

>  <i_i_glide_lignum>  (283) 
36

>  <i_i_glide_rotatable_bonds>  (283) 
2

>  <r_i_docking_score>  (283) 
-1.4735

>  <r_i_glide_ligand_efficiency>  (283) 
-0.0398242

>  <r_i_glide_ligand_efficiency_sa>  (283) 
-0.132703

>  <r_i_glide_ligand_efficiency_ln>  (283) 
-0.319567

>  <r_i_glide_gscore>  (283) 
-1.4735

>  <r_i_glide_lipo>  (283) 
-0.164243

>  <r_i_glide_hbond>  (283) 
-0.0212835

>  <r_i_glide_metal>  (283) 
-0

>  <r_i_glide_rewards>  (283) 
0

>  <r_i_glide_evdw>  (283) 
-21.817

>  <r_i_glide_ecoul>  (283) 
-1.08493

>  <r_i_glide_erotb>  (283) 
0

>  <r_i_glide_esite>  (283) 
-0.0343791

>  <r_i_glide_emodel>  (283) 
-25.2825

>  <r_i_glide_energy>  (283) 
-22.902

>  <r_i_glide_einternal>  (283) 
0.0864658

>  <r_i_glide_intrahb_reward>  (283) 
-0

>  <i_i_glide_confnum>  (283) 
2

>  <i_i_glide_posenum>  (283) 
27

>  <r_i_glide_eff_state_penalty>  (283) 
0

>  <ligand_id>  (283) 
81

>  <original_smiles>  (283) 
COC1OC(O)C2C=C3C(CCC4C3(C)CC(=O)C3(C)C5C(C)C(C)CCC5(C)CCC43C)C(C)(C)C12

>  <smiles>  (283) 
[H]OC1([H])OC([H])(OC([H])([H])[H])C2([H])C1([H])C([H])=C1C([H])(C([H])([H])C([H])([H])C3([H])C1(C([H])([H])[H])C([H])([H])C(=O)C1(C([H])([H])[H])C4([H])C([H])(C([H])([H])[H])C([H])(C([H])([H])[H])C([H])([H])C([H])([H])C4(C([H])([H])[H])C([H])([H])C([H])([H])C31C([H])([H])[H])C2(C([H])([H])[H])C([H])([H])[H]

$$$$
82:0:0
     RDKit          3D

 19 20  0  0  1  0  0  0  0  0999 V2000
   -0.5500   -9.0805    3.0097 C   0  0  0  0  0  0  0  0  0  0  0  0
   -0.6077   -7.8933    2.2483 C   0  0  0  0  0  0  0  0  0  0  0  0
   -0.3432   -6.7006    2.8435 N   0  0  0  0  0  0  0  0  0  0  0  0
   -0.0205   -6.6956    4.1481 C   0  0  0  0  0  0  0  0  0  0  0  0
    0.2366   -5.4742    4.7146 O   0  0  0  0  0  0  0  0  0  0  0  0
   -0.0284   -5.2759    6.0620 C   0  0  0  0  0  0  0  0  0  0  0  0
    0.2928   -6.1747    7.1190 C   0  0  0  0  0  0  0  0  0  0  0  0
   -0.0962   -5.9506    8.3887 N   0  0  0  0  0  0  0  0  0  0  0  0
   -0.7263   -4.8146    8.6456 C   0  0  0  0  0  0  0  0  0  0  0  0
   -0.9942   -3.8408    7.7711 N   0  0  0  0  0  0  0  0  0  0  0  0
   -0.6423   -4.0765    6.4872 C   0  0  0  0  0  0  0  0  0  0  0  0
    0.0792   -7.7834    4.9037 N   0  0  0  0  0  0  0  0  0  0  0  0
   -0.1846   -8.9577    4.3577 C   0  0  0  0  0  0  0  0  0  0  0  0
   -0.7869  -10.0575    2.5644 H   0  0  0  0  0  0  0  0  0  0  0  0
   -0.8796   -7.8878    1.2026 H   0  0  0  0  0  0  0  0  0  0  0  0
    0.8458   -7.0977    6.9852 H   0  0  0  0  0  0  0  0  0  0  0  0
   -1.0057   -4.6751    9.6876 H   0  0  0  0  0  0  0  0  0  0  0  0
   -0.8796   -3.2793    5.7925 H   0  0  0  0  0  0  0  0  0  0  0  0
   -0.1307   -9.8137    5.0087 H   0  0  0  0  0  0  0  0  0  0  0  0
  1 13  2  0
  1  2  1  0
  1 14  1  0
  2  3  2  0
  2 15  1  0
  3  4  1  0
  4  5  1  0
  4 12  2  0
  5  6  1  0
  6 11  1  0
  6  7  2  0
  7  8  1  0
  7 16  1  0
  8  9  2  0
  9 10  1  0
  9 17  1  0
 10 11  2  0
 11 18  1  0
 12 13  1  0
 13 19  1  0
M  END
>  <i_m_ct_stereo_status>  (284) 
1

>  <s_m_source_file>  (284) 
/var/tmp/pbs.5076255.sched01/tmpq3cms3f1/82_sdm1vz9.sdf

>  <i_m_source_file_index>  (284) 
37

>  <i_lp_mmshare_version>  (284) 
48012

>  <i_f3d_flags>  (284) 
0

>  <s_epik_input>  (284) 
bjFbY0hdW2NIXVtjSF1uYzFPYzJbY0hdbltjSF1uW2NIXTI=

>  <s_epik_cmdline>  (284) 
J2VwaWtfcHl0aG9uJywgJy1waHQnLCAnMi4wJywgJy1waCcsICc3LjAnLCAnLXRuJywgJzgnLCAnLW1hJywgJzIwMCcsICctaW1hZScsICc8aW5maWxlLm1hZT4nLCAnLW9tYWUnLCAnPG91dGZpbGUubWFlPic=

>  <r_lp_tautomer_probability>  (284) 
1

>  <r_epik_Ionization_Penalty>  (284) 
3.27688e-07

>  <r_epik_Ionization_Penalty_Charging>  (284) 
0

>  <r_epik_Ionization_Penalty_Neutral>  (284) 
3.27688e-07

>  <r_epik_State_Penalty>  (284) 
-0

>  <r_epik_Charging_Adjusted_Penalty>  (284) 
0

>  <i_epik_Tot_Q>  (284) 
0

>  <i_epik_Tot_abs_Q>  (284) 
0

>  <s_lp_Force_Field>  (284) 
OPLS3e

>  <r_lp_Energy>  (284) 
35.1452

>  <b_lp_Chiralities_Consistent>  (284) 
1

>  <s_lp_Variant>  (284) 
82:0-1

>  <s_i_glide_gridfile>  (284) 
pfpi4k_grid

>  <i_i_glide_lignum>  (284) 
37

>  <i_i_glide_rotatable_bonds>  (284) 
2

>  <r_i_docking_score>  (284) 
-3.07416

>  <r_i_glide_ligand_efficiency>  (284) 
-0.236474

>  <r_i_glide_ligand_efficiency_sa>  (284) 
-0.556029

>  <r_i_glide_ligand_efficiency_ln>  (284) 
-0.86233

>  <r_i_glide_gscore>  (284) 
-3.07416

>  <r_i_glide_lipo>  (284) 
0

>  <r_i_glide_hbond>  (284) 
-0.16

>  <r_i_glide_metal>  (284) 
-0

>  <r_i_glide_rewards>  (284) 
-2.22164

>  <r_i_glide_evdw>  (284) 
-14.4634

>  <r_i_glide_ecoul>  (284) 
-6.35297

>  <r_i_glide_erotb>  (284) 
1.02623

>  <r_i_glide_esite>  (284) 
-0.0426389

>  <r_i_glide_emodel>  (284) 
-24.0044

>  <r_i_glide_energy>  (284) 
-20.8164

>  <r_i_glide_einternal>  (284) 
0.698883

>  <r_i_glide_intrahb_reward>  (284) 
-0

>  <i_i_glide_confnum>  (284) 
3

>  <i_i_glide_posenum>  (284) 
1

>  <r_i_glide_eff_state_penalty>  (284) 
0

>  <ligand_id>  (284) 
82

>  <original_smiles>  (284) 
c1cnc(Oc2cncnc2)nc1

>  <smiles>  (284) 
[H]c1nc([H])c(Oc2nc([H])c([H])c([H])n2)c([H])n1

$$$$
82:0:1
     RDKit          3D

 19 20  0  0  1  0  0  0  0  0999 V2000
   -2.6741    3.7454   10.0929 C   0  0  0  0  0  0  0  0  0  0  0  0
   -2.9235    4.4014    8.8783 C   0  0  0  0  0  0  0  0  0  0  0  0
   -2.5172    3.8888    7.6988 N   0  0  0  0  0  0  0  0  0  0  0  0
   -1.8659    2.7223    7.7407 C   0  0  0  0  0  0  0  0  0  0  0  0
   -1.4515    2.1666    6.5774 O   0  0  0  0  0  0  0  0  0  0  0  0
   -1.0337    3.0315    5.5904 C   0  0  0  0  0  0  0  0  0  0  0  0
   -1.9258    3.6519    4.6948 C   0  0  0  0  0  0  0  0  0  0  0  0
   -1.5078    4.5397    3.7671 N   0  0  0  0  0  0  0  0  0  0  0  0
   -0.1893    4.7440    3.6844 C   0  0  0  0  0  0  0  0  0  0  0  0
    0.7431    4.2169    4.4793 N   0  0  0  0  0  0  0  0  0  0  0  0
    0.3259    3.3567    5.4279 C   0  0  0  0  0  0  0  0  0  0  0  0
   -1.6050    1.9989    8.8279 N   0  0  0  0  0  0  0  0  0  0  0  0
   -1.9898    2.5231   10.0129 C   0  0  0  0  0  0  0  0  0  0  0  0
   -2.9939    4.1425   11.0449 H   0  0  0  0  0  0  0  0  0  0  0  0
   -3.4444    5.3451    8.8452 H   0  0  0  0  0  0  0  0  0  0  0  0
   -2.9883    3.4751    4.7525 H   0  0  0  0  0  0  0  0  0  0  0  0
    0.1456    5.4543    2.9454 H   0  0  0  0  0  0  0  0  0  0  0  0
    1.0865    2.9255    6.0640 H   0  0  0  0  0  0  0  0  0  0  0  0
   -1.7698    1.9457   10.8988 H   0  0  0  0  0  0  0  0  0  0  0  0
  1 13  2  0
  1  2  1  0
  1 14  1  0
  2  3  2  0
  2 15  1  0
  3  4  1  0
  4  5  1  0
  4 12  2  0
  5  6  1  0
  6 11  1  0
  6  7  2  0
  7  8  1  0
  7 16  1  0
  8  9  2  0
  9 10  1  0
  9 17  1  0
 10 11  2  0
 11 18  1  0
 12 13  1  0
 13 19  1  0
M  END
>  <i_m_ct_stereo_status>  (285) 
1

>  <s_m_source_file>  (285) 
/var/tmp/pbs.5076255.sched01/tmpq3cms3f1/82_sdm1vz9.sdf

>  <i_m_source_file_index>  (285) 
37

>  <i_lp_mmshare_version>  (285) 
48012

>  <i_f3d_flags>  (285) 
0

>  <s_epik_input>  (285) 
bjFbY0hdW2NIXVtjSF1uYzFPYzJbY0hdbltjSF1uW2NIXTI=

>  <s_epik_cmdline>  (285) 
J2VwaWtfcHl0aG9uJywgJy1waHQnLCAnMi4wJywgJy1waCcsICc3LjAnLCAnLXRuJywgJzgnLCAnLW1hJywgJzIwMCcsICctaW1hZScsICc8aW5maWxlLm1hZT4nLCAnLW9tYWUnLCAnPG91dGZpbGUubWFlPic=

>  <r_lp_tautomer_probability>  (285) 
1

>  <r_epik_Ionization_Penalty>  (285) 
3.27688e-07

>  <r_epik_Ionization_Penalty_Charging>  (285) 
0

>  <r_epik_Ionization_Penalty_Neutral>  (285) 
3.27688e-07

>  <r_epik_State_Penalty>  (285) 
-0

>  <r_epik_Charging_Adjusted_Penalty>  (285) 
0

>  <i_epik_Tot_Q>  (285) 
0

>  <i_epik_Tot_abs_Q>  (285) 
0

>  <s_lp_Force_Field>  (285) 
OPLS3e

>  <r_lp_Energy>  (285) 
35.1452

>  <b_lp_Chiralities_Consistent>  (285) 
1

>  <s_lp_Variant>  (285) 
82:0-1

>  <s_i_glide_gridfile>  (285) 
pfpi4k_grid

>  <i_i_glide_lignum>  (285) 
37

>  <i_i_glide_rotatable_bonds>  (285) 
2

>  <r_i_docking_score>  (285) 
-2.98416

>  <r_i_glide_ligand_efficiency>  (285) 
-0.229551

>  <r_i_glide_ligand_efficiency_sa>  (285) 
-0.539751

>  <r_i_glide_ligand_efficiency_ln>  (285) 
-0.837083

>  <r_i_glide_gscore>  (285) 
-2.98416

>  <r_i_glide_lipo>  (285) 
-0.0801422

>  <r_i_glide_hbond>  (285) 
-0.16

>  <r_i_glide_metal>  (285) 
-0

>  <r_i_glide_rewards>  (285) 
-2.22723

>  <r_i_glide_evdw>  (285) 
-13.8761

>  <r_i_glide_ecoul>  (285) 
-4.99477

>  <r_i_glide_erotb>  (285) 
1.02623

>  <r_i_glide_esite>  (285) 
-0.1

>  <r_i_glide_emodel>  (285) 
-23.2654

>  <r_i_glide_energy>  (285) 
-18.8709

>  <r_i_glide_einternal>  (285) 
0.26365

>  <r_i_glide_intrahb_reward>  (285) 
-0

>  <i_i_glide_confnum>  (285) 
4

>  <i_i_glide_posenum>  (285) 
8

>  <r_i_glide_eff_state_penalty>  (285) 
0

>  <ligand_id>  (285) 
82

>  <original_smiles>  (285) 
c1cnc(Oc2cncnc2)nc1

>  <smiles>  (285) 
[H]c1nc([H])c(Oc2nc([H])c([H])c([H])n2)c([H])n1

$$$$
82:0:2
     RDKit          3D

 19 20  0  0  1  0  0  0  0  0999 V2000
   -1.1786   -8.4241    2.6801 C   0  0  0  0  0  0  0  0  0  0  0  0
   -0.3438   -7.4729    2.0728 C   0  0  0  0  0  0  0  0  0  0  0  0
    0.1907   -6.4455    2.7739 N   0  0  0  0  0  0  0  0  0  0  0  0
   -0.0808   -6.3924    4.0807 C   0  0  0  0  0  0  0  0  0  0  0  0
    0.4874   -5.3534    4.7493 O   0  0  0  0  0  0  0  0  0  0  0  0
    0.1124   -5.1273    6.0613 C   0  0  0  0  0  0  0  0  0  0  0  0
    0.3023   -6.0665    7.1031 C   0  0  0  0  0  0  0  0  0  0  0  0
   -0.1584   -5.8472    8.3499 N   0  0  0  0  0  0  0  0  0  0  0  0
   -0.7738   -4.6881    8.5701 C   0  0  0  0  0  0  0  0  0  0  0  0
   -0.9807   -3.7105    7.6884 N   0  0  0  0  0  0  0  0  0  0  0  0
   -0.5244   -3.9242    6.4388 C   0  0  0  0  0  0  0  0  0  0  0  0
   -0.8733   -7.2381    4.7447 N   0  0  0  0  0  0  0  0  0  0  0  0
   -1.3967   -8.2701    4.0601 C   0  0  0  0  0  0  0  0  0  0  0  0
   -1.6135   -9.2450    2.1294 H   0  0  0  0  0  0  0  0  0  0  0  0
   -0.1303   -7.5010    1.0118 H   0  0  0  0  0  0  0  0  0  0  0  0
    0.7661   -7.0290    6.9230 H   0  0  0  0  0  0  0  0  0  0  0  0
   -1.1456   -4.5293    9.5696 H   0  0  0  0  0  0  0  0  0  0  0  0
   -0.7102   -3.1404    5.7163 H   0  0  0  0  0  0  0  0  0  0  0  0
   -2.0136   -8.9494    4.6218 H   0  0  0  0  0  0  0  0  0  0  0  0
  1 13  2  0
  1  2  1  0
  1 14  1  0
  2  3  2  0
  2 15  1  0
  3  4  1  0
  4  5  1  0
  4 12  2  0
  5  6  1  0
  6 11  1  0
  6  7  2  0
  7  8  1  0
  7 16  1  0
  8  9  2  0
  9 10  1  0
  9 17  1  0
 10 11  2  0
 11 18  1  0
 12 13  1  0
 13 19  1  0
M  END
>  <i_m_ct_stereo_status>  (286) 
1

>  <s_m_source_file>  (286) 
/var/tmp/pbs.5076255.sched01/tmpq3cms3f1/82_sdm1vz9.sdf

>  <i_m_source_file_index>  (286) 
37

>  <i_lp_mmshare_version>  (286) 
48012

>  <i_f3d_flags>  (286) 
0

>  <s_epik_input>  (286) 
bjFbY0hdW2NIXVtjSF1uYzFPYzJbY0hdbltjSF1uW2NIXTI=

>  <s_epik_cmdline>  (286) 
J2VwaWtfcHl0aG9uJywgJy1waHQnLCAnMi4wJywgJy1waCcsICc3LjAnLCAnLXRuJywgJzgnLCAnLW1hJywgJzIwMCcsICctaW1hZScsICc8aW5maWxlLm1hZT4nLCAnLW9tYWUnLCAnPG91dGZpbGUubWFlPic=

>  <r_lp_tautomer_probability>  (286) 
1

>  <r_epik_Ionization_Penalty>  (286) 
3.27688e-07

>  <r_epik_Ionization_Penalty_Charging>  (286) 
0

>  <r_epik_Ionization_Penalty_Neutral>  (286) 
3.27688e-07

>  <r_epik_State_Penalty>  (286) 
-0

>  <r_epik_Charging_Adjusted_Penalty>  (286) 
0

>  <i_epik_Tot_Q>  (286) 
0

>  <i_epik_Tot_abs_Q>  (286) 
0

>  <s_lp_Force_Field>  (286) 
OPLS3e

>  <r_lp_Energy>  (286) 
35.1452

>  <b_lp_Chiralities_Consistent>  (286) 
1

>  <s_lp_Variant>  (286) 
82:0-1

>  <s_i_glide_gridfile>  (286) 
pfpi4k_grid

>  <i_i_glide_lignum>  (286) 
37

>  <i_i_glide_rotatable_bonds>  (286) 
2

>  <r_i_docking_score>  (286) 
-2.87704

>  <r_i_glide_ligand_efficiency>  (286) 
-0.221311

>  <r_i_glide_ligand_efficiency_sa>  (286) 
-0.520377

>  <r_i_glide_ligand_efficiency_ln>  (286) 
-0.807037

>  <r_i_glide_gscore>  (286) 
-2.87704

>  <r_i_glide_lipo>  (286) 
0

>  <r_i_glide_hbond>  (286) 
-0.128913

>  <r_i_glide_metal>  (286) 
-0

>  <r_i_glide_rewards>  (286) 
-2.22164

>  <r_i_glide_evdw>  (286) 
-14.9457

>  <r_i_glide_ecoul>  (286) 
-5.01301

>  <r_i_glide_erotb>  (286) 
1.02623

>  <r_i_glide_esite>  (286) 
-0.0534881

>  <r_i_glide_emodel>  (286) 
-23.9328

>  <r_i_glide_energy>  (286) 
-19.9587

>  <r_i_glide_einternal>  (286) 
0.244187

>  <r_i_glide_intrahb_reward>  (286) 
-0

>  <i_i_glide_confnum>  (286) 
6

>  <i_i_glide_posenum>  (286) 
28

>  <r_i_glide_eff_state_penalty>  (286) 
0

>  <ligand_id>  (286) 
82

>  <original_smiles>  (286) 
c1cnc(Oc2cncnc2)nc1

>  <smiles>  (286) 
[H]c1nc([H])c(Oc2nc([H])c([H])c([H])n2)c([H])n1

$$$$
83:0:0
     RDKit          3D

 40 44  0  0  1  0  0  0  0  0999 V2000
   -3.1266    3.5354   10.4932 C   0  0  0  0  0  0  0  0  0  0  0  0
   -2.5178    3.5071    9.1699 N   0  0  0  0  0  0  0  0  0  0  0  0
   -1.7971    4.5027    8.5704 C   0  0  0  0  0  0  0  0  0  0  0  0
   -1.3824    4.0528    7.3625 C   0  0  0  0  0  0  0  0  0  0  0  0
   -1.9169    2.7415    7.2911 C   0  0  0  0  0  0  0  0  0  0  0  0
   -1.7427    1.8463    6.2272 N   0  0  0  0  0  0  0  0  0  0  0  0
   -0.8503    1.8350    5.1823 C   0  0  0  0  0  0  0  0  0  0  0  0
   -0.4624    3.0116    4.6828 N   0  0  0  0  0  0  0  0  0  0  0  0
    0.4535    2.9894    3.6999 C   0  0  0  0  0  0  0  0  0  0  0  0
    1.0252    1.7813    3.2754 C   0  0  0  0  0  0  0  0  0  0  0  0
    0.5232    0.5854    3.8522 C   0  0  0  0  0  0  0  0  0  0  0  0
   -0.4506    0.6219    4.7917 N   0  0  0  0  0  0  0  0  0  0  0  0
    1.0671   -0.6879    3.3482 C   0  0  0  0  0  0  0  0  0  0  0  0
    1.0058   -2.0701    3.7437 C   0  0  0  0  0  0  0  0  0  0  0  0
    0.3471   -2.7819    4.8785 C   0  0  0  0  0  0  0  0  0  0  0  0
   -0.5874   -2.2250    5.6590 N   0  0  0  0  0  0  0  0  0  0  0  0
   -0.9396   -3.2198    6.5563 N   0  0  0  0  0  0  0  0  0  0  0  0
   -0.2616   -4.2850    6.3552 N   0  0  0  0  0  0  0  0  0  0  0  0
    0.5611   -4.0401    5.3046 N   0  0  0  0  0  0  0  0  0  0  0  0
    1.4432   -5.0967    4.8599 C   0  0  0  0  0  0  0  0  0  0  0  0
    1.7684   -2.7742    2.8919 N   0  0  0  0  0  0  0  0  0  0  0  0
    2.2533   -1.9076    1.9001 O   0  0  0  0  0  0  0  0  0  0  0  0
    1.8480   -0.6636    2.2423 C   0  0  0  0  0  0  0  0  0  0  0  0
    2.2097    0.4926    1.4016 C   0  0  0  0  0  0  0  0  0  0  0  0
    2.1418    1.7862    2.2343 C   0  0  0  0  0  0  0  0  0  0  0  0
   -2.5964    2.4220    8.3621 N   0  0  0  0  0  0  0  0  0  0  0  0
   -2.1398    0.9405    6.3997 H   0  0  0  0  0  0  0  0  0  0  0  0
   -2.9778    4.5193   10.9439 H   0  0  0  0  0  0  0  0  0  0  0  0
   -2.6586    2.8026   11.1492 H   0  0  0  0  0  0  0  0  0  0  0  0
   -4.1943    3.3270   10.4226 H   0  0  0  0  0  0  0  0  0  0  0  0
   -1.6042    5.4550    9.0263 H   0  0  0  0  0  0  0  0  0  0  0  0
   -0.7714    4.5809    6.6597 H   0  0  0  0  0  0  0  0  0  0  0  0
    0.7351    3.9311    3.2621 H   0  0  0  0  0  0  0  0  0  0  0  0
    2.4117   -4.7099    4.5491 H   0  0  0  0  0  0  0  0  0  0  0  0
    0.9748   -5.6403    4.0341 H   0  0  0  0  0  0  0  0  0  0  0  0
    1.6187   -5.7855    5.6948 H   0  0  0  0  0  0  0  0  0  0  0  0
    3.1749    0.3354    0.9101 H   0  0  0  0  0  0  0  0  0  0  0  0
    1.4447    0.5882    0.6351 H   0  0  0  0  0  0  0  0  0  0  0  0
    3.0711    1.8521    2.8068 H   0  0  0  0  0  0  0  0  0  0  0  0
    2.0405    2.6735    1.6101 H   0  0  0  0  0  0  0  0  0  0  0  0
  1  2  1  0
  1 28  1  0
  1 29  1  0
  1 30  1  0
  2 26  1  0
  2  3  1  0
  3  4  2  0
  3 31  1  0
  4  5  1  0
  4 32  1  0
  5 26  2  0
  5  6  1  0
  6  7  1  0
  6 27  1  0
  7  8  2  0
  7 12  1  0
  8  9  1  0
  9 33  1  0
  9 10  2  0
 10 25  1  0
 10 11  1  0
 11 13  1  0
 11 12  2  0
 13 23  2  0
 13 14  1  0
 14 15  1  0
 14 21  2  0
 15 19  1  0
 15 16  2  0
 16 17  1  0
 17 18  2  0
 18 19  1  0
 19 20  1  0
 20 34  1  0
 20 35  1  0
 20 36  1  0
 21 22  1  0
 22 23  1  0
 23 24  1  0
 24 25  1  0
 24 37  1  0
 24 38  1  0
 25 39  1  0
 25 40  1  0
M  END
>  <i_m_ct_stereo_status>  (287) 
1

>  <s_m_source_file>  (287) 
/var/tmp/pbs.5076255.sched01/tmpq3cms3f1/82_sdm1vz9.sdf

>  <i_m_source_file_index>  (287) 
38

>  <i_lp_mmshare_version>  (287) 
48012

>  <i_f3d_flags>  (287) 
0

>  <s_epik_input>  (287) 
W0NIM11uMVtjSF1bY0hdYyhuMSkvTj1jKFxuW2NIXTIpW25IXWMoYzIzKWM0YyhbQ0gyXVtDSDJdMylvbmM0LWM1bm5ubjVbQ0gzXQ==

>  <s_epik_cmdline>  (287) 
J2VwaWtfcHl0aG9uJywgJy1waHQnLCAnMi4wJywgJy1waCcsICc3LjAnLCAnLXRuJywgJzgnLCAnLW1hJywgJzIwMCcsICctaW1hZScsICc8aW5maWxlLm1hZT4nLCAnLW9tYWUnLCAnPG91dGZpbGUubWFlPic=

>  <r_lp_tautomer_probability>  (287) 
1

>  <r_epik_Ionization_Penalty>  (287) 
0.000894453

>  <r_epik_Ionization_Penalty_Charging>  (287) 
0

>  <r_epik_Ionization_Penalty_Neutral>  (287) 
0.000894453

>  <r_epik_State_Penalty>  (287) 
0.000495492

>  <r_epik_Charging_Adjusted_Penalty>  (287) 
0.000495492

>  <i_epik_Tot_Q>  (287) 
0

>  <i_epik_Tot_abs_Q>  (287) 
0

>  <s_lp_Force_Field>  (287) 
OPLS3e

>  <r_lp_Energy>  (287) 
23.5067

>  <b_lp_Chiralities_Consistent>  (287) 
1

>  <s_lp_Variant>  (287) 
83:0-1

>  <s_i_glide_gridfile>  (287) 
pfpi4k_grid

>  <i_i_glide_lignum>  (287) 
38

>  <i_i_glide_rotatable_bonds>  (287) 
3

>  <r_i_docking_score>  (287) 
-2.8277

>  <r_i_glide_ligand_efficiency>  (287) 
-0.108758

>  <r_i_glide_ligand_efficiency_sa>  (287) 
-0.322194

>  <r_i_glide_ligand_efficiency_ln>  (287) 
-0.664076

>  <r_i_glide_gscore>  (287) 
-2.8277

>  <r_i_glide_lipo>  (287) 
-0.123984

>  <r_i_glide_hbond>  (287) 
0

>  <r_i_glide_metal>  (287) 
-0

>  <r_i_glide_rewards>  (287) 
-1.03873

>  <r_i_glide_evdw>  (287) 
-26.7572

>  <r_i_glide_ecoul>  (287) 
-4.16529

>  <r_i_glide_erotb>  (287) 
0.465866

>  <r_i_glide_esite>  (287) 
-0.168196

>  <r_i_glide_emodel>  (287) 
-33.7292

>  <r_i_glide_energy>  (287) 
-30.9225

>  <r_i_glide_einternal>  (287) 
5.72147

>  <r_i_glide_intrahb_reward>  (287) 
-0

>  <i_i_glide_confnum>  (287) 
3

>  <i_i_glide_posenum>  (287) 
38

>  <r_i_glide_eff_state_penalty>  (287) 
0

>  <ligand_id>  (287) 
83

>  <original_smiles>  (287) 
Cn1ccc(N=c2ncc3c([nH]2)-c2c(-c4nnnn4C)noc2CC3)n1

>  <smiles>  (287) 
[H]c1nc(N([H])c2nn(C([H])([H])[H])c([H])c2[H])nc2c1C([H])([H])C([H])([H])c1onc(-c3nnnn3C([H])([H])[H])c1-2

$$$$
83:0:1
     RDKit          3D

 40 44  0  0  1  0  0  0  0  0999 V2000
    6.3740   -3.4381   -2.4025 C   0  0  0  0  0  0  0  0  0  0  0  0
    5.2551   -2.9072   -1.6471 N   0  0  0  0  0  0  0  0  0  0  0  0
    3.9728   -3.3809   -1.6301 C   0  0  0  0  0  0  0  0  0  0  0  0
    3.2637   -2.6350   -0.7512 C   0  0  0  0  0  0  0  0  0  0  0  0
    4.2211   -1.7290   -0.2461 C   0  0  0  0  0  0  0  0  0  0  0  0
    3.9230   -0.7128    0.6572 N   0  0  0  0  0  0  0  0  0  0  0  0
    2.8893   -0.5561    1.5488 C   0  0  0  0  0  0  0  0  0  0  0  0
    2.5999    0.7069    1.8589 N   0  0  0  0  0  0  0  0  0  0  0  0
    1.6174    0.9526    2.7599 C   0  0  0  0  0  0  0  0  0  0  0  0
    1.0022   -0.1275    3.4191 C   0  0  0  0  0  0  0  0  0  0  0  0
    1.4659   -1.4259    3.0937 C   0  0  0  0  0  0  0  0  0  0  0  0
    2.3738   -1.6391    2.1184 N   0  0  0  0  0  0  0  0  0  0  0  0
    0.9977   -2.5479    3.9152 C   0  0  0  0  0  0  0  0  0  0  0  0
    1.1712   -3.9553    3.8639 C   0  0  0  0  0  0  0  0  0  0  0  0
    1.9546   -4.7896    2.9421 C   0  0  0  0  0  0  0  0  0  0  0  0
    1.4275   -5.7796    2.2262 N   0  0  0  0  0  0  0  0  0  0  0  0
    2.4969   -6.2366    1.4637 N   0  0  0  0  0  0  0  0  0  0  0  0
    3.5863   -5.5728    1.7129 N   0  0  0  0  0  0  0  0  0  0  0  0
    3.2680   -4.6603    2.6713 N   0  0  0  0  0  0  0  0  0  0  0  0
    4.2917   -3.7704    3.2202 C   0  0  0  0  0  0  0  0  0  0  0  0
    0.4653   -4.5287    4.8423 N   0  0  0  0  0  0  0  0  0  0  0  0
   -0.1360   -3.4971    5.5919 O   0  0  0  0  0  0  0  0  0  0  0  0
    0.2233   -2.3290    5.0003 C   0  0  0  0  0  0  0  0  0  0  0  0
   -0.2088   -1.0151    5.5394 C   0  0  0  0  0  0  0  0  0  0  0  0
   -0.1458    0.0681    4.4268 C   0  0  0  0  0  0  0  0  0  0  0  0
    5.3929   -1.8376   -0.8230 N   0  0  0  0  0  0  0  0  0  0  0  0
    4.5277    0.0917    0.5783 H   0  0  0  0  0  0  0  0  0  0  0  0
    6.0140   -4.2476   -3.0509 H   0  0  0  0  0  0  0  0  0  0  0  0
    7.1424   -3.8020   -1.7118 H   0  0  0  0  0  0  0  0  0  0  0  0
    6.8071   -2.6746   -3.0488 H   0  0  0  0  0  0  0  0  0  0  0  0
    3.6564   -4.2041   -2.2394 H   0  0  0  0  0  0  0  0  0  0  0  0
    2.2295   -2.7017   -0.5076 H   0  0  0  0  0  0  0  0  0  0  0  0
    1.2994    1.9862    2.9235 H   0  0  0  0  0  0  0  0  0  0  0  0
    4.0110   -3.4687    4.2363 H   0  0  0  0  0  0  0  0  0  0  0  0
    4.4067   -2.8800    2.5994 H   0  0  0  0  0  0  0  0  0  0  0  0
    5.2433   -4.3117    3.2674 H   0  0  0  0  0  0  0  0  0  0  0  0
   -1.2004   -1.0813    5.9941 H   0  0  0  0  0  0  0  0  0  0  0  0
    0.4968   -0.7412    6.3279 H   0  0  0  0  0  0  0  0  0  0  0  0
   -1.0400   -0.0583    3.8141 H   0  0  0  0  0  0  0  0  0  0  0  0
   -0.1653    1.0818    4.8363 H   0  0  0  0  0  0  0  0  0  0  0  0
  1  2  1  0
  1 28  1  0
  1 29  1  0
  1 30  1  0
  2 26  1  0
  2  3  1  0
  3  4  2  0
  3 31  1  0
  4  5  1  0
  4 32  1  0
  5 26  2  0
  5  6  1  0
  6  7  1  0
  6 27  1  0
  7  8  2  0
  7 12  1  0
  8  9  1  0
  9 33  1  0
  9 10  2  0
 10 25  1  0
 10 11  1  0
 11 13  1  0
 11 12  2  0
 13 23  2  0
 13 14  1  0
 14 15  1  0
 14 21  2  0
 15 19  1  0
 15 16  2  0
 16 17  1  0
 17 18  2  0
 18 19  1  0
 19 20  1  0
 20 34  1  0
 20 35  1  0
 20 36  1  0
 21 22  1  0
 22 23  1  0
 23 24  1  0
 24 25  1  0
 24 37  1  0
 24 38  1  0
 25 39  1  0
 25 40  1  0
M  END
>  <i_m_ct_stereo_status>  (288) 
1

>  <s_m_source_file>  (288) 
/var/tmp/pbs.5076255.sched01/tmpq3cms3f1/82_sdm1vz9.sdf

>  <i_m_source_file_index>  (288) 
38

>  <i_lp_mmshare_version>  (288) 
48012

>  <i_f3d_flags>  (288) 
0

>  <s_epik_input>  (288) 
W0NIM11uMVtjSF1bY0hdYyhuMSkvTj1jKFxuW2NIXTIpW25IXWMoYzIzKWM0YyhbQ0gyXVtDSDJdMylvbmM0LWM1bm5ubjVbQ0gzXQ==

>  <s_epik_cmdline>  (288) 
J2VwaWtfcHl0aG9uJywgJy1waHQnLCAnMi4wJywgJy1waCcsICc3LjAnLCAnLXRuJywgJzgnLCAnLW1hJywgJzIwMCcsICctaW1hZScsICc8aW5maWxlLm1hZT4nLCAnLW9tYWUnLCAnPG91dGZpbGUubWFlPic=

>  <r_lp_tautomer_probability>  (288) 
1

>  <r_epik_Ionization_Penalty>  (288) 
0.000894453

>  <r_epik_Ionization_Penalty_Charging>  (288) 
0

>  <r_epik_Ionization_Penalty_Neutral>  (288) 
0.000894453

>  <r_epik_State_Penalty>  (288) 
0.000495492

>  <r_epik_Charging_Adjusted_Penalty>  (288) 
0.000495492

>  <i_epik_Tot_Q>  (288) 
0

>  <i_epik_Tot_abs_Q>  (288) 
0

>  <s_lp_Force_Field>  (288) 
OPLS3e

>  <r_lp_Energy>  (288) 
23.5067

>  <b_lp_Chiralities_Consistent>  (288) 
1

>  <s_lp_Variant>  (288) 
83:0-1

>  <s_i_glide_gridfile>  (288) 
pfpi4k_grid

>  <i_i_glide_lignum>  (288) 
38

>  <i_i_glide_rotatable_bonds>  (288) 
3

>  <r_i_docking_score>  (288) 
-2.79385

>  <r_i_glide_ligand_efficiency>  (288) 
-0.107456

>  <r_i_glide_ligand_efficiency_sa>  (288) 
-0.318337

>  <r_i_glide_ligand_efficiency_ln>  (288) 
-0.656126

>  <r_i_glide_gscore>  (288) 
-2.79385

>  <r_i_glide_lipo>  (288) 
-0.234181

>  <r_i_glide_hbond>  (288) 
0

>  <r_i_glide_metal>  (288) 
-0

>  <r_i_glide_rewards>  (288) 
-1.05468

>  <r_i_glide_evdw>  (288) 
-25.1868

>  <r_i_glide_ecoul>  (288) 
-3.88291

>  <r_i_glide_erotb>  (288) 
0.465866

>  <r_i_glide_esite>  (288) 
-0.12908

>  <r_i_glide_emodel>  (288) 
-31.5032

>  <r_i_glide_energy>  (288) 
-29.0697

>  <r_i_glide_einternal>  (288) 
5.95013

>  <r_i_glide_intrahb_reward>  (288) 
-0

>  <i_i_glide_confnum>  (288) 
3

>  <i_i_glide_posenum>  (288) 
17

>  <r_i_glide_eff_state_penalty>  (288) 
0

>  <ligand_id>  (288) 
83

>  <original_smiles>  (288) 
Cn1ccc(N=c2ncc3c([nH]2)-c2c(-c4nnnn4C)noc2CC3)n1

>  <smiles>  (288) 
[H]c1nc(N([H])c2nn(C([H])([H])[H])c([H])c2[H])nc2c1C([H])([H])C([H])([H])c1onc(-c3nnnn3C([H])([H])[H])c1-2

$$$$
83:0:2
     RDKit          3D

 40 44  0  0  1  0  0  0  0  0999 V2000
    0.4966    1.2136    1.3724 C   0  0  0  0  0  0  0  0  0  0  0  0
    0.2964    1.8208    2.6633 N   0  0  0  0  0  0  0  0  0  0  0  0
    1.2207    2.4939    3.4295 C   0  0  0  0  0  0  0  0  0  0  0  0
    0.5609    2.9528    4.5256 C   0  0  0  0  0  0  0  0  0  0  0  0
   -0.7657    2.4410    4.3820 C   0  0  0  0  0  0  0  0  0  0  0  0
   -1.7953    2.6308    5.3136 N   0  0  0  0  0  0  0  0  0  0  0  0
   -1.8495    2.9379    6.6635 C   0  0  0  0  0  0  0  0  0  0  0  0
   -2.9924    2.7269    7.2798 N   0  0  0  0  0  0  0  0  0  0  0  0
   -3.0410    2.9248    8.6207 C   0  0  0  0  0  0  0  0  0  0  0  0
   -1.8743    3.2222    9.3620 C   0  0  0  0  0  0  0  0  0  0  0  0
   -0.7090    3.4100    8.6149 C   0  0  0  0  0  0  0  0  0  0  0  0
   -0.7170    3.3772    7.2701 N   0  0  0  0  0  0  0  0  0  0  0  0
    0.5468    3.7096    9.3585 C   0  0  0  0  0  0  0  0  0  0  0  0
    1.9406    3.6867    9.0520 C   0  0  0  0  0  0  0  0  0  0  0  0
    2.6733    3.3287    7.8365 C   0  0  0  0  0  0  0  0  0  0  0  0
    3.7381    4.0137    7.3987 N   0  0  0  0  0  0  0  0  0  0  0  0
    4.1027    3.3746    6.2354 N   0  0  0  0  0  0  0  0  0  0  0  0
    3.3176    2.3676    6.0010 N   0  0  0  0  0  0  0  0  0  0  0  0
    2.4144    2.3206    6.9941 N   0  0  0  0  0  0  0  0  0  0  0  0
    1.4298    1.2276    7.0091 C   0  0  0  0  0  0  0  0  0  0  0  0
    2.6332    4.0764   10.1270 N   0  0  0  0  0  0  0  0  0  0  0  0
    1.6979    4.3414   11.1615 O   0  0  0  0  0  0  0  0  0  0  0  0
    0.4701    4.0753   10.6539 C   0  0  0  0  0  0  0  0  0  0  0  0
   -0.7639    4.2395   11.4576 C   0  0  0  0  0  0  0  0  0  0  0  0
   -1.8743    3.3188   10.8912 C   0  0  0  0  0  0  0  0  0  0  0  0
   -0.9328    1.7830    3.2429 N   0  0  0  0  0  0  0  0  0  0  0  0
   -2.6957    2.4131    4.9222 H   0  0  0  0  0  0  0  0  0  0  0  0
    1.5404    1.2841    1.0745 H   0  0  0  0  0  0  0  0  0  0  0  0
   -0.1282    1.7457    0.6484 H   0  0  0  0  0  0  0  0  0  0  0  0
    0.2037    0.1661    1.4113 H   0  0  0  0  0  0  0  0  0  0  0  0
    2.2582    2.5930    3.1378 H   0  0  0  0  0  0  0  0  0  0  0  0
    0.9543    3.5078    5.3411 H   0  0  0  0  0  0  0  0  0  0  0  0
   -4.0082    2.8491    9.1134 H   0  0  0  0  0  0  0  0  0  0  0  0
    0.5349    1.4965    7.6332 H   0  0  0  0  0  0  0  0  0  0  0  0
    1.7759    0.3947    7.5540 H   0  0  0  0  0  0  0  0  0  0  0  0
    1.0600    0.9921    6.0303 H   0  0  0  0  0  0  0  0  0  0  0  0
   -0.5934    4.0583   12.5196 H   0  0  0  0  0  0  0  0  0  0  0  0
   -1.0881    5.2843   11.3736 H   0  0  0  0  0  0  0  0  0  0  0  0
   -1.6704    2.3111   11.2741 H   0  0  0  0  0  0  0  0  0  0  0  0
   -2.8546    3.6029   11.2671 H   0  0  0  0  0  0  0  0  0  0  0  0
  1  2  1  0
  1 28  1  0
  1 29  1  0
  1 30  1  0
  2 26  1  0
  2  3  1  0
  3  4  2  0
  3 31  1  0
  4  5  1  0
  4 32  1  0
  5 26  2  0
  5  6  1  0
  6  7  1  0
  6 27  1  0
  7  8  2  0
  7 12  1  0
  8  9  1  0
  9 33  1  0
  9 10  2  0
 10 25  1  0
 10 11  1  0
 11 13  1  0
 11 12  2  0
 13 23  2  0
 13 14  1  0
 14 15  1  0
 14 21  2  0
 15 19  1  0
 15 16  2  0
 16 17  1  0
 17 18  2  0
 18 19  1  0
 19 20  1  0
 20 34  1  0
 20 35  1  0
 20 36  1  0
 21 22  1  0
 22 23  1  0
 23 24  1  0
 24 25  1  0
 24 37  1  0
 24 38  1  0
 25 39  1  0
 25 40  1  0
M  END
>  <i_m_ct_stereo_status>  (289) 
1

>  <s_m_source_file>  (289) 
/var/tmp/pbs.5076255.sched01/tmpq3cms3f1/82_sdm1vz9.sdf

>  <i_m_source_file_index>  (289) 
38

>  <i_lp_mmshare_version>  (289) 
48012

>  <i_f3d_flags>  (289) 
0

>  <s_epik_input>  (289) 
W0NIM11uMVtjSF1bY0hdYyhuMSkvTj1jKFxuW2NIXTIpW25IXWMoYzIzKWM0YyhbQ0gyXVtDSDJdMylvbmM0LWM1bm5ubjVbQ0gzXQ==

>  <s_epik_cmdline>  (289) 
J2VwaWtfcHl0aG9uJywgJy1waHQnLCAnMi4wJywgJy1waCcsICc3LjAnLCAnLXRuJywgJzgnLCAnLW1hJywgJzIwMCcsICctaW1hZScsICc8aW5maWxlLm1hZT4nLCAnLW9tYWUnLCAnPG91dGZpbGUubWFlPic=

>  <r_lp_tautomer_probability>  (289) 
1

>  <r_epik_Ionization_Penalty>  (289) 
0.000894453

>  <r_epik_Ionization_Penalty_Charging>  (289) 
0

>  <r_epik_Ionization_Penalty_Neutral>  (289) 
0.000894453

>  <r_epik_State_Penalty>  (289) 
0.000495492

>  <r_epik_Charging_Adjusted_Penalty>  (289) 
0.000495492

>  <i_epik_Tot_Q>  (289) 
0

>  <i_epik_Tot_abs_Q>  (289) 
0

>  <s_lp_Force_Field>  (289) 
OPLS3e

>  <r_lp_Energy>  (289) 
23.5067

>  <b_lp_Chiralities_Consistent>  (289) 
1

>  <s_lp_Variant>  (289) 
83:0-1

>  <s_i_glide_gridfile>  (289) 
pfpi4k_grid

>  <i_i_glide_lignum>  (289) 
38

>  <i_i_glide_rotatable_bonds>  (289) 
3

>  <r_i_docking_score>  (289) 
-2.06748

>  <r_i_glide_ligand_efficiency>  (289) 
-0.0795185

>  <r_i_glide_ligand_efficiency_sa>  (289) 
-0.235573

>  <r_i_glide_ligand_efficiency_ln>  (289) 
-0.485541

>  <r_i_glide_gscore>  (289) 
-2.06748

>  <r_i_glide_lipo>  (289) 
-0.0321705

>  <r_i_glide_hbond>  (289) 
0

>  <r_i_glide_metal>  (289) 
-0

>  <r_i_glide_rewards>  (289) 
-1.10222

>  <r_i_glide_evdw>  (289) 
-20.8705

>  <r_i_glide_ecoul>  (289) 
-1.91748

>  <r_i_glide_erotb>  (289) 
0.465866

>  <r_i_glide_esite>  (289) 
-0.0678133

>  <r_i_glide_emodel>  (289) 
-22.2737

>  <r_i_glide_energy>  (289) 
-22.788

>  <r_i_glide_einternal>  (289) 
2.61327

>  <r_i_glide_intrahb_reward>  (289) 
-0

>  <i_i_glide_confnum>  (289) 
1

>  <i_i_glide_posenum>  (289) 
30

>  <r_i_glide_eff_state_penalty>  (289) 
0

>  <ligand_id>  (289) 
83

>  <original_smiles>  (289) 
Cn1ccc(N=c2ncc3c([nH]2)-c2c(-c4nnnn4C)noc2CC3)n1

>  <smiles>  (289) 
[H]c1nc(N([H])c2nn(C([H])([H])[H])c([H])c2[H])nc2c1C([H])([H])C([H])([H])c1onc(-c3nnnn3C([H])([H])[H])c1-2

$$$$
84:0:0
     RDKit          3D

 74 79  0  0  1  0  0  0  0  0999 V2000
    2.1525   -5.7098    6.0205 C   0  0  0  0  0  0  0  0  0  0  0  0
    1.2247   -5.3881    4.8214 C   0  0  1  0  0  0  0  0  0  0  0  0
    0.2280   -4.2741    5.2253 C   0  0  0  0  0  0  0  0  0  0  0  0
    0.8992   -2.8991    5.3455 C   0  0  0  0  0  0  0  0  0  0  0  0
    1.6356   -2.4691    4.0471 C   0  0  2  0  0  0  0  0  0  0  0  0
    2.2778   -3.6434    3.2879 C   0  0  0  0  0  0  0  0  0  0  0  0
    2.1022   -4.9328    3.6692 C   0  0  0  0  0  0  0  0  0  0  0  0
    2.5406   -6.1822    2.9301 C   0  0  0  0  0  0  0  0  0  0  0  0
    1.2855   -7.0714    2.9595 C   0  0  2  0  0  0  0  0  0  0  0  0
    0.4870   -6.6390    4.2187 C   0  0  1  0  0  0  0  0  0  0  0  0
    0.1205   -7.8078    5.1676 C   0  0  1  0  0  0  0  0  0  0  0  0
   -1.0607   -8.4289    4.6817 O   0  0  0  0  0  0  0  0  0  0  0  0
    1.2471   -8.8497    5.3119 C   0  0  0  0  0  0  0  0  0  0  0  0
    1.7423   -9.4762    3.9799 C   0  0  2  0  0  0  0  0  0  0  0  0
    1.1042  -10.8824    3.7974 C   0  0  0  0  0  0  0  0  0  0  0  0
    3.2857   -9.5533    3.9397 C   0  0  1  0  0  0  0  0  0  0  0  0
    3.8213  -10.6638    4.6313 O   0  0  0  0  0  0  0  0  0  0  0  0
    3.6835   -9.5728    2.4602 C   0  0  0  0  0  0  0  0  0  0  0  0
    2.4917   -8.9975    1.6886 C   0  0  0  0  0  0  0  0  0  0  0  0
    1.4267   -8.6080    2.7316 C   0  0  2  0  0  0  0  0  0  0  0  0
    3.0125   -3.2649    1.9983 C   0  0  0  0  0  0  0  0  0  0  0  0
    3.8625   -2.0088    2.1635 C   0  0  0  0  0  0  0  0  0  0  0  0
    5.0068   -1.9425    1.7136 O   0  0  0  0  0  0  0  0  0  0  0  0
    3.2258   -0.8196    2.8811 C   0  0  1  0  0  0  0  0  0  0  0  0
    2.2120   -0.1138    1.9489 C   0  0  0  0  0  0  0  0  0  0  0  0
    1.5757    1.1271    2.5999 C   0  0  1  0  0  0  0  0  0  0  0  0
    0.5739    1.7374    1.6964 N   0  0  0  0  0  0  0  0  0  0  0  0
    0.9560    0.7914    3.9698 C   0  0  1  0  0  0  0  0  0  0  0  0
   -0.2726    0.1056    3.8052 O   0  0  0  0  0  0  0  0  0  0  0  0
    1.9394    0.0044    4.8741 C   0  0  0  0  0  0  0  0  0  0  0  0
    2.6173   -1.2546    4.2475 C   0  0  1  0  0  0  0  0  0  0  0  0
    3.7767   -1.6647    5.2013 C   0  0  0  0  0  0  0  0  0  0  0  0
    1.6023   -6.1038    6.8745 H   0  0  0  0  0  0  0  0  0  0  0  0
    2.6789   -4.8185    6.3627 H   0  0  0  0  0  0  0  0  0  0  0  0
    2.9340   -6.4194    5.7537 H   0  0  0  0  0  0  0  0  0  0  0  0
   -0.5518   -4.1760    4.4763 H   0  0  0  0  0  0  0  0  0  0  0  0
   -0.2736   -4.5389    6.1561 H   0  0  0  0  0  0  0  0  0  0  0  0
    0.1358   -2.1595    5.5855 H   0  0  0  0  0  0  0  0  0  0  0  0
    1.5725   -2.9103    6.1995 H   0  0  0  0  0  0  0  0  0  0  0  0
    0.8535   -2.1612    3.3591 H   0  0  0  0  0  0  0  0  0  0  0  0
    2.8920   -5.9959    1.9174 H   0  0  0  0  0  0  0  0  0  0  0  0
    3.3564   -6.6389    3.4884 H   0  0  0  0  0  0  0  0  0  0  0  0
    0.7035   -6.7299    2.1032 H   0  0  0  0  0  0  0  0  0  0  0  0
   -0.4665   -6.2738    3.8374 H   0  0  0  0  0  0  0  0  0  0  0  0
   -0.1293   -7.4108    6.1529 H   0  0  0  0  0  0  0  0  0  0  0  0
   -1.2159   -9.2660    5.1141 H   0  0  0  0  0  0  0  0  0  0  0  0
    2.0855   -8.3922    5.8293 H   0  0  0  0  0  0  0  0  0  0  0  0
    0.9222   -9.6331    5.9965 H   0  0  0  0  0  0  0  0  0  0  0  0
    1.4463  -11.3785    2.8884 H   0  0  0  0  0  0  0  0  0  0  0  0
    0.0163  -10.8289    3.7375 H   0  0  0  0  0  0  0  0  0  0  0  0
    1.3342  -11.5560    4.6255 H   0  0  0  0  0  0  0  0  0  0  0  0
    3.7046   -8.6496    4.3825 H   0  0  0  0  0  0  0  0  0  0  0  0
    3.3721  -10.7542    5.4604 H   0  0  0  0  0  0  0  0  0  0  0  0
    4.5852   -8.9831    2.2988 H   0  0  0  0  0  0  0  0  0  0  0  0
    3.8961  -10.5857    2.1160 H   0  0  0  0  0  0  0  0  0  0  0  0
    2.7784   -8.1699    1.0439 H   0  0  0  0  0  0  0  0  0  0  0  0
    2.1010   -9.7795    1.0356 H   0  0  0  0  0  0  0  0  0  0  0  0
    0.4581   -8.9286    2.3429 H   0  0  0  0  0  0  0  0  0  0  0  0
    3.6583   -4.0708    1.6592 H   0  0  0  0  0  0  0  0  0  0  0  0
    2.2845   -3.0751    1.2109 H   0  0  0  0  0  0  0  0  0  0  0  0
    4.0277   -0.1075    3.0794 H   0  0  0  0  0  0  0  0  0  0  0  0
    2.7240    0.1879    1.0336 H   0  0  0  0  0  0  0  0  0  0  0  0
    1.4319   -0.8095    1.6424 H   0  0  0  0  0  0  0  0  0  0  0  0
    2.3580    1.8725    2.7463 H   0  0  0  0  0  0  0  0  0  0  0  0
   -0.1859    1.0966    1.5215 H   0  0  0  0  0  0  0  0  0  0  0  0
    1.0017    1.9875    0.8234 H   0  0  0  0  0  0  0  0  0  0  0  0
    0.7176    1.7239    4.4832 H   0  0  0  0  0  0  0  0  0  0  0  0
   -0.1088   -0.7040    3.3435 H   0  0  0  0  0  0  0  0  0  0  0  0
    2.7351    0.7041    5.1405 H   0  0  0  0  0  0  0  0  0  0  0  0
    1.4607   -0.2399    5.8216 H   0  0  0  0  0  0  0  0  0  0  0  0
    4.5677   -0.9142    5.2164 H   0  0  0  0  0  0  0  0  0  0  0  0
    4.2374   -2.6076    4.9125 H   0  0  0  0  0  0  0  0  0  0  0  0
    3.4366   -1.7760    6.2289 H   0  0  0  0  0  0  0  0  0  0  0  0
    0.2074    2.5996    2.0855 H   0  0  0  0  0  0  0  0  0  0  0  0
  2  1  1  1
  1 33  1  0
  1 34  1  0
  1 35  1  0
  2  7  1  0
  2 10  1  0
  2  3  1  0
  3  4  1  0
  3 36  1  0
  3 37  1  0
  4  5  1  0
  4 38  1  0
  4 39  1  0
  5 31  1  0
  5  6  1  0
  5 40  1  6
  6  7  2  0
  6 21  1  0
  7  8  1  0
  8  9  1  0
  8 41  1  0
  8 42  1  0
  9 20  1  0
  9 10  1  0
  9 43  1  6
 10 11  1  0
 10 44  1  6
 11 12  1  0
 11 13  1  0
 11 45  1  1
 12 46  1  0
 13 14  1  0
 13 47  1  0
 13 48  1  0
 14 20  1  0
 14 15  1  6
 14 16  1  0
 15 49  1  0
 15 50  1  0
 15 51  1  0
 16 17  1  0
 16 18  1  0
 16 52  1  1
 17 53  1  0
 18 19  1  0
 18 54  1  0
 18 55  1  0
 19 20  1  0
 19 56  1  0
 19 57  1  0
 20 58  1  6
 21 22  1  0
 21 59  1  0
 21 60  1  0
 22 23  2  0
 22 24  1  0
 24 31  1  0
 24 25  1  0
 24 61  1  1
 25 26  1  0
 25 62  1  0
 25 63  1  0
 26 27  1  0
 26 28  1  0
 26 64  1  1
 27 65  1  0
 27 66  1  0
 27 74  1  0
 28 29  1  0
 28 30  1  0
 28 67  1  1
 29 68  1  0
 30 31  1  0
 30 69  1  0
 30 70  1  0
 31 32  1  1
 32 71  1  0
 32 72  1  0
 32 73  1  0
M  CHG  1  27   1
M  END
>  <i_m_ct_stereo_status>  (290) 
1

>  <s_m_source_file>  (290) 
/var/tmp/pbs.5076255.sched01/tmpq3cms3f1/82_sdm1vz9.sdf

>  <i_m_source_file_index>  (290) 
39

>  <i_lp_mmshare_version>  (290) 
48012

>  <i_f3d_flags>  (290) 
0

>  <s_epik_input>  (290) 
W09IXVtDQEBIXShbQ0gyXTEpW0NASF0oW05IMl0pW0NIMl1bQ0BIXShDKD1PKVtDSDJdMilbQ0BdMShbQ0gzXSlbQ0BIXShbQ0gyXVtDSDJdMylDMj1DKFtDQEBdMzRbQ0gzXSlbQ0gyXVtDQEBIXTVbQ0BIXTRbQ0BASF0oW09IXSlbQ0gyXVtDQEBdNihbQ0gzXSlbQ0BASF01W0NIMl1bQ0gyXVtDQEBIXTZbT0hd

>  <s_epik_cmdline>  (290) 
J2VwaWtfcHl0aG9uJywgJy1waHQnLCAnMi4wJywgJy1waCcsICc3LjAnLCAnLXRuJywgJzgnLCAnLW1hJywgJzIwMCcsICctaW1hZScsICc8aW5maWxlLm1hZT4nLCAnLW9tYWUnLCAnPG91dGZpbGUubWFlPic=

>  <r_epik_Ionization_Penalty>  (290) 
0.00751063

>  <r_epik_Ionization_Penalty_Charging>  (290) 
0.00750781

>  <r_epik_Ionization_Penalty_Neutral>  (290) 
2.81869e-06

>  <r_epik_State_Penalty>  (290) 
0.00561218

>  <r_epik_Charging_Adjusted_Penalty>  (290) 
0.01312

>  <i_epik_Tot_Q>  (290) 
1

>  <i_epik_Tot_abs_Q>  (290) 
1

>  <s_lp_Force_Field>  (290) 
OPLS3e

>  <r_lp_Energy>  (290) 
67.2942

>  <b_lp_Chiralities_Consistent>  (290) 
1

>  <s_lp_Variant>  (290) 
84:0-1

>  <s_i_glide_gridfile>  (290) 
pfpi4k_grid

>  <i_i_glide_lignum>  (290) 
39

>  <i_i_glide_rotatable_bonds>  (290) 
3

>  <r_i_docking_score>  (290) 
-3.43497

>  <r_i_glide_ligand_efficiency>  (290) 
-0.107343

>  <r_i_glide_ligand_efficiency_sa>  (290) 
-0.340792

>  <r_i_glide_ligand_efficiency_ln>  (290) 
-0.769184

>  <r_i_glide_gscore>  (290) 
-3.43497

>  <r_i_glide_lipo>  (290) 
-0.149451

>  <r_i_glide_hbond>  (290) 
-0.196012

>  <r_i_glide_metal>  (290) 
-0

>  <r_i_glide_rewards>  (290) 
-0.377545

>  <r_i_glide_evdw>  (290) 
-28.3024

>  <r_i_glide_ecoul>  (290) 
-8.14077

>  <r_i_glide_erotb>  (290) 
0

>  <r_i_glide_esite>  (290) 
-0.0757253

>  <r_i_glide_emodel>  (290) 
-46.2562

>  <r_i_glide_energy>  (290) 
-36.4432

>  <r_i_glide_einternal>  (290) 
1.46587

>  <r_i_glide_intrahb_reward>  (290) 
-0

>  <i_i_glide_confnum>  (290) 
1

>  <i_i_glide_posenum>  (290) 
38

>  <r_i_glide_eff_state_penalty>  (290) 
0

>  <ligand_id>  (290) 
84

>  <original_smiles>  (290) 
CC12CCC3C(=C1CC1C2C(O)CC2(C)C(O)CCC12)CC(=O)C1CC(N)C(O)CC13C

>  <smiles>  (290) 
[H]OC1([H])C([H])([H])C2(C([H])([H])[H])C([H])(O[H])C([H])([H])C([H])([H])C2([H])C2([H])C([H])([H])C3=C4C([H])([H])C(=O)C5([H])C([H])([H])C([H])([N+]([H])([H])[H])C([H])(O[H])C([H])([H])C5(C([H])([H])[H])C4([H])C([H])([H])C([H])([H])C3(C([H])([H])[H])C12[H]

$$$$
84:0:1
     RDKit          3D

 74 79  0  0  1  0  0  0  0  0999 V2000
    2.2056   -5.6536    6.0157 C   0  0  0  0  0  0  0  0  0  0  0  0
    1.2579   -5.3619    4.8243 C   0  0  1  0  0  0  0  0  0  0  0  0
    0.2406   -4.2706    5.2310 C   0  0  0  0  0  0  0  0  0  0  0  0
    0.8724   -2.8799    5.3456 C   0  0  0  0  0  0  0  0  0  0  0  0
    1.5839   -2.4327    4.0408 C   0  0  2  0  0  0  0  0  0  0  0  0
    2.2477   -3.5925    3.2767 C   0  0  0  0  0  0  0  0  0  0  0  0
    2.1123   -4.8836    3.6623 C   0  0  0  0  0  0  0  0  0  0  0  0
    2.5740   -6.1233    2.9217 C   0  0  0  0  0  0  0  0  0  0  0  0
    1.3422   -7.0467    2.9680 C   0  0  2  0  0  0  0  0  0  0  0  0
    0.5467   -6.6338    4.2335 C   0  0  1  0  0  0  0  0  0  0  0  0
    0.2207   -7.8086    5.1906 C   0  0  1  0  0  0  0  0  0  0  0  0
   -0.9575   -8.4577    4.7268 O   0  0  0  0  0  0  0  0  0  0  0  0
    1.3782   -8.8198    5.3224 C   0  0  0  0  0  0  0  0  0  0  0  0
    1.8778   -9.4368    3.9884 C   0  0  2  0  0  0  0  0  0  0  0  0
    1.2754  -10.8594    3.8151 C   0  0  0  0  0  0  0  0  0  0  0  0
    3.4231   -9.4734    3.9282 C   0  0  1  0  0  0  0  0  0  0  0  0
    4.0184  -10.5262    4.6589 O   0  0  0  0  0  0  0  0  0  0  0  0
    3.8020   -9.4904    2.4434 C   0  0  0  0  0  0  0  0  0  0  0  0
    2.5860   -8.9452    1.6833 C   0  0  0  0  0  0  0  0  0  0  0  0
    1.5233   -8.5805    2.7413 C   0  0  2  0  0  0  0  0  0  0  0  0
    2.9572   -3.1966    1.9797 C   0  0  0  0  0  0  0  0  0  0  0  0
    3.7756   -1.9183    2.1331 C   0  0  0  0  0  0  0  0  0  0  0  0
    4.9114   -1.8214    1.6690 O   0  0  0  0  0  0  0  0  0  0  0  0
    3.1153   -0.7450    2.8570 C   0  0  1  0  0  0  0  0  0  0  0  0
    2.0741   -0.0673    1.9358 C   0  0  0  0  0  0  0  0  0  0  0  0
    1.4121    1.1569    2.5883 C   0  0  1  0  0  0  0  0  0  0  0  0
    0.3862    1.7352    1.6953 N   0  0  0  0  0  0  0  0  0  0  0  0
    0.8173    0.8099    3.9658 C   0  0  1  0  0  0  0  0  0  0  0  0
   -0.3932    0.0889    3.8155 O   0  0  0  0  0  0  0  0  0  0  0  0
    1.8296    0.0496    4.8610 C   0  0  0  0  0  0  0  0  0  0  0  0
    2.5349   -1.1937    4.2301 C   0  0  1  0  0  0  0  0  0  0  0  0
    3.7152   -1.5697    5.1715 C   0  0  0  0  0  0  0  0  0  0  0  0
    1.6760   -6.0606    6.8757 H   0  0  0  0  0  0  0  0  0  0  0  0
    2.7130   -4.7484    6.3496 H   0  0  0  0  0  0  0  0  0  0  0  0
    3.0015   -6.3428    5.7408 H   0  0  0  0  0  0  0  0  0  0  0  0
   -0.5404   -4.1953    4.4834 H   0  0  0  0  0  0  0  0  0  0  0  0
   -0.2567   -4.5463    6.1568 H   0  0  0  0  0  0  0  0  0  0  0  0
    0.0935   -2.1598    5.5949 H   0  0  0  0  0  0  0  0  0  0  0  0
    1.5536   -2.8758    6.1938 H   0  0  0  0  0  0  0  0  0  0  0  0
    0.7873   -2.1490    3.3614 H   0  0  0  0  0  0  0  0  0  0  0  0
    2.9074   -5.9275    1.9046 H   0  0  0  0  0  0  0  0  0  0  0  0
    3.4071   -6.5541    3.4715 H   0  0  0  0  0  0  0  0  0  0  0  0
    0.7417   -6.7218    2.1181 H   0  0  0  0  0  0  0  0  0  0  0  0
   -0.4218   -6.2947    3.8634 H   0  0  0  0  0  0  0  0  0  0  0  0
   -0.0253   -7.4147    6.1781 H   0  0  0  0  0  0  0  0  0  0  0  0
   -1.0976   -9.2889    5.1741 H   0  0  0  0  0  0  0  0  0  0  0  0
    2.2141   -8.3432    5.8314 H   0  0  0  0  0  0  0  0  0  0  0  0
    1.0817   -9.6090    6.0096 H   0  0  0  0  0  0  0  0  0  0  0  0
    1.6154  -11.3476    2.9014 H   0  0  0  0  0  0  0  0  0  0  0  0
    0.1854  -10.8343    3.7687 H   0  0  0  0  0  0  0  0  0  0  0  0
    1.5303  -11.5224    4.6440 H   0  0  0  0  0  0  0  0  0  0  0  0
    3.8180   -8.5499    4.3476 H   0  0  0  0  0  0  0  0  0  0  0  0
    3.6657  -11.3474    4.3469 H   0  0  0  0  0  0  0  0  0  0  0  0
    4.6829   -8.8729    2.2702 H   0  0  0  0  0  0  0  0  0  0  0  0
    4.0383  -10.4984    2.0976 H   0  0  0  0  0  0  0  0  0  0  0  0
    2.8416   -8.1083    1.0370 H   0  0  0  0  0  0  0  0  0  0  0  0
    2.2066   -9.7352    1.0354 H   0  0  0  0  0  0  0  0  0  0  0  0
    0.5585   -8.9253    2.3646 H   0  0  0  0  0  0  0  0  0  0  0  0
    3.6215   -3.9854    1.6345 H   0  0  0  0  0  0  0  0  0  0  0  0
    2.2169   -3.0286    1.1983 H   0  0  0  0  0  0  0  0  0  0  0  0
    3.9006   -0.0116    3.0450 H   0  0  0  0  0  0  0  0  0  0  0  0
    2.5691    0.2431    1.0145 H   0  0  0  0  0  0  0  0  0  0  0  0
    1.3104   -0.7866    1.6412 H   0  0  0  0  0  0  0  0  0  0  0  0
    2.1745    1.9237    2.7231 H   0  0  0  0  0  0  0  0  0  0  0  0
   -0.3552    1.0741    1.5272 H   0  0  0  0  0  0  0  0  0  0  0  0
    0.7956    1.9991    0.8149 H   0  0  0  0  0  0  0  0  0  0  0  0
    0.5601    1.7351    4.4807 H   0  0  0  0  0  0  0  0  0  0  0  0
   -0.2066   -0.7212    3.3629 H   0  0  0  0  0  0  0  0  0  0  0  0
    2.6102    0.7699    5.1176 H   0  0  0  0  0  0  0  0  0  0  0  0
    1.3671   -0.2060    5.8153 H   0  0  0  0  0  0  0  0  0  0  0  0
    4.4851   -0.7983    5.1754 H   0  0  0  0  0  0  0  0  0  0  0  0
    4.1965   -2.5001    4.8779 H   0  0  0  0  0  0  0  0  0  0  0  0
    3.3886   -1.6880    6.2023 H   0  0  0  0  0  0  0  0  0  0  0  0
   -0.0001    2.5885    2.0905 H   0  0  0  0  0  0  0  0  0  0  0  0
  2  1  1  1
  1 33  1  0
  1 34  1  0
  1 35  1  0
  2  7  1  0
  2 10  1  0
  2  3  1  0
  3  4  1  0
  3 36  1  0
  3 37  1  0
  4  5  1  0
  4 38  1  0
  4 39  1  0
  5 31  1  0
  5  6  1  0
  5 40  1  6
  6  7  2  0
  6 21  1  0
  7  8  1  0
  8  9  1  0
  8 41  1  0
  8 42  1  0
  9 20  1  0
  9 10  1  0
  9 43  1  6
 10 11  1  0
 10 44  1  6
 11 12  1  0
 11 13  1  0
 11 45  1  1
 12 46  1  0
 13 14  1  0
 13 47  1  0
 13 48  1  0
 14 20  1  0
 14 15  1  6
 14 16  1  0
 15 49  1  0
 15 50  1  0
 15 51  1  0
 16 17  1  0
 16 18  1  0
 16 52  1  1
 17 53  1  0
 18 19  1  0
 18 54  1  0
 18 55  1  0
 19 20  1  0
 19 56  1  0
 19 57  1  0
 20 58  1  6
 21 22  1  0
 21 59  1  0
 21 60  1  0
 22 23  2  0
 22 24  1  0
 24 31  1  0
 24 25  1  0
 24 61  1  1
 25 26  1  0
 25 62  1  0
 25 63  1  0
 26 27  1  0
 26 28  1  0
 26 64  1  1
 27 65  1  0
 27 66  1  0
 27 74  1  0
 28 29  1  0
 28 30  1  0
 28 67  1  1
 29 68  1  0
 30 31  1  0
 30 69  1  0
 30 70  1  0
 31 32  1  1
 32 71  1  0
 32 72  1  0
 32 73  1  0
M  CHG  1  27   1
M  END
>  <i_m_ct_stereo_status>  (291) 
1

>  <s_m_source_file>  (291) 
/var/tmp/pbs.5076255.sched01/tmpq3cms3f1/82_sdm1vz9.sdf

>  <i_m_source_file_index>  (291) 
39

>  <i_lp_mmshare_version>  (291) 
48012

>  <i_f3d_flags>  (291) 
0

>  <s_epik_input>  (291) 
W09IXVtDQEBIXShbQ0gyXTEpW0NASF0oW05IMl0pW0NIMl1bQ0BIXShDKD1PKVtDSDJdMilbQ0BdMShbQ0gzXSlbQ0BIXShbQ0gyXVtDSDJdMylDMj1DKFtDQEBdMzRbQ0gzXSlbQ0gyXVtDQEBIXTVbQ0BIXTRbQ0BASF0oW09IXSlbQ0gyXVtDQEBdNihbQ0gzXSlbQ0BASF01W0NIMl1bQ0gyXVtDQEBIXTZbT0hd

>  <s_epik_cmdline>  (291) 
J2VwaWtfcHl0aG9uJywgJy1waHQnLCAnMi4wJywgJy1waCcsICc3LjAnLCAnLXRuJywgJzgnLCAnLW1hJywgJzIwMCcsICctaW1hZScsICc8aW5maWxlLm1hZT4nLCAnLW9tYWUnLCAnPG91dGZpbGUubWFlPic=

>  <r_epik_Ionization_Penalty>  (291) 
0.00751063

>  <r_epik_Ionization_Penalty_Charging>  (291) 
0.00750781

>  <r_epik_Ionization_Penalty_Neutral>  (291) 
2.81869e-06

>  <r_epik_State_Penalty>  (291) 
0.00561218

>  <r_epik_Charging_Adjusted_Penalty>  (291) 
0.01312

>  <i_epik_Tot_Q>  (291) 
1

>  <i_epik_Tot_abs_Q>  (291) 
1

>  <s_lp_Force_Field>  (291) 
OPLS3e

>  <r_lp_Energy>  (291) 
67.2942

>  <b_lp_Chiralities_Consistent>  (291) 
1

>  <s_lp_Variant>  (291) 
84:0-1

>  <s_i_glide_gridfile>  (291) 
pfpi4k_grid

>  <i_i_glide_lignum>  (291) 
39

>  <i_i_glide_rotatable_bonds>  (291) 
3

>  <r_i_docking_score>  (291) 
-3.3828

>  <r_i_glide_ligand_efficiency>  (291) 
-0.105712

>  <r_i_glide_ligand_efficiency_sa>  (291) 
-0.335616

>  <r_i_glide_ligand_efficiency_ln>  (291) 
-0.7575

>  <r_i_glide_gscore>  (291) 
-3.3828

>  <r_i_glide_lipo>  (291) 
-0.126615

>  <r_i_glide_hbond>  (291) 
-0.159479

>  <r_i_glide_metal>  (291) 
-0

>  <r_i_glide_rewards>  (291) 
-0.377545

>  <r_i_glide_evdw>  (291) 
-28.2769

>  <r_i_glide_ecoul>  (291) 
-8.17109

>  <r_i_glide_erotb>  (291) 
0

>  <r_i_glide_esite>  (291) 
-0.0796477

>  <r_i_glide_emodel>  (291) 
-46.5143

>  <r_i_glide_energy>  (291) 
-36.448

>  <r_i_glide_einternal>  (291) 
0.709295

>  <r_i_glide_intrahb_reward>  (291) 
-0

>  <i_i_glide_confnum>  (291) 
1

>  <i_i_glide_posenum>  (291) 
29

>  <r_i_glide_eff_state_penalty>  (291) 
0

>  <ligand_id>  (291) 
84

>  <original_smiles>  (291) 
CC12CCC3C(=C1CC1C2C(O)CC2(C)C(O)CCC12)CC(=O)C1CC(N)C(O)CC13C

>  <smiles>  (291) 
[H]OC1([H])C([H])([H])C2(C([H])([H])[H])C([H])(O[H])C([H])([H])C([H])([H])C2([H])C2([H])C([H])([H])C3=C4C([H])([H])C(=O)C5([H])C([H])([H])C([H])([N+]([H])([H])[H])C([H])(O[H])C([H])([H])C5(C([H])([H])[H])C4([H])C([H])([H])C([H])([H])C3(C([H])([H])[H])C12[H]

$$$$
84:0:2
     RDKit          3D

 74 79  0  0  1  0  0  0  0  0999 V2000
    2.1837   -5.6697    6.0172 C   0  0  0  0  0  0  0  0  0  0  0  0
    1.2382   -5.3683    4.8261 C   0  0  1  0  0  0  0  0  0  0  0  0
    0.2296   -4.2685    5.2302 C   0  0  0  0  0  0  0  0  0  0  0  0
    0.8761   -2.8846    5.3472 C   0  0  0  0  0  0  0  0  0  0  0  0
    1.5891   -2.4424    4.0422 C   0  0  2  0  0  0  0  0  0  0  0  0
    2.2404   -3.6084    3.2765 C   0  0  0  0  0  0  0  0  0  0  0  0
    2.0947   -4.8977    3.6621 C   0  0  0  0  0  0  0  0  0  0  0  0
    2.5456   -6.1416    2.9217 C   0  0  0  0  0  0  0  0  0  0  0  0
    1.3062   -7.0538    2.9693 C   0  0  2  0  0  0  0  0  0  0  0  0
    0.5170   -6.6338    4.2365 C   0  0  1  0  0  0  0  0  0  0  0  0
    0.1853   -7.8057    5.1928 C   0  0  1  0  0  0  0  0  0  0  0  0
   -0.9867   -8.4513    4.7143 O   0  0  0  0  0  0  0  0  0  0  0  0
    1.3315   -8.8268    5.3260 C   0  0  0  0  0  0  0  0  0  0  0  0
    1.8208   -9.4486    3.9908 C   0  0  2  0  0  0  0  0  0  0  0  0
    1.2041  -10.8660    3.8179 C   0  0  0  0  0  0  0  0  0  0  0  0
    3.3648   -9.4998    3.9303 C   0  0  1  0  0  0  0  0  0  0  0  0
    3.9482  -10.5582    4.6609 O   0  0  0  0  0  0  0  0  0  0  0  0
    3.7418   -9.5218    2.4453 C   0  0  0  0  0  0  0  0  0  0  0  0
    2.5314   -8.9647    1.6870 C   0  0  0  0  0  0  0  0  0  0  0  0
    1.4731   -8.5896    2.7433 C   0  0  2  0  0  0  0  0  0  0  0  0
    2.9533   -3.2192    1.9798 C   0  0  0  0  0  0  0  0  0  0  0  0
    3.7833   -1.9493    2.1317 C   0  0  0  0  0  0  0  0  0  0  0  0
    4.9208   -1.8642    1.6705 O   0  0  0  0  0  0  0  0  0  0  0  0
    3.1345   -0.7702    2.8573 C   0  0  1  0  0  0  0  0  0  0  0  0
    2.0996   -0.0845    1.9357 C   0  0  0  0  0  0  0  0  0  0  0  0
    1.4507    1.1449    2.5863 C   0  0  1  0  0  0  0  0  0  0  0  0
    0.4376    1.7356    1.6824 N   0  0  0  0  0  0  0  0  0  0  0  0
    0.8500    0.8031    3.9645 C   0  0  1  0  0  0  0  0  0  0  0  0
   -0.3442    0.0517    3.8248 O   0  0  0  0  0  0  0  0  0  0  0  0
    1.8600    0.0401    4.8612 C   0  0  0  0  0  0  0  0  0  0  0  0
    2.5514   -1.2119    4.2305 C   0  0  1  0  0  0  0  0  0  0  0  0
    3.7281   -1.5987    5.1715 C   0  0  0  0  0  0  0  0  0  0  0  0
    1.6484   -6.0712    6.8763 H   0  0  0  0  0  0  0  0  0  0  0  0
    2.6985   -4.7690    6.3508 H   0  0  0  0  0  0  0  0  0  0  0  0
    2.9721   -6.3669    5.7422 H   0  0  0  0  0  0  0  0  0  0  0  0
   -0.5454   -4.1842    4.4793 H   0  0  0  0  0  0  0  0  0  0  0  0
   -0.2668   -4.5395    6.1602 H   0  0  0  0  0  0  0  0  0  0  0  0
    0.1044   -2.1562    5.5927 H   0  0  0  0  0  0  0  0  0  0  0  0
    1.5588   -2.8834    6.1955 H   0  0  0  0  0  0  0  0  0  0  0  0
    0.7931   -2.1466    3.3661 H   0  0  0  0  0  0  0  0  0  0  0  0
    2.8793   -5.9488    1.9047 H   0  0  0  0  0  0  0  0  0  0  0  0
    3.3762   -6.5796    3.4715 H   0  0  0  0  0  0  0  0  0  0  0  0
    0.7060   -6.7246    2.1205 H   0  0  0  0  0  0  0  0  0  0  0  0
   -0.4495   -6.2864    3.8692 H   0  0  0  0  0  0  0  0  0  0  0  0
   -0.0660   -7.4117    6.1793 H   0  0  0  0  0  0  0  0  0  0  0  0
   -1.1373   -9.2808    5.1627 H   0  0  0  0  0  0  0  0  0  0  0  0
    2.1718   -8.3630    5.8377 H   0  0  0  0  0  0  0  0  0  0  0  0
    1.0201   -9.6141    6.0096 H   0  0  0  0  0  0  0  0  0  0  0  0
    1.5388  -11.3580    2.9045 H   0  0  0  0  0  0  0  0  0  0  0  0
    0.1145  -10.8309    3.7708 H   0  0  0  0  0  0  0  0  0  0  0  0
    1.4519  -11.5317    4.6464 H   0  0  0  0  0  0  0  0  0  0  0  0
    3.7677   -8.5792    4.3481 H   0  0  0  0  0  0  0  0  0  0  0  0
    3.5829  -11.3751    4.3475 H   0  0  0  0  0  0  0  0  0  0  0  0
    4.6289   -8.9134    2.2712 H   0  0  0  0  0  0  0  0  0  0  0  0
    3.9670  -10.5329    2.1019 H   0  0  0  0  0  0  0  0  0  0  0  0
    2.7940   -8.1305    1.0395 H   0  0  0  0  0  0  0  0  0  0  0  0
    2.1439   -9.7521    1.0391 H   0  0  0  0  0  0  0  0  0  0  0  0
    0.5049   -8.9265    2.3668 H   0  0  0  0  0  0  0  0  0  0  0  0
    3.6106   -4.0139    1.6345 H   0  0  0  0  0  0  0  0  0  0  0  0
    2.2161   -3.0467    1.1972 H   0  0  0  0  0  0  0  0  0  0  0  0
    3.9257   -0.0445    3.0448 H   0  0  0  0  0  0  0  0  0  0  0  0
    2.5983    0.2191    1.0145 H   0  0  0  0  0  0  0  0  0  0  0  0
    1.3274   -0.7971    1.6457 H   0  0  0  0  0  0  0  0  0  0  0  0
    2.2209    1.9051    2.7202 H   0  0  0  0  0  0  0  0  0  0  0  0
   -0.2948    1.0770    1.4765 H   0  0  0  0  0  0  0  0  0  0  0  0
    0.8693    2.0000    0.8122 H   0  0  0  0  0  0  0  0  0  0  0  0
    0.5951    1.7331    4.4772 H   0  0  0  0  0  0  0  0  0  0  0  0
   -1.0040    0.5874    3.4073 H   0  0  0  0  0  0  0  0  0  0  0  0
    2.6461    0.7541    5.1187 H   0  0  0  0  0  0  0  0  0  0  0  0
    1.3901   -0.2129    5.8119 H   0  0  0  0  0  0  0  0  0  0  0  0
    4.5052   -0.8345    5.1745 H   0  0  0  0  0  0  0  0  0  0  0  0
    4.1995   -2.5334    4.8768 H   0  0  0  0  0  0  0  0  0  0  0  0
    3.4005   -1.7140    6.2019 H   0  0  0  0  0  0  0  0  0  0  0  0
    0.0566    2.5969    2.0642 H   0  0  0  0  0  0  0  0  0  0  0  0
  2  1  1  1
  1 33  1  0
  1 34  1  0
  1 35  1  0
  2  7  1  0
  2 10  1  0
  2  3  1  0
  3  4  1  0
  3 36  1  0
  3 37  1  0
  4  5  1  0
  4 38  1  0
  4 39  1  0
  5 31  1  0
  5  6  1  0
  5 40  1  6
  6  7  2  0
  6 21  1  0
  7  8  1  0
  8  9  1  0
  8 41  1  0
  8 42  1  0
  9 20  1  0
  9 10  1  0
  9 43  1  6
 10 11  1  0
 10 44  1  6
 11 12  1  0
 11 13  1  0
 11 45  1  1
 12 46  1  0
 13 14  1  0
 13 47  1  0
 13 48  1  0
 14 20  1  0
 14 15  1  6
 14 16  1  0
 15 49  1  0
 15 50  1  0
 15 51  1  0
 16 17  1  0
 16 18  1  0
 16 52  1  1
 17 53  1  0
 18 19  1  0
 18 54  1  0
 18 55  1  0
 19 20  1  0
 19 56  1  0
 19 57  1  0
 20 58  1  6
 21 22  1  0
 21 59  1  0
 21 60  1  0
 22 23  2  0
 22 24  1  0
 24 31  1  0
 24 25  1  0
 24 61  1  1
 25 26  1  0
 25 62  1  0
 25 63  1  0
 26 27  1  0
 26 28  1  0
 26 64  1  1
 27 65  1  0
 27 66  1  0
 27 74  1  0
 28 29  1  0
 28 30  1  0
 28 67  1  1
 29 68  1  0
 30 31  1  0
 30 69  1  0
 30 70  1  0
 31 32  1  1
 32 71  1  0
 32 72  1  0
 32 73  1  0
M  CHG  1  27   1
M  END
>  <i_m_ct_stereo_status>  (292) 
1

>  <s_m_source_file>  (292) 
/var/tmp/pbs.5076255.sched01/tmpq3cms3f1/82_sdm1vz9.sdf

>  <i_m_source_file_index>  (292) 
39

>  <i_lp_mmshare_version>  (292) 
48012

>  <i_f3d_flags>  (292) 
0

>  <s_epik_input>  (292) 
W09IXVtDQEBIXShbQ0gyXTEpW0NASF0oW05IMl0pW0NIMl1bQ0BIXShDKD1PKVtDSDJdMilbQ0BdMShbQ0gzXSlbQ0BIXShbQ0gyXVtDSDJdMylDMj1DKFtDQEBdMzRbQ0gzXSlbQ0gyXVtDQEBIXTVbQ0BIXTRbQ0BASF0oW09IXSlbQ0gyXVtDQEBdNihbQ0gzXSlbQ0BASF01W0NIMl1bQ0gyXVtDQEBIXTZbT0hd

>  <s_epik_cmdline>  (292) 
J2VwaWtfcHl0aG9uJywgJy1waHQnLCAnMi4wJywgJy1waCcsICc3LjAnLCAnLXRuJywgJzgnLCAnLW1hJywgJzIwMCcsICctaW1hZScsICc8aW5maWxlLm1hZT4nLCAnLW9tYWUnLCAnPG91dGZpbGUubWFlPic=

>  <r_epik_Ionization_Penalty>  (292) 
0.00751063

>  <r_epik_Ionization_Penalty_Charging>  (292) 
0.00750781

>  <r_epik_Ionization_Penalty_Neutral>  (292) 
2.81869e-06

>  <r_epik_State_Penalty>  (292) 
0.00561218

>  <r_epik_Charging_Adjusted_Penalty>  (292) 
0.01312

>  <i_epik_Tot_Q>  (292) 
1

>  <i_epik_Tot_abs_Q>  (292) 
1

>  <s_lp_Force_Field>  (292) 
OPLS3e

>  <r_lp_Energy>  (292) 
67.2942

>  <b_lp_Chiralities_Consistent>  (292) 
1

>  <s_lp_Variant>  (292) 
84:0-1

>  <s_i_glide_gridfile>  (292) 
pfpi4k_grid

>  <i_i_glide_lignum>  (292) 
39

>  <i_i_glide_rotatable_bonds>  (292) 
3

>  <r_i_docking_score>  (292) 
-3.24629

>  <r_i_glide_ligand_efficiency>  (292) 
-0.101447

>  <r_i_glide_ligand_efficiency_sa>  (292) 
-0.322073

>  <r_i_glide_ligand_efficiency_ln>  (292) 
-0.726934

>  <r_i_glide_gscore>  (292) 
-3.24629

>  <r_i_glide_lipo>  (292) 
-0.135875

>  <r_i_glide_hbond>  (292) 
-0.176219

>  <r_i_glide_metal>  (292) 
-0

>  <r_i_glide_rewards>  (292) 
-0.377545

>  <r_i_glide_evdw>  (292) 
-28.2903

>  <r_i_glide_ecoul>  (292) 
-7.08855

>  <r_i_glide_erotb>  (292) 
0

>  <r_i_glide_esite>  (292) 
-0.0788549

>  <r_i_glide_emodel>  (292) 
-44.9245

>  <r_i_glide_energy>  (292) 
-35.3789

>  <r_i_glide_einternal>  (292) 
1.02197

>  <r_i_glide_intrahb_reward>  (292) 
-0

>  <i_i_glide_confnum>  (292) 
1

>  <i_i_glide_posenum>  (292) 
37

>  <r_i_glide_eff_state_penalty>  (292) 
0

>  <ligand_id>  (292) 
84

>  <original_smiles>  (292) 
CC12CCC3C(=C1CC1C2C(O)CC2(C)C(O)CCC12)CC(=O)C1CC(N)C(O)CC13C

>  <smiles>  (292) 
[H]OC1([H])C([H])([H])C2(C([H])([H])[H])C([H])(O[H])C([H])([H])C([H])([H])C2([H])C2([H])C([H])([H])C3=C4C([H])([H])C(=O)C5([H])C([H])([H])C([H])([N+]([H])([H])[H])C([H])(O[H])C([H])([H])C5(C([H])([H])[H])C4([H])C([H])([H])C([H])([H])C3(C([H])([H])[H])C12[H]

$$$$
85:0:0
     RDKit          3D

 46 49  0  0  1  0  0  0  0  0999 V2000
    3.8583   -2.1217    5.0207 C   0  0  0  0  0  0  0  0  0  0  0  0
    3.5087   -2.9835    3.8780 N   0  0  0  0  0  0  0  0  0  0  0  0
    2.6532   -4.0244    4.0411 C   0  0  0  0  0  0  0  0  0  0  0  0
    2.1414   -4.3131    5.1214 O   0  0  0  0  0  0  0  0  0  0  0  0
    2.3256   -4.9368    2.8494 C   0  0  0  0  0  0  0  0  0  0  0  0
    2.7376   -4.3620    1.4908 C   0  0  0  0  0  0  0  0  0  0  0  0
    4.1471   -3.7221    1.5232 C   0  0  1  0  0  0  0  0  0  0  0  0
    5.1954   -4.7754    1.9737 C   0  0  0  0  0  0  0  0  0  0  0  0
    4.5889   -3.1706    0.1184 C   0  0  1  0  0  0  0  0  0  0  0  0
    4.7750   -4.2699   -0.9899 C   0  0  0  0  0  0  0  0  0  0  0  0
    5.0334   -3.7566   -2.4350 C   0  0  0  0  0  0  0  0  0  0  0  0
    4.0176   -2.6762   -2.7121 C   0  0  2  0  0  0  0  0  0  0  0  0
    4.0154   -1.6169   -3.8170 C   0  0  0  0  0  0  0  0  0  0  0  0
    3.4313   -0.6694   -2.7428 C   0  0  0  0  0  0  0  0  0  0  0  0
    4.1676   -1.5399   -1.7226 C   0  0  1  0  0  0  0  0  0  0  0  0
    3.7195   -1.9524   -0.3331 C   0  0  2  0  0  0  0  0  0  0  0  0
    3.8466   -0.8278    0.7013 C   0  0  0  0  0  0  0  0  0  0  0  0
    3.3635   -1.2968    2.0769 C   0  0  0  0  0  0  0  0  0  0  0  0
    4.0962   -2.5637    2.5823 C   0  0  1  0  0  0  0  0  0  0  0  0
    3.5881   -2.5452    5.9879 H   0  0  0  0  0  0  0  0  0  0  0  0
    3.3421   -1.1658    4.9463 H   0  0  0  0  0  0  0  0  0  0  0  0
    4.9308   -1.9303    5.0540 H   0  0  0  0  0  0  0  0  0  0  0  0
    2.8339   -5.8870    3.0149 H   0  0  0  0  0  0  0  0  0  0  0  0
    1.2583   -5.1584    2.8641 H   0  0  0  0  0  0  0  0  0  0  0  0
    2.6641   -5.1488    0.7418 H   0  0  0  0  0  0  0  0  0  0  0  0
    1.9971   -3.6141    1.2168 H   0  0  0  0  0  0  0  0  0  0  0  0
    6.2125   -4.4054    1.8432 H   0  0  0  0  0  0  0  0  0  0  0  0
    5.0989   -5.6982    1.4001 H   0  0  0  0  0  0  0  0  0  0  0  0
    5.0966   -5.0469    3.0248 H   0  0  0  0  0  0  0  0  0  0  0  0
    5.5927   -2.7663    0.2645 H   0  0  0  0  0  0  0  0  0  0  0  0
    5.5911   -4.9371   -0.7187 H   0  0  0  0  0  0  0  0  0  0  0  0
    3.8844   -4.8880   -1.0230 H   0  0  0  0  0  0  0  0  0  0  0  0
    6.0507   -3.3701   -2.5259 H   0  0  0  0  0  0  0  0  0  0  0  0
    4.9495   -4.5759   -3.1514 H   0  0  0  0  0  0  0  0  0  0  0  0
    3.0047   -3.0932   -2.6504 H   0  0  0  0  0  0  0  0  0  0  0  0
    5.0062   -1.3252   -4.1552 H   0  0  0  0  0  0  0  0  0  0  0  0
    3.3375   -1.8258   -4.6464 H   0  0  0  0  0  0  0  0  0  0  0  0
    3.8061    0.3532   -2.8111 H   0  0  0  0  0  0  0  0  0  0  0  0
    2.3422   -0.7197   -2.6551 H   0  0  0  0  0  0  0  0  0  0  0  0
    5.2080   -1.2064   -1.6988 H   0  0  0  0  0  0  0  0  0  0  0  0
    2.6711   -2.2554   -0.3824 H   0  0  0  0  0  0  0  0  0  0  0  0
    4.8814   -0.4876    0.7581 H   0  0  0  0  0  0  0  0  0  0  0  0
    3.2509    0.0332    0.4074 H   0  0  0  0  0  0  0  0  0  0  0  0
    3.5163   -0.4721    2.7711 H   0  0  0  0  0  0  0  0  0  0  0  0
    2.2870   -1.4603    2.0414 H   0  0  0  0  0  0  0  0  0  0  0  0
    5.1286   -2.2667    2.7792 H   0  0  0  0  0  0  0  0  0  0  0  0
  1  2  1  0
  1 20  1  0
  1 21  1  0
  1 22  1  0
  2 19  1  0
  2  3  1  0
  3  4  2  0
  3  5  1  0
  5  6  1  0
  5 23  1  0
  5 24  1  0
  6  7  1  0
  6 25  1  0
  6 26  1  0
  7 19  1  0
  7  8  1  1
  7  9  1  0
  8 27  1  0
  8 28  1  0
  8 29  1  0
  9 16  1  0
  9 10  1  0
  9 30  1  1
 10 11  1  0
 10 31  1  0
 10 32  1  0
 11 12  1  0
 11 33  1  0
 11 34  1  0
 12 15  1  0
 12 13  1  0
 12 35  1  1
 13 14  1  0
 13 36  1  0
 13 37  1  0
 14 15  1  0
 14 38  1  0
 14 39  1  0
 15 16  1  0
 15 40  1  1
 16 17  1  0
 16 41  1  6
 17 18  1  0
 17 42  1  0
 17 43  1  0
 18 19  1  0
 18 44  1  0
 18 45  1  0
 19 46  1  1
M  END
>  <i_m_ct_stereo_status>  (293) 
1

>  <s_m_source_file>  (293) 
/var/tmp/pbs.5076255.sched01/tmpq3cms3f1/82_sdm1vz9.sdf

>  <i_m_source_file_index>  (293) 
40

>  <i_lp_mmshare_version>  (293) 
48012

>  <i_f3d_flags>  (293) 
0

>  <s_epik_input>  (293) 
W0NIMl0xW0NIMl1DKD1PKU4oW0NIM10pW0NAQEhdMltDSDJdW0NIMl1bQ0BIXShbQ0BIXTNbQ0BdMTJbQ0gzXSlbQ0BIXTRbQ0BIXShbQ0gyXVtDSDJdMylbQ0gyXVtDSDJdNA==

>  <s_epik_cmdline>  (293) 
J2VwaWtfcHl0aG9uJywgJy1waHQnLCAnMi4wJywgJy1waCcsICc3LjAnLCAnLXRuJywgJzgnLCAnLW1hJywgJzIwMCcsICctaW1hZScsICc8aW5maWxlLm1hZT4nLCAnLW9tYWUnLCAnPG91dGZpbGUubWFlPic=

>  <r_lp_tautomer_probability>  (293) 
1

>  <r_epik_Ionization_Penalty>  (293) 
2.00297e-07

>  <r_epik_Ionization_Penalty_Charging>  (293) 
0

>  <r_epik_Ionization_Penalty_Neutral>  (293) 
2.00297e-07

>  <r_epik_State_Penalty>  (293) 
-0

>  <r_epik_Charging_Adjusted_Penalty>  (293) 
0

>  <i_epik_Tot_Q>  (293) 
0

>  <i_epik_Tot_abs_Q>  (293) 
0

>  <s_lp_Force_Field>  (293) 
OPLS3e

>  <r_lp_Energy>  (293) 
56.247

>  <b_lp_Chiralities_Consistent>  (293) 
1

>  <s_lp_Variant>  (293) 
85:0-1

>  <s_i_glide_gridfile>  (293) 
pfpi4k_grid

>  <i_i_glide_lignum>  (293) 
40

>  <i_i_glide_rotatable_bonds>  (293) 
0

>  <r_i_docking_score>  (293) 
-2.78457

>  <r_i_glide_ligand_efficiency>  (293) 
-0.146556

>  <r_i_glide_ligand_efficiency_sa>  (293) 
-0.391071

>  <r_i_glide_ligand_efficiency_ln>  (293) 
-0.705948

>  <r_i_glide_gscore>  (293) 
-2.78457

>  <r_i_glide_lipo>  (293) 
-0.257825

>  <r_i_glide_hbond>  (293) 
0

>  <r_i_glide_metal>  (293) 
-0

>  <r_i_glide_rewards>  (293) 
-1.6271

>  <r_i_glide_evdw>  (293) 
-15.9454

>  <r_i_glide_ecoul>  (293) 
-0.682522

>  <r_i_glide_erotb>  (293) 
0

>  <r_i_glide_esite>  (293) 
0

>  <r_i_glide_emodel>  (293) 
-18.9274

>  <r_i_glide_energy>  (293) 
-16.6279

>  <r_i_glide_einternal>  (293) 
0

>  <r_i_glide_intrahb_reward>  (293) 
-0

>  <i_i_glide_confnum>  (293) 
2

>  <i_i_glide_posenum>  (293) 
1

>  <r_i_glide_eff_state_penalty>  (293) 
0

>  <ligand_id>  (293) 
85

>  <original_smiles>  (293) 
CN1C(=O)CCC2(C)C3CCC4CCC4C3CCC12

>  <smiles>  (293) 
[H]C([H])([H])N1C(=O)C([H])([H])C([H])([H])C2(C([H])([H])[H])C1([H])C([H])([H])C([H])([H])C1([H])C3([H])C([H])([H])C([H])([H])C3([H])C([H])([H])C([H])([H])C12[H]

$$$$
86:0:0
     RDKit          3D

 19 20  0  0  1  0  0  0  0  0999 V2000
   -5.3884   -4.2769   -5.1162 O   0  0  0  0  0  0  0  0  0  0  0  0
   -6.5103   -5.0572   -4.7806 C   0  0  0  0  0  0  0  0  0  0  0  0
   -6.5009   -6.3949   -5.5068 C   0  0  0  0  0  0  0  0  0  0  0  0
   -5.5670   -7.2802   -5.0943 N   0  0  0  0  0  0  0  0  0  0  0  0
   -5.5191   -8.4875   -5.7085 C   0  0  0  0  0  0  0  0  0  0  0  0
   -4.5858   -9.4618   -5.2925 C   0  0  0  0  0  0  0  0  0  0  0  0
   -4.5545  -10.7213   -5.9197 C   0  0  0  0  0  0  0  0  0  0  0  0
   -5.4710  -10.9575   -6.9536 C   0  0  0  0  0  0  0  0  0  0  0  0
   -6.3617  -10.0376   -7.3670 N   0  0  0  0  0  0  0  0  0  0  0  0
   -6.4143   -8.8205   -6.7725 C   0  0  0  0  0  0  0  0  0  0  0  0
   -7.3247   -7.9046   -7.1821 N   0  0  0  0  0  0  0  0  0  0  0  0
   -7.3823   -6.7031   -6.5674 C   0  0  0  0  0  0  0  0  0  0  0  0
   -8.5424   -5.5571   -7.1472 Cl  0  0  0  0  0  0  0  0  0  0  0  0
   -5.3823   -3.4879   -4.5952 H   0  0  0  0  0  0  0  0  0  0  0  0
   -6.5205   -5.2311   -3.7040 H   0  0  0  0  0  0  0  0  0  0  0  0
   -7.4056   -4.4801   -5.0015 H   0  0  0  0  0  0  0  0  0  0  0  0
   -3.9105   -9.2525   -4.4799 H   0  0  0  0  0  0  0  0  0  0  0  0
   -3.8553  -11.4832   -5.5974 H   0  0  0  0  0  0  0  0  0  0  0  0
   -5.4917  -11.9067   -7.4713 H   0  0  0  0  0  0  0  0  0  0  0  0
  1  2  1  0
  1 14  1  0
  2  3  1  0
  2 15  1  0
  2 16  1  0
  3 12  2  0
  3  4  1  0
  4  5  2  0
  5 10  1  0
  5  6  1  0
  6  7  2  0
  6 17  1  0
  7  8  1  0
  7 18  1  0
  8  9  2  0
  8 19  1  0
  9 10  1  0
 10 11  2  0
 11 12  1  0
 12 13  1  0
M  END
>  <i_m_ct_stereo_status>  (294) 
1

>  <s_m_source_file>  (294) 
/var/tmp/pbs.5076255.sched01/tmpq3cms3f1/82_sdm1vz9.sdf

>  <i_m_source_file_index>  (294) 
41

>  <i_lp_mmshare_version>  (294) 
48012

>  <i_f3d_flags>  (294) 
0

>  <s_epik_input>  (294) 
W09IXVtDSDJdYyhuMSljKENsKW5jKGMxMiluW2NIXVtjSF1bY0hdMg==

>  <s_epik_cmdline>  (294) 
J2VwaWtfcHl0aG9uJywgJy1waHQnLCAnMi4wJywgJy1waCcsICc3LjAnLCAnLXRuJywgJzgnLCAnLW1hJywgJzIwMCcsICctaW1hZScsICc8aW5maWxlLm1hZT4nLCAnLW9tYWUnLCAnPG91dGZpbGUubWFlPic=

>  <r_lp_tautomer_probability>  (294) 
1

>  <r_epik_Ionization_Penalty>  (294) 
2.45656e-06

>  <r_epik_Ionization_Penalty_Charging>  (294) 
0

>  <r_epik_Ionization_Penalty_Neutral>  (294) 
2.45656e-06

>  <r_epik_State_Penalty>  (294) 
-0

>  <r_epik_Charging_Adjusted_Penalty>  (294) 
0

>  <i_epik_Tot_Q>  (294) 
0

>  <i_epik_Tot_abs_Q>  (294) 
0

>  <s_lp_Force_Field>  (294) 
OPLS3e

>  <r_lp_Energy>  (294) 
22.7531

>  <b_lp_Chiralities_Consistent>  (294) 
1

>  <s_lp_Variant>  (294) 
86:0-1

>  <s_i_glide_gridfile>  (294) 
pfpi4k_grid

>  <i_i_glide_lignum>  (294) 
41

>  <i_i_glide_rotatable_bonds>  (294) 
2

>  <r_i_docking_score>  (294) 
-6.29999

>  <r_i_glide_ligand_efficiency>  (294) 
-0.484614

>  <r_i_glide_ligand_efficiency_sa>  (294) 
-1.13949

>  <r_i_glide_ligand_efficiency_ln>  (294) 
-1.7672

>  <r_i_glide_gscore>  (294) 
-6.29999

>  <r_i_glide_lipo>  (294) 
-1.57058

>  <r_i_glide_hbond>  (294) 
-0.0351575

>  <r_i_glide_metal>  (294) 
-0

>  <r_i_glide_rewards>  (294) 
-2.8588

>  <r_i_glide_evdw>  (294) 
-25.2672

>  <r_i_glide_ecoul>  (294) 
-3.81387

>  <r_i_glide_erotb>  (294) 
0

>  <r_i_glide_esite>  (294) 
0

>  <r_i_glide_emodel>  (294) 
-40.5401

>  <r_i_glide_energy>  (294) 
-29.0811

>  <r_i_glide_einternal>  (294) 
0.345213

>  <r_i_glide_intrahb_reward>  (294) 
-0

>  <i_i_glide_confnum>  (294) 
2

>  <i_i_glide_posenum>  (294) 
33

>  <r_i_glide_eff_state_penalty>  (294) 
0

>  <ligand_id>  (294) 
86

>  <original_smiles>  (294) 
OCc1nc2cccnc2nc1Cl

>  <smiles>  (294) 
[H]OC([H])([H])c1nc2c([H])c([H])c([H])nc2nc1Cl

$$$$
86:0:1
     RDKit          3D

 19 20  0  0  1  0  0  0  0  0999 V2000
   -5.0204   -4.4227   -5.1204 O   0  0  0  0  0  0  0  0  0  0  0  0
   -6.3440   -4.6941   -4.7202 C   0  0  0  0  0  0  0  0  0  0  0  0
   -7.0493   -5.6070   -5.7050 C   0  0  0  0  0  0  0  0  0  0  0  0
   -8.1279   -5.0909   -6.3288 N   0  0  0  0  0  0  0  0  0  0  0  0
   -8.7661   -5.8670   -7.2362 C   0  0  0  0  0  0  0  0  0  0  0  0
   -9.9198   -5.3886   -7.8874 C   0  0  0  0  0  0  0  0  0  0  0  0
  -10.5966   -6.1987   -8.8155 C   0  0  0  0  0  0  0  0  0  0  0  0
  -10.0890   -7.4852   -9.0464 C   0  0  0  0  0  0  0  0  0  0  0  0
   -8.9889   -7.9609   -8.4324 N   0  0  0  0  0  0  0  0  0  0  0  0
   -8.3194   -7.1945   -7.5408 C   0  0  0  0  0  0  0  0  0  0  0  0
   -7.2238   -7.6806   -6.9099 N   0  0  0  0  0  0  0  0  0  0  0  0
   -6.5879   -6.9136   -6.0007 C   0  0  0  0  0  0  0  0  0  0  0  0
   -5.1735   -7.5617   -5.2438 Cl  0  0  0  0  0  0  0  0  0  0  0  0
   -4.6742   -3.6939   -4.6142 H   0  0  0  0  0  0  0  0  0  0  0  0
   -6.3328   -5.1704   -3.7383 H   0  0  0  0  0  0  0  0  0  0  0  0
   -6.8831   -3.7502   -4.6240 H   0  0  0  0  0  0  0  0  0  0  0  0
  -10.2955   -4.4029   -7.6593 H   0  0  0  0  0  0  0  0  0  0  0  0
  -11.4998   -5.8549   -9.3046 H   0  0  0  0  0  0  0  0  0  0  0  0
  -10.5794   -8.1552   -9.7371 H   0  0  0  0  0  0  0  0  0  0  0  0
  1  2  1  0
  1 14  1  0
  2  3  1  0
  2 15  1  0
  2 16  1  0
  3 12  2  0
  3  4  1  0
  4  5  2  0
  5 10  1  0
  5  6  1  0
  6  7  2  0
  6 17  1  0
  7  8  1  0
  7 18  1  0
  8  9  2  0
  8 19  1  0
  9 10  1  0
 10 11  2  0
 11 12  1  0
 12 13  1  0
M  END
>  <i_m_ct_stereo_status>  (295) 
1

>  <s_m_source_file>  (295) 
/var/tmp/pbs.5076255.sched01/tmpq3cms3f1/82_sdm1vz9.sdf

>  <i_m_source_file_index>  (295) 
41

>  <i_lp_mmshare_version>  (295) 
48012

>  <i_f3d_flags>  (295) 
0

>  <s_epik_input>  (295) 
W09IXVtDSDJdYyhuMSljKENsKW5jKGMxMiluW2NIXVtjSF1bY0hdMg==

>  <s_epik_cmdline>  (295) 
J2VwaWtfcHl0aG9uJywgJy1waHQnLCAnMi4wJywgJy1waCcsICc3LjAnLCAnLXRuJywgJzgnLCAnLW1hJywgJzIwMCcsICctaW1hZScsICc8aW5maWxlLm1hZT4nLCAnLW9tYWUnLCAnPG91dGZpbGUubWFlPic=

>  <r_lp_tautomer_probability>  (295) 
1

>  <r_epik_Ionization_Penalty>  (295) 
2.45656e-06

>  <r_epik_Ionization_Penalty_Charging>  (295) 
0

>  <r_epik_Ionization_Penalty_Neutral>  (295) 
2.45656e-06

>  <r_epik_State_Penalty>  (295) 
-0

>  <r_epik_Charging_Adjusted_Penalty>  (295) 
0

>  <i_epik_Tot_Q>  (295) 
0

>  <i_epik_Tot_abs_Q>  (295) 
0

>  <s_lp_Force_Field>  (295) 
OPLS3e

>  <r_lp_Energy>  (295) 
22.7531

>  <b_lp_Chiralities_Consistent>  (295) 
1

>  <s_lp_Variant>  (295) 
86:0-1

>  <s_i_glide_gridfile>  (295) 
pfpi4k_grid

>  <i_i_glide_lignum>  (295) 
41

>  <i_i_glide_rotatable_bonds>  (295) 
2

>  <r_i_docking_score>  (295) 
-6.27099

>  <r_i_glide_ligand_efficiency>  (295) 
-0.482384

>  <r_i_glide_ligand_efficiency_sa>  (295) 
-1.13425

>  <r_i_glide_ligand_efficiency_ln>  (295) 
-1.75907

>  <r_i_glide_gscore>  (295) 
-6.27099

>  <r_i_glide_lipo>  (295) 
-1.45786

>  <r_i_glide_hbond>  (295) 
-0.300308

>  <r_i_glide_metal>  (295) 
-0

>  <r_i_glide_rewards>  (295) 
-2.74788

>  <r_i_glide_evdw>  (295) 
-21.4517

>  <r_i_glide_ecoul>  (295) 
-4.61571

>  <r_i_glide_erotb>  (295) 
0

>  <r_i_glide_esite>  (295) 
0

>  <r_i_glide_emodel>  (295) 
-37.4714

>  <r_i_glide_energy>  (295) 
-26.0674

>  <r_i_glide_einternal>  (295) 
0.400826

>  <r_i_glide_intrahb_reward>  (295) 
-0

>  <i_i_glide_confnum>  (295) 
2

>  <i_i_glide_posenum>  (295) 
1

>  <r_i_glide_eff_state_penalty>  (295) 
0

>  <ligand_id>  (295) 
86

>  <original_smiles>  (295) 
OCc1nc2cccnc2nc1Cl

>  <smiles>  (295) 
[H]OC([H])([H])c1nc2c([H])c([H])c([H])nc2nc1Cl

$$$$
86:0:2
     RDKit          3D

 19 20  0  0  1  0  0  0  0  0999 V2000
   -0.9798    4.4998    3.2764 O   0  0  0  0  0  0  0  0  0  0  0  0
   -0.2174    3.5430    3.9873 C   0  0  0  0  0  0  0  0  0  0  0  0
   -0.8616    3.1407    5.3098 C   0  0  0  0  0  0  0  0  0  0  0  0
   -0.9312    4.1088    6.2523 N   0  0  0  0  0  0  0  0  0  0  0  0
   -1.4980    3.7928    7.4421 C   0  0  0  0  0  0  0  0  0  0  0  0
   -1.6005    4.7641    8.4640 C   0  0  0  0  0  0  0  0  0  0  0  0
   -2.2035    4.4301    9.6902 C   0  0  0  0  0  0  0  0  0  0  0  0
   -2.6790    3.1208    9.8542 C   0  0  0  0  0  0  0  0  0  0  0  0
   -2.5855    2.1896    8.8855 N   0  0  0  0  0  0  0  0  0  0  0  0
   -2.0131    2.4878    7.7005 C   0  0  0  0  0  0  0  0  0  0  0  0
   -1.9267    1.5359    6.7454 N   0  0  0  0  0  0  0  0  0  0  0  0
   -1.3640    1.8438    5.5593 C   0  0  0  0  0  0  0  0  0  0  0  0
   -1.2898    0.5833    4.3778 Cl  0  0  0  0  0  0  0  0  0  0  0  0
   -0.6138    4.5464    2.3919 H   0  0  0  0  0  0  0  0  0  0  0  0
   -0.0595    2.6857    3.3342 H   0  0  0  0  0  0  0  0  0  0  0  0
    0.7723    3.9578    4.1768 H   0  0  0  0  0  0  0  0  0  0  0  0
   -1.2258    5.7627    8.3060 H   0  0  0  0  0  0  0  0  0  0  0  0
   -2.2974    5.1576   10.4862 H   0  0  0  0  0  0  0  0  0  0  0  0
   -3.1477    2.8118   10.7776 H   0  0  0  0  0  0  0  0  0  0  0  0
  1  2  1  0
  1 14  1  0
  2  3  1  0
  2 15  1  0
  2 16  1  0
  3 12  2  0
  3  4  1  0
  4  5  2  0
  5 10  1  0
  5  6  1  0
  6  7  2  0
  6 17  1  0
  7  8  1  0
  7 18  1  0
  8  9  2  0
  8 19  1  0
  9 10  1  0
 10 11  2  0
 11 12  1  0
 12 13  1  0
M  END
>  <i_m_ct_stereo_status>  (296) 
1

>  <s_m_source_file>  (296) 
/var/tmp/pbs.5076255.sched01/tmpq3cms3f1/82_sdm1vz9.sdf

>  <i_m_source_file_index>  (296) 
41

>  <i_lp_mmshare_version>  (296) 
48012

>  <i_f3d_flags>  (296) 
0

>  <s_epik_input>  (296) 
W09IXVtDSDJdYyhuMSljKENsKW5jKGMxMiluW2NIXVtjSF1bY0hdMg==

>  <s_epik_cmdline>  (296) 
J2VwaWtfcHl0aG9uJywgJy1waHQnLCAnMi4wJywgJy1waCcsICc3LjAnLCAnLXRuJywgJzgnLCAnLW1hJywgJzIwMCcsICctaW1hZScsICc8aW5maWxlLm1hZT4nLCAnLW9tYWUnLCAnPG91dGZpbGUubWFlPic=

>  <r_lp_tautomer_probability>  (296) 
1

>  <r_epik_Ionization_Penalty>  (296) 
2.45656e-06

>  <r_epik_Ionization_Penalty_Charging>  (296) 
0

>  <r_epik_Ionization_Penalty_Neutral>  (296) 
2.45656e-06

>  <r_epik_State_Penalty>  (296) 
-0

>  <r_epik_Charging_Adjusted_Penalty>  (296) 
0

>  <i_epik_Tot_Q>  (296) 
0

>  <i_epik_Tot_abs_Q>  (296) 
0

>  <s_lp_Force_Field>  (296) 
OPLS3e

>  <r_lp_Energy>  (296) 
22.7531

>  <b_lp_Chiralities_Consistent>  (296) 
1

>  <s_lp_Variant>  (296) 
86:0-1

>  <s_i_glide_gridfile>  (296) 
pfpi4k_grid

>  <i_i_glide_lignum>  (296) 
41

>  <i_i_glide_rotatable_bonds>  (296) 
2

>  <r_i_docking_score>  (296) 
-4.2041

>  <r_i_glide_ligand_efficiency>  (296) 
-0.323393

>  <r_i_glide_ligand_efficiency_sa>  (296) 
-0.760404

>  <r_i_glide_ligand_efficiency_ln>  (296) 
-1.17929

>  <r_i_glide_gscore>  (296) 
-4.2041

>  <r_i_glide_lipo>  (296) 
-0.0254161

>  <r_i_glide_hbond>  (296) 
-0.164259

>  <r_i_glide_metal>  (296) 
-0

>  <r_i_glide_rewards>  (296) 
-2.07542

>  <r_i_glide_evdw>  (296) 
-14.4598

>  <r_i_glide_ecoul>  (296) 
-8.0991

>  <r_i_glide_erotb>  (296) 
0

>  <r_i_glide_esite>  (296) 
-0.00115332

>  <r_i_glide_emodel>  (296) 
-29.8801

>  <r_i_glide_energy>  (296) 
-22.5589

>  <r_i_glide_einternal>  (296) 
0.625701

>  <r_i_glide_intrahb_reward>  (296) 
-0

>  <i_i_glide_confnum>  (296) 
2

>  <i_i_glide_posenum>  (296) 
31

>  <r_i_glide_eff_state_penalty>  (296) 
0

>  <ligand_id>  (296) 
86

>  <original_smiles>  (296) 
OCc1nc2cccnc2nc1Cl

>  <smiles>  (296) 
[H]OC([H])([H])c1nc2c([H])c([H])c([H])nc2nc1Cl

$$$$
87:0:0
     RDKit          3D

 61 66  0  0  1  0  0  0  0  0999 V2000
    4.1806   -9.8200    2.1382 C   0  0  0  0  0  0  0  0  0  0  0  0
    4.4741   -8.5053    2.5968 O   0  0  0  0  0  0  0  0  0  0  0  0
    3.4542   -7.9655    3.4321 C   0  0  2  0  0  0  0  0  0  0  0  0
    2.2304   -7.3824    2.7576 C   0  0  1  0  0  0  0  0  0  0  0  0
    1.0902   -7.7924    1.8687 C   0  0  2  0  0  0  0  0  0  0  0  0
    0.8615   -6.5134    0.9852 C   0  0  0  0  0  0  0  0  0  0  0  0
    2.1253   -5.6410    0.5165 C   0  0  0  0  0  0  0  0  0  0  0  0
    3.0133   -4.7482    1.5290 C   0  0  1  0  0  0  0  0  0  0  0  0
    4.0721   -5.3637    2.6165 C   0  0  2  0  0  0  0  0  0  0  0  0
    5.3998   -5.7644    1.9043 C   0  0  1  0  0  0  0  0  0  0  0  0
    5.1658   -6.6370    0.8219 O   0  0  0  0  0  0  0  0  0  0  0  0
    6.1318   -4.5357    1.3587 C   0  0  0  0  0  0  0  0  0  0  0  0
    5.2100   -3.6623    0.5348 C   0  0  0  0  0  0  0  0  0  0  0  0
    5.5265   -2.7393   -0.3765 C   0  0  0  0  0  0  0  0  0  0  0  0
    4.2470   -1.9852   -0.6522 C   0  0  1  0  0  0  0  0  0  0  0  0
    4.2032   -1.2902   -1.8752 O   0  0  0  0  0  0  0  0  0  0  0  0
    3.2253   -3.0983   -0.5545 C   0  0  0  0  0  0  0  0  0  0  0  0
    3.7202   -3.5351    0.8195 C   0  0  1  0  0  0  0  0  0  0  0  0
    3.5425   -2.1474    1.5027 C   0  0  0  0  0  0  0  0  0  0  0  0
    3.9385   -1.2118    0.4729 O   0  0  0  0  0  0  0  0  0  0  0  0
    3.6425   -6.4172    3.7867 C   0  0  2  0  0  0  0  0  0  0  0  0
    4.5122   -6.1436    5.0220 C   0  0  0  0  0  0  0  0  0  0  0  0
    2.1037   -6.4719    4.0441 C   0  0  1  0  0  0  0  0  0  0  0  0
    1.3595   -5.1156    4.0956 C   0  0  0  0  0  0  0  0  0  0  0  0
    1.5018   -7.2422    5.2729 C   0  0  0  0  0  0  0  0  0  0  0  0
    0.5814   -8.2243    4.8072 O   0  0  0  0  0  0  0  0  0  0  0  0
   -0.4148   -7.8638    3.9875 C   0  0  0  0  0  0  0  0  0  0  0  0
   -1.3670   -7.1409    4.2854 O   0  0  0  0  0  0  0  0  0  0  0  0
   -0.1804   -8.3663    2.5657 C   0  0  0  0  0  0  0  0  0  0  0  0
    5.0111  -10.1965    1.5353 H   0  0  0  0  0  0  0  0  0  0  0  0
    3.2846   -9.8351    1.5126 H   0  0  0  0  0  0  0  0  0  0  0  0
    4.0329  -10.5030    2.9782 H   0  0  0  0  0  0  0  0  0  0  0  0
    3.2774   -8.6302    4.2781 H   0  0  0  0  0  0  0  0  0  0  0  0
    2.8838   -7.2118    1.9214 H   0  0  0  0  0  0  0  0  0  0  0  0
    1.4417   -8.5843    1.2056 H   0  0  0  0  0  0  0  0  0  0  0  0
    0.3522   -6.8611    0.0861 H   0  0  0  0  0  0  0  0  0  0  0  0
    0.1334   -5.8759    1.4755 H   0  0  0  0  0  0  0  0  0  0  0  0
    2.7847   -6.2544   -0.0880 H   0  0  0  0  0  0  0  0  0  0  0  0
    1.6761   -4.9784   -0.2108 H   0  0  0  0  0  0  0  0  0  0  0  0
    2.2479   -4.2059    2.0528 H   0  0  0  0  0  0  0  0  0  0  0  0
    4.3493   -4.4773    3.1843 H   0  0  0  0  0  0  0  0  0  0  0  0
    6.0665   -6.2818    2.5929 H   0  0  0  0  0  0  0  0  0  0  0  0
    4.8281   -7.4482    1.1885 H   0  0  0  0  0  0  0  0  0  0  0  0
    6.4660   -3.9369    2.2057 H   0  0  0  0  0  0  0  0  0  0  0  0
    7.0226   -4.8019    0.7907 H   0  0  0  0  0  0  0  0  0  0  0  0
    6.5075   -2.4809   -0.7562 H   0  0  0  0  0  0  0  0  0  0  0  0
    3.2967   -1.0675   -2.0249 H   0  0  0  0  0  0  0  0  0  0  0  0
    2.2105   -2.7058   -0.5701 H   0  0  0  0  0  0  0  0  0  0  0  0
    3.3764   -3.8390   -1.3453 H   0  0  0  0  0  0  0  0  0  0  0  0
    2.5036   -1.9533    1.7785 H   0  0  0  0  0  0  0  0  0  0  0  0
    4.1692   -2.0316    2.3886 H   0  0  0  0  0  0  0  0  0  0  0  0
    4.3494   -5.1375    5.4088 H   0  0  0  0  0  0  0  0  0  0  0  0
    5.5758   -6.2554    4.8099 H   0  0  0  0  0  0  0  0  0  0  0  0
    4.2834   -6.8384    5.8341 H   0  0  0  0  0  0  0  0  0  0  0  0
    2.0564   -4.2788    4.1410 H   0  0  0  0  0  0  0  0  0  0  0  0
    0.7246   -4.9743    4.9695 H   0  0  0  0  0  0  0  0  0  0  0  0
    0.6832   -4.9766    3.2616 H   0  0  0  0  0  0  0  0  0  0  0  0
    2.2671   -7.7575    5.8478 H   0  0  0  0  0  0  0  0  0  0  0  0
    1.0141   -6.6062    6.0104 H   0  0  0  0  0  0  0  0  0  0  0  0
   -1.0686   -8.1616    1.9646 H   0  0  0  0  0  0  0  0  0  0  0  0
   -0.0910   -9.4505    2.6279 H   0  0  0  0  0  0  0  0  0  0  0  0
  1  2  1  0
  1 30  1  0
  1 31  1  0
  1 32  1  0
  2  3  1  0
  3 21  1  0
  3  4  1  0
  3 33  1  1
  4 23  1  0
  4  5  1  0
  4 34  1  6
  5 29  1  0
  5  6  1  0
  5 35  1  6
  6  7  1  0
  6 36  1  0
  6 37  1  0
  7  8  1  0
  7 38  1  0
  7 39  1  0
  8 18  1  0
  8  9  1  0
  8 40  1  1
  9 10  1  0
  9 21  1  0
  9 41  1  1
 10 11  1  0
 10 12  1  0
 10 42  1  1
 11 43  1  0
 12 13  1  0
 12 44  1  0
 12 45  1  0
 13 18  1  0
 13 14  2  0
 14 15  1  0
 14 46  1  0
 15 20  1  0
 15 16  1  6
 15 17  1  0
 16 47  1  0
 17 18  1  0
 17 48  1  0
 17 49  1  0
 18 19  1  1
 19 20  1  0
 19 50  1  0
 19 51  1  0
 21 22  1  1
 21 23  1  0
 22 52  1  0
 22 53  1  0
 22 54  1  0
 23 24  1  6
 23 25  1  0
 24 55  1  0
 24 56  1  0
 24 57  1  0
 25 26  1  0
 25 58  1  0
 25 59  1  0
 26 27  1  0
 27 28  2  0
 27 29  1  0
 29 60  1  0
 29 61  1  0
M  END
>  <i_m_ct_stereo_status>  (297) 
1

>  <s_m_source_file>  (297) 
/var/tmp/pbs.5076255.sched01/tmpp4327t_d/123x5hmlc3y.sdf

>  <i_m_source_file_index>  (297) 
1

>  <i_lp_mmshare_version>  (297) 
48012

>  <i_f3d_flags>  (297) 
0

>  <s_epik_input>  (297) 
W0NIMl0xT0MoPU8pW0NIMl1bQ0BASF0oW0NIMl1bQ0gyXTIpW0NASF0oW0NASF0zT1tDSDNdKVtDQF0xKFtDSDNdKVtDQF0zKFtDSDNdKVtDQEhdKFtDQEhdMltDQEBdNDU2KVtDQEBIXShbT0hdKVtDSDJdQzQ9W0NIXVtDQEBdKFtPSF0pKFtDSDJdNSlPW0NIMl02

>  <s_epik_cmdline>  (297) 
J2VwaWtfcHl0aG9uJywgJy1waHQnLCAnMi4wJywgJy1waCcsICc3LjAnLCAnLXRuJywgJzgnLCAnLW1hJywgJzIwMCcsICctaW1hZScsICc8aW5maWxlLm1hZT4nLCAnLW9tYWUnLCAnPG91dGZpbGUubWFlPic=

>  <r_lp_tautomer_probability>  (297) 
1

>  <r_epik_Ionization_Penalty>  (297) 
1.85571e-07

>  <r_epik_Ionization_Penalty_Charging>  (297) 
0

>  <r_epik_Ionization_Penalty_Neutral>  (297) 
1.85571e-07

>  <r_epik_State_Penalty>  (297) 
-0

>  <r_epik_Charging_Adjusted_Penalty>  (297) 
0

>  <i_epik_Tot_Q>  (297) 
0

>  <i_epik_Tot_abs_Q>  (297) 
0

>  <s_epik_Chemistry_Notes>  (297) 
This compound has an ester and may undergo hydrolysis at high or low pH.

>  <s_lp_Force_Field>  (297) 
OPLS3e

>  <r_lp_Energy>  (297) 
165.163

>  <b_lp_Chiralities_Consistent>  (297) 
1

>  <s_lp_Variant>  (297) 
87:0-1

>  <s_i_glide_gridfile>  (297) 
pfpi4k_grid

>  <i_i_glide_lignum>  (297) 
1

>  <i_i_glide_rotatable_bonds>  (297) 
3

>  <r_i_docking_score>  (297) 
-2.96276

>  <r_i_glide_ligand_efficiency>  (297) 
-0.102164

>  <r_i_glide_ligand_efficiency_sa>  (297) 
-0.31388

>  <r_i_glide_ligand_efficiency_ln>  (297) 
-0.678396

>  <r_i_glide_gscore>  (297) 
-2.96276

>  <r_i_glide_lipo>  (297) 
-0.166654

>  <r_i_glide_hbond>  (297) 
0

>  <r_i_glide_metal>  (297) 
-0

>  <r_i_glide_rewards>  (297) 
-1.15116

>  <r_i_glide_evdw>  (297) 
-25.1085

>  <r_i_glide_ecoul>  (297) 
-2.07601

>  <r_i_glide_erotb>  (297) 
0

>  <r_i_glide_esite>  (297) 
-0.0781154

>  <r_i_glide_emodel>  (297) 
-37.1256

>  <r_i_glide_energy>  (297) 
-27.1845

>  <r_i_glide_einternal>  (297) 
0.475127

>  <r_i_glide_intrahb_reward>  (297) 
-0.5

>  <i_i_glide_confnum>  (297) 
2

>  <i_i_glide_posenum>  (297) 
6

>  <r_i_glide_eff_state_penalty>  (297) 
0

>  <ligand_id>  (297) 
87

>  <original_smiles>  (297) 
COC1C2C3CCC4C(C(O)CC5=CC6(O)CC54CO6)C1(C)C2(C)COC(=O)C3

>  <smiles>  (297) 
[H]OC12OC([H])([H])C3(C(=C1[H])C([H])([H])C([H])(O[H])C1([H])C3([H])C([H])([H])C([H])([H])C3([H])C([H])([H])C(=O)OC([H])([H])C4(C([H])([H])[H])C3([H])C([H])(OC([H])([H])[H])C14C([H])([H])[H])C2([H])[H]

$$$$
87:0:1
     RDKit          3D

 61 66  0  0  1  0  0  0  0  0999 V2000
    1.9442    0.2438    1.9547 C   0  0  0  0  0  0  0  0  0  0  0  0
    2.6947   -0.9647    2.0322 O   0  0  0  0  0  0  0  0  0  0  0  0
    3.6096   -1.1245    0.9488 C   0  0  2  0  0  0  0  0  0  0  0  0
    3.5632   -2.4305    0.1856 C   0  0  1  0  0  0  0  0  0  0  0  0
    2.6429   -3.2395   -0.6770 C   0  0  2  0  0  0  0  0  0  0  0  0
    3.0357   -4.7122   -0.3022 C   0  0  0  0  0  0  0  0  0  0  0  0
    3.4276   -5.0826    1.2015 C   0  0  0  0  0  0  0  0  0  0  0  0
    4.7963   -4.5832    1.8931 C   0  0  1  0  0  0  0  0  0  0  0  0
    5.0681   -3.0442    2.3759 C   0  0  2  0  0  0  0  0  0  0  0  0
    4.3485   -2.7766    3.7325 C   0  0  1  0  0  0  0  0  0  0  0  0
    2.9721   -3.0871    3.6681 O   0  0  0  0  0  0  0  0  0  0  0  0
    4.9674   -3.6103    4.8581 C   0  0  0  0  0  0  0  0  0  0  0  0
    5.0715   -5.0720    4.4725 C   0  0  0  0  0  0  0  0  0  0  0  0
    5.1911   -6.1357    5.2682 C   0  0  0  0  0  0  0  0  0  0  0  0
    5.5230   -7.2950    4.3565 C   0  0  1  0  0  0  0  0  0  0  0  0
    5.2299   -8.5685    4.8824 O   0  0  0  0  0  0  0  0  0  0  0  0
    4.7078   -6.9517    3.1260 C   0  0  0  0  0  0  0  0  0  0  0  0
    5.2886   -5.5415    3.0409 C   0  0  1  0  0  0  0  0  0  0  0  0
    6.7757   -5.9964    2.9688 C   0  0  0  0  0  0  0  0  0  0  0  0
    6.8262   -7.1267    3.8773 O   0  0  0  0  0  0  0  0  0  0  0  0
    5.0133   -1.7628    1.3656 C   0  0  2  0  0  0  0  0  0  0  0  0
    6.0459   -0.7356    1.8283 C   0  0  0  0  0  0  0  0  0  0  0  0
    5.0835   -2.1594   -0.1420 C   0  0  1  0  0  0  0  0  0  0  0  0
    6.1265   -3.2367   -0.5326 C   0  0  0  0  0  0  0  0  0  0  0  0
    5.2689   -1.0861   -1.2668 C   0  0  0  0  0  0  0  0  0  0  0  0
    4.1953   -1.1557   -2.1935 O   0  0  0  0  0  0  0  0  0  0  0  0
    3.9018   -2.3262   -2.7696 C   0  0  0  0  0  0  0  0  0  0  0  0
    4.5861   -2.8906   -3.6237 O   0  0  0  0  0  0  0  0  0  0  0  0
    2.6175   -2.9235   -2.2042 C   0  0  0  0  0  0  0  0  0  0  0  0
    1.2387    0.3133    2.7868 H   0  0  0  0  0  0  0  0  0  0  0  0
    1.3722    0.2961    1.0240 H   0  0  0  0  0  0  0  0  0  0  0  0
    2.6033    1.1168    2.0014 H   0  0  0  0  0  0  0  0  0  0  0  0
    3.6652   -0.2157    0.3493 H   0  0  0  0  0  0  0  0  0  0  0  0
    3.1644   -2.8500    1.0954 H   0  0  0  0  0  0  0  0  0  0  0  0
    1.6304   -3.0625   -0.3234 H   0  0  0  0  0  0  0  0  0  0  0  0
    2.1862   -5.3333   -0.5837 H   0  0  0  0  0  0  0  0  0  0  0  0
    3.8357   -5.0451   -0.9527 H   0  0  0  0  0  0  0  0  0  0  0  0
    2.5787   -4.8835    1.8546 H   0  0  0  0  0  0  0  0  0  0  0  0
    3.4608   -6.1652    1.1439 H   0  0  0  0  0  0  0  0  0  0  0  0
    5.5150   -4.8515    1.1402 H   0  0  0  0  0  0  0  0  0  0  0  0
    6.1210   -3.0862    2.6440 H   0  0  0  0  0  0  0  0  0  0  0  0
    4.4259   -1.7246    4.0029 H   0  0  0  0  0  0  0  0  0  0  0  0
    2.5846   -2.4980    3.0262 H   0  0  0  0  0  0  0  0  0  0  0  0
    5.9801   -3.2482    5.0367 H   0  0  0  0  0  0  0  0  0  0  0  0
    4.4277   -3.4950    5.7984 H   0  0  0  0  0  0  0  0  0  0  0  0
    5.1753   -6.1733    6.3500 H   0  0  0  0  0  0  0  0  0  0  0  0
    5.7861   -8.7155    5.6328 H   0  0  0  0  0  0  0  0  0  0  0  0
    4.9593   -7.6000    2.2832 H   0  0  0  0  0  0  0  0  0  0  0  0
    3.6397   -6.9855    3.3456 H   0  0  0  0  0  0  0  0  0  0  0  0
    7.0633   -6.3184    1.9659 H   0  0  0  0  0  0  0  0  0  0  0  0
    7.4663   -5.2166    3.2809 H   0  0  0  0  0  0  0  0  0  0  0  0
    7.0549   -1.1344    1.7719 H   0  0  0  0  0  0  0  0  0  0  0  0
    5.8696   -0.3946    2.8489 H   0  0  0  0  0  0  0  0  0  0  0  0
    6.0211    0.1444    1.1881 H   0  0  0  0  0  0  0  0  0  0  0  0
    6.8178   -3.4444    0.2843 H   0  0  0  0  0  0  0  0  0  0  0  0
    6.7758   -2.9687   -1.3660 H   0  0  0  0  0  0  0  0  0  0  0  0
    5.6741   -4.1627   -0.8628 H   0  0  0  0  0  0  0  0  0  0  0  0
    5.2740   -0.0862   -0.8556 H   0  0  0  0  0  0  0  0  0  0  0  0
    6.2134   -1.1501   -1.8060 H   0  0  0  0  0  0  0  0  0  0  0  0
    2.3498   -3.8141   -2.7763 H   0  0  0  0  0  0  0  0  0  0  0  0
    1.8303   -2.1953   -2.3923 H   0  0  0  0  0  0  0  0  0  0  0  0
  1  2  1  0
  1 30  1  0
  1 31  1  0
  1 32  1  0
  2  3  1  0
  3 21  1  0
  3  4  1  0
  3 33  1  6
  4 23  1  0
  4  5  1  0
  4 34  1  1
  5 29  1  0
  5  6  1  0
  5 35  1  1
  6  7  1  0
  6 36  1  0
  6 37  1  0
  7  8  1  0
  7 38  1  0
  7 39  1  0
  8 18  1  0
  8  9  1  0
  8 40  1  6
  9 10  1  0
  9 21  1  0
  9 41  1  1
 10 11  1  0
 10 12  1  0
 10 42  1  1
 11 43  1  0
 12 13  1  0
 12 44  1  0
 12 45  1  0
 13 18  1  0
 13 14  2  0
 14 15  1  0
 14 46  1  0
 15 20  1  0
 15 16  1  1
 15 17  1  0
 16 47  1  0
 17 18  1  0
 17 48  1  0
 17 49  1  0
 18 19  1  6
 19 20  1  0
 19 50  1  0
 19 51  1  0
 21 22  1  1
 21 23  1  0
 22 52  1  0
 22 53  1  0
 22 54  1  0
 23 24  1  1
 23 25  1  0
 24 55  1  0
 24 56  1  0
 24 57  1  0
 25 26  1  0
 25 58  1  0
 25 59  1  0
 26 27  1  0
 27 28  2  0
 27 29  1  0
 29 60  1  0
 29 61  1  0
M  END
>  <i_m_ct_stereo_status>  (298) 
1

>  <s_m_source_file>  (298) 
/var/tmp/pbs.5076255.sched01/tmpp4327t_d/123x5hmlc3y.sdf

>  <i_m_source_file_index>  (298) 
1

>  <i_lp_mmshare_version>  (298) 
48012

>  <i_f3d_flags>  (298) 
0

>  <s_epik_input>  (298) 
W0NIMl0xT0MoPU8pW0NIMl1bQ0BASF0oW0NIMl1bQ0gyXTIpW0NASF0oW0NASF0zT1tDSDNdKVtDQF0xKFtDSDNdKVtDQF0zKFtDSDNdKVtDQEhdKFtDQEhdMltDQEBdNDU2KVtDQEBIXShbT0hdKVtDSDJdQzQ9W0NIXVtDQEBdKFtPSF0pKFtDSDJdNSlPW0NIMl02

>  <s_epik_cmdline>  (298) 
J2VwaWtfcHl0aG9uJywgJy1waHQnLCAnMi4wJywgJy1waCcsICc3LjAnLCAnLXRuJywgJzgnLCAnLW1hJywgJzIwMCcsICctaW1hZScsICc8aW5maWxlLm1hZT4nLCAnLW9tYWUnLCAnPG91dGZpbGUubWFlPic=

>  <r_lp_tautomer_probability>  (298) 
1

>  <r_epik_Ionization_Penalty>  (298) 
1.85571e-07

>  <r_epik_Ionization_Penalty_Charging>  (298) 
0

>  <r_epik_Ionization_Penalty_Neutral>  (298) 
1.85571e-07

>  <r_epik_State_Penalty>  (298) 
-0

>  <r_epik_Charging_Adjusted_Penalty>  (298) 
0

>  <i_epik_Tot_Q>  (298) 
0

>  <i_epik_Tot_abs_Q>  (298) 
0

>  <s_epik_Chemistry_Notes>  (298) 
This compound has an ester and may undergo hydrolysis at high or low pH.

>  <s_lp_Force_Field>  (298) 
OPLS3e

>  <r_lp_Energy>  (298) 
165.163

>  <b_lp_Chiralities_Consistent>  (298) 
1

>  <s_lp_Variant>  (298) 
87:0-1

>  <s_i_glide_gridfile>  (298) 
pfpi4k_grid

>  <i_i_glide_lignum>  (298) 
1

>  <i_i_glide_rotatable_bonds>  (298) 
3

>  <r_i_docking_score>  (298) 
-2.84259

>  <r_i_glide_ligand_efficiency>  (298) 
-0.0980205

>  <r_i_glide_ligand_efficiency_sa>  (298) 
-0.30115

>  <r_i_glide_ligand_efficiency_ln>  (298) 
-0.650882

>  <r_i_glide_gscore>  (298) 
-2.84259

>  <r_i_glide_lipo>  (298) 
-0.304026

>  <r_i_glide_hbond>  (298) 
0

>  <r_i_glide_metal>  (298) 
-0

>  <r_i_glide_rewards>  (298) 
-1.26181

>  <r_i_glide_evdw>  (298) 
-21.7241

>  <r_i_glide_ecoul>  (298) 
-1.27031

>  <r_i_glide_erotb>  (298) 
0

>  <r_i_glide_esite>  (298) 
0

>  <r_i_glide_emodel>  (298) 
-31.5231

>  <r_i_glide_energy>  (298) 
-22.9944

>  <r_i_glide_einternal>  (298) 
2.86152

>  <r_i_glide_intrahb_reward>  (298) 
-0.5

>  <i_i_glide_confnum>  (298) 
2

>  <i_i_glide_posenum>  (298) 
32

>  <r_i_glide_eff_state_penalty>  (298) 
0

>  <ligand_id>  (298) 
87

>  <original_smiles>  (298) 
COC1C2C3CCC4C(C(O)CC5=CC6(O)CC54CO6)C1(C)C2(C)COC(=O)C3

>  <smiles>  (298) 
[H]OC12OC([H])([H])C3(C(=C1[H])C([H])([H])C([H])(O[H])C1([H])C3([H])C([H])([H])C([H])([H])C3([H])C([H])([H])C(=O)OC([H])([H])C4(C([H])([H])[H])C3([H])C([H])(OC([H])([H])[H])C14C([H])([H])[H])C2([H])[H]

$$$$
87:0:2
     RDKit          3D

 61 66  0  0  1  0  0  0  0  0999 V2000
    4.0841   -9.8390    1.9482 C   0  0  0  0  0  0  0  0  0  0  0  0
    4.3987   -8.5312    2.4039 O   0  0  0  0  0  0  0  0  0  0  0  0
    3.4130   -7.9802    3.2647 C   0  0  2  0  0  0  0  0  0  0  0  0
    2.1629   -7.3884    2.6449 C   0  0  1  0  0  0  0  0  0  0  0  0
    0.9741   -7.7956    1.8232 C   0  0  2  0  0  0  0  0  0  0  0  0
    0.6914   -6.5149    0.9574 C   0  0  0  0  0  0  0  0  0  0  0  0
    1.9238   -5.6383    0.4234 C   0  0  0  0  0  0  0  0  0  0  0  0
    2.8730   -4.7531    1.3837 C   0  0  1  0  0  0  0  0  0  0  0  0
    3.9909   -5.3816    2.3988 C   0  0  2  0  0  0  0  0  0  0  0  0
    5.2760   -5.7769    1.6014 C   0  0  1  0  0  0  0  0  0  0  0  0
    5.0114   -6.6135    0.4902 O   0  0  0  0  0  0  0  0  0  0  0  0
    5.9801   -4.5339    1.0487 C   0  0  0  0  0  0  0  0  0  0  0  0
    5.0151   -3.6589    0.2767 C   0  0  0  0  0  0  0  0  0  0  0  0
    5.2785   -2.7355   -0.6518 C   0  0  0  0  0  0  0  0  0  0  0  0
    3.9816   -1.9823   -0.8522 C   0  0  1  0  0  0  0  0  0  0  0  0
    3.8588   -1.2832   -2.0664 O   0  0  0  0  0  0  0  0  0  0  0  0
    2.9713   -3.1011   -0.7002 C   0  0  0  0  0  0  0  0  0  0  0  0
    3.5438   -3.5366    0.6419 C   0  0  1  0  0  0  0  0  0  0  0  0
    3.4000   -2.1534    1.3392 C   0  0  0  0  0  0  0  0  0  0  0  0
    3.7438   -1.2152    0.2930 O   0  0  0  0  0  0  0  0  0  0  0  0
    3.6258   -6.4301    3.5987 C   0  0  2  0  0  0  0  0  0  0  0  0
    4.5621   -6.1583    4.7826 C   0  0  0  0  0  0  0  0  0  0  0  0
    2.1033   -6.4826    3.9406 C   0  0  1  0  0  0  0  0  0  0  0  0
    1.3631   -5.1267    4.0386 C   0  0  0  0  0  0  0  0  0  0  0  0
    1.5678   -7.2577    5.1977 C   0  0  0  0  0  0  0  0  0  0  0  0
    0.6209   -8.2368    4.7815 O   0  0  0  0  0  0  0  0  0  0  0  0
   -0.4175   -7.8748    4.0174 C   0  0  0  0  0  0  0  0  0  0  0  0
   -1.3589   -7.1596    4.3715 O   0  0  0  0  0  0  0  0  0  0  0  0
   -0.2598   -8.3707    2.5846 C   0  0  0  0  0  0  0  0  0  0  0  0
    4.8818  -10.1989    1.2942 H   0  0  0  0  0  0  0  0  0  0  0  0
    3.1539   -9.8588    1.3770 H   0  0  0  0  0  0  0  0  0  0  0  0
    3.9946  -10.5321    2.7866 H   0  0  0  0  0  0  0  0  0  0  0  0
    3.2711   -8.6426    4.1192 H   0  0  0  0  0  0  0  0  0  0  0  0
    2.7779   -7.2272    1.7714 H   0  0  0  0  0  0  0  0  0  0  0  0
    1.3011   -8.5820    1.1456 H   0  0  0  0  0  0  0  0  0  0  0  0
    0.1258   -6.8571    0.0884 H   0  0  0  0  0  0  0  0  0  0  0  0
   -0.0083   -5.8807    1.4894 H   0  0  0  0  0  0  0  0  0  0  0  0
    2.5499   -6.2477   -0.2259 H   0  0  0  0  0  0  0  0  0  0  0  0
    1.4351   -4.9804   -0.2837 H   0  0  0  0  0  0  0  0  0  0  0  0
    2.1406   -4.2140    1.9531 H   0  0  0  0  0  0  0  0  0  0  0  0
    4.2963   -4.4942    2.9550 H   0  0  0  0  0  0  0  0  0  0  0  0
    5.9720   -6.2983    2.2573 H   0  0  0  0  0  0  0  0  0  0  0  0
    4.4436   -6.1510   -0.1094 H   0  0  0  0  0  0  0  0  0  0  0  0
    6.3588   -3.9419    1.8839 H   0  0  0  0  0  0  0  0  0  0  0  0
    6.8388   -4.7920    0.4297 H   0  0  0  0  0  0  0  0  0  0  0  0
    6.2345   -2.4741   -1.0848 H   0  0  0  0  0  0  0  0  0  0  0  0
    2.9475   -1.0402   -2.1447 H   0  0  0  0  0  0  0  0  0  0  0  0
    1.9530   -2.7243   -0.6487 H   0  0  0  0  0  0  0  0  0  0  0  0
    3.0819   -3.8362   -1.5038 H   0  0  0  0  0  0  0  0  0  0  0  0
    2.3772   -1.9578    1.6691 H   0  0  0  0  0  0  0  0  0  0  0  0
    4.0705   -2.0393    2.1938 H   0  0  0  0  0  0  0  0  0  0  0  0
    4.4174   -5.1556    5.1832 H   0  0  0  0  0  0  0  0  0  0  0  0
    5.6131   -6.2662    4.5094 H   0  0  0  0  0  0  0  0  0  0  0  0
    4.3819   -6.8591    5.6005 H   0  0  0  0  0  0  0  0  0  0  0  0
    2.0617   -4.2918    4.0480 H   0  0  0  0  0  0  0  0  0  0  0  0
    0.7771   -4.9887    4.9459 H   0  0  0  0  0  0  0  0  0  0  0  0
    0.6408   -4.9853    3.2435 H   0  0  0  0  0  0  0  0  0  0  0  0
    2.3634   -7.7750    5.7299 H   0  0  0  0  0  0  0  0  0  0  0  0
    1.1216   -6.6243    5.9639 H   0  0  0  0  0  0  0  0  0  0  0  0
   -1.1800   -8.1645    2.0348 H   0  0  0  0  0  0  0  0  0  0  0  0
   -0.1698   -9.4560    2.6370 H   0  0  0  0  0  0  0  0  0  0  0  0
  1  2  1  0
  1 30  1  0
  1 31  1  0
  1 32  1  0
  2  3  1  0
  3 21  1  0
  3  4  1  0
  3 33  1  1
  4 23  1  0
  4  5  1  0
  4 34  1  6
  5 29  1  0
  5  6  1  0
  5 35  1  6
  6  7  1  0
  6 36  1  0
  6 37  1  0
  7  8  1  0
  7 38  1  0
  7 39  1  0
  8 18  1  0
  8  9  1  0
  8 40  1  1
  9 10  1  0
  9 21  1  0
  9 41  1  1
 10 11  1  0
 10 12  1  0
 10 42  1  1
 11 43  1  0
 12 13  1  0
 12 44  1  0
 12 45  1  0
 13 18  1  0
 13 14  2  0
 14 15  1  0
 14 46  1  0
 15 20  1  0
 15 16  1  6
 15 17  1  0
 16 47  1  0
 17 18  1  0
 17 48  1  0
 17 49  1  0
 18 19  1  1
 19 20  1  0
 19 50  1  0
 19 51  1  0
 21 22  1  1
 21 23  1  0
 22 52  1  0
 22 53  1  0
 22 54  1  0
 23 24  1  6
 23 25  1  0
 24 55  1  0
 24 56  1  0
 24 57  1  0
 25 26  1  0
 25 58  1  0
 25 59  1  0
 26 27  1  0
 27 28  2  0
 27 29  1  0
 29 60  1  0
 29 61  1  0
M  END
>  <i_m_ct_stereo_status>  (299) 
1

>  <s_m_source_file>  (299) 
/var/tmp/pbs.5076255.sched01/tmpp4327t_d/123x5hmlc3y.sdf

>  <i_m_source_file_index>  (299) 
1

>  <i_lp_mmshare_version>  (299) 
48012

>  <i_f3d_flags>  (299) 
0

>  <s_epik_input>  (299) 
W0NIMl0xT0MoPU8pW0NIMl1bQ0BASF0oW0NIMl1bQ0gyXTIpW0NASF0oW0NASF0zT1tDSDNdKVtDQF0xKFtDSDNdKVtDQF0zKFtDSDNdKVtDQEhdKFtDQEhdMltDQEBdNDU2KVtDQEBIXShbT0hdKVtDSDJdQzQ9W0NIXVtDQEBdKFtPSF0pKFtDSDJdNSlPW0NIMl02

>  <s_epik_cmdline>  (299) 
J2VwaWtfcHl0aG9uJywgJy1waHQnLCAnMi4wJywgJy1waCcsICc3LjAnLCAnLXRuJywgJzgnLCAnLW1hJywgJzIwMCcsICctaW1hZScsICc8aW5maWxlLm1hZT4nLCAnLW9tYWUnLCAnPG91dGZpbGUubWFlPic=

>  <r_lp_tautomer_probability>  (299) 
1

>  <r_epik_Ionization_Penalty>  (299) 
1.85571e-07

>  <r_epik_Ionization_Penalty_Charging>  (299) 
0

>  <r_epik_Ionization_Penalty_Neutral>  (299) 
1.85571e-07

>  <r_epik_State_Penalty>  (299) 
-0

>  <r_epik_Charging_Adjusted_Penalty>  (299) 
0

>  <i_epik_Tot_Q>  (299) 
0

>  <i_epik_Tot_abs_Q>  (299) 
0

>  <s_epik_Chemistry_Notes>  (299) 
This compound has an ester and may undergo hydrolysis at high or low pH.

>  <s_lp_Force_Field>  (299) 
OPLS3e

>  <r_lp_Energy>  (299) 
165.163

>  <b_lp_Chiralities_Consistent>  (299) 
1

>  <s_lp_Variant>  (299) 
87:0-1

>  <s_i_glide_gridfile>  (299) 
pfpi4k_grid

>  <i_i_glide_lignum>  (299) 
1

>  <i_i_glide_rotatable_bonds>  (299) 
3

>  <r_i_docking_score>  (299) 
-2.69637

>  <r_i_glide_ligand_efficiency>  (299) 
-0.0929781

>  <r_i_glide_ligand_efficiency_sa>  (299) 
-0.285658

>  <r_i_glide_ligand_efficiency_ln>  (299) 
-0.617399

>  <r_i_glide_gscore>  (299) 
-2.69637

>  <r_i_glide_lipo>  (299) 
-0.17476

>  <r_i_glide_hbond>  (299) 
0

>  <r_i_glide_metal>  (299) 
-0

>  <r_i_glide_rewards>  (299) 
-0.65116

>  <r_i_glide_evdw>  (299) 
-24.889

>  <r_i_glide_ecoul>  (299) 
-3.57066

>  <r_i_glide_erotb>  (299) 
0

>  <r_i_glide_esite>  (299) 
-0.090399

>  <r_i_glide_emodel>  (299) 
-33.0773

>  <r_i_glide_energy>  (299) 
-28.4596

>  <r_i_glide_einternal>  (299) 
0.177458

>  <r_i_glide_intrahb_reward>  (299) 
-0

>  <i_i_glide_confnum>  (299) 
1

>  <i_i_glide_posenum>  (299) 
22

>  <r_i_glide_eff_state_penalty>  (299) 
0

>  <ligand_id>  (299) 
87

>  <original_smiles>  (299) 
COC1C2C3CCC4C(C(O)CC5=CC6(O)CC54CO6)C1(C)C2(C)COC(=O)C3

>  <smiles>  (299) 
[H]OC12OC([H])([H])C3(C(=C1[H])C([H])([H])C([H])(O[H])C1([H])C3([H])C([H])([H])C([H])([H])C3([H])C([H])([H])C(=O)OC([H])([H])C4(C([H])([H])[H])C3([H])C([H])(OC([H])([H])[H])C14C([H])([H])[H])C2([H])[H]

$$$$
88:0:0
     RDKit          3D

 14 15  0  0  1  0  0  0  0  0999 V2000
    3.2871    0.0443   -4.7493 C   0  0  0  0  0  0  0  0  0  0  0  0
    3.4944   -0.9552   -3.6310 C   0  0  0  0  0  0  0  0  0  0  0  0
    2.7224   -2.0658   -3.6654 N   0  0  0  0  0  0  0  0  0  0  0  0
    2.8699   -2.9605   -2.6650 C   0  0  0  0  0  0  0  0  0  0  0  0
    3.8243   -2.7145   -1.6912 N   0  0  0  0  0  0  0  0  0  0  0  0
    4.1592   -3.4770   -0.6321 N   0  0  0  0  0  0  0  0  0  0  0  0
    5.1172   -2.8010   -0.0622 N   0  0  0  0  0  0  0  0  0  0  0  0
    5.4259   -1.6083   -0.7185 N   0  0  0  0  0  0  0  0  0  0  0  0
    4.5919   -1.5533   -1.7505 C   0  0  0  0  0  0  0  0  0  0  0  0
    4.4452   -0.6249   -2.7280 N   0  0  0  0  0  0  0  0  0  0  0  0
    2.5005   -0.2576   -5.4414 H   0  0  0  0  0  0  0  0  0  0  0  0
    4.2104    0.1763   -5.3099 H   0  0  0  0  0  0  0  0  0  0  0  0
    3.0123    1.0117   -4.3349 H   0  0  0  0  0  0  0  0  0  0  0  0
    2.2681   -3.8556   -2.6196 H   0  0  0  0  0  0  0  0  0  0  0  0
  1  2  1  0
  1 11  1  0
  1 12  1  0
  1 13  1  0
  2 10  2  0
  2  3  1  0
  3  4  2  0
  4  5  1  0
  4 14  1  0
  5  9  1  0
  5  6  1  0
  6  7  2  0
  7  8  1  0
  8  9  2  0
  9 10  1  0
M  END
>  <i_m_ct_stereo_status>  (300) 
1

>  <s_m_source_file>  (300) 
/var/tmp/pbs.5076255.sched01/tmpp4327t_d/123x5hmlc3y.sdf

>  <i_m_source_file_index>  (300) 
2

>  <i_lp_mmshare_version>  (300) 
48012

>  <i_f3d_flags>  (300) 
0

>  <s_epik_input>  (300) 
W2NIXTFuYyhbQ0gzXSluYyhuMTIpbm5uMg==

>  <s_epik_cmdline>  (300) 
J2VwaWtfcHl0aG9uJywgJy1waHQnLCAnMi4wJywgJy1waCcsICc3LjAnLCAnLXRuJywgJzgnLCAnLW1hJywgJzIwMCcsICctaW1hZScsICc8aW5maWxlLm1hZT4nLCAnLW9tYWUnLCAnPG91dGZpbGUubWFlPic=

>  <r_lp_tautomer_probability>  (300) 
1

>  <r_epik_Ionization_Penalty>  (300) 
1.02133e-10

>  <r_epik_Ionization_Penalty_Charging>  (300) 
0

>  <r_epik_Ionization_Penalty_Neutral>  (300) 
1.02133e-10

>  <r_epik_State_Penalty>  (300) 
-0

>  <r_epik_Charging_Adjusted_Penalty>  (300) 
0

>  <i_epik_Tot_Q>  (300) 
0

>  <i_epik_Tot_abs_Q>  (300) 
0

>  <s_lp_Force_Field>  (300) 
OPLS3e

>  <r_lp_Energy>  (300) 
10.755

>  <b_lp_Chiralities_Consistent>  (300) 
1

>  <s_lp_Variant>  (300) 
88:0-1

>  <s_i_glide_gridfile>  (300) 
pfpi4k_grid

>  <i_i_glide_lignum>  (300) 
2

>  <i_i_glide_rotatable_bonds>  (300) 
0

>  <r_i_docking_score>  (300) 
-4.13192

>  <r_i_glide_ligand_efficiency>  (300) 
-0.413192

>  <r_i_glide_ligand_efficiency_sa>  (300) 
-0.890196

>  <r_i_glide_ligand_efficiency_ln>  (300) 
-1.25112

>  <r_i_glide_gscore>  (300) 
-4.13192

>  <r_i_glide_lipo>  (300) 
-0.157345

>  <r_i_glide_hbond>  (300) 
0

>  <r_i_glide_metal>  (300) 
-0

>  <r_i_glide_rewards>  (300) 
-2.5814

>  <r_i_glide_evdw>  (300) 
-19.4135

>  <r_i_glide_ecoul>  (300) 
-1.98797

>  <r_i_glide_erotb>  (300) 
0

>  <r_i_glide_esite>  (300) 
-0.12431

>  <r_i_glide_emodel>  (300) 
-27.7329

>  <r_i_glide_energy>  (300) 
-21.4014

>  <r_i_glide_einternal>  (300) 
0

>  <r_i_glide_intrahb_reward>  (300) 
-0

>  <i_i_glide_confnum>  (300) 
2

>  <i_i_glide_posenum>  (300) 
2

>  <r_i_glide_eff_state_penalty>  (300) 
0

>  <ligand_id>  (300) 
88

>  <original_smiles>  (300) 
Cc1ncn2nnnc2n1

>  <smiles>  (300) 
[H]c1nc(C([H])([H])[H])nc2nnnn12

$$$$
88:0:1
     RDKit          3D

 14 15  0  0  1  0  0  0  0  0999 V2000
    3.5263   -9.6485    1.7586 C   0  0  0  0  0  0  0  0  0  0  0  0
    2.1161   -9.3991    2.2460 C   0  0  0  0  0  0  0  0  0  0  0  0
    1.5714  -10.3761    3.0076 N   0  0  0  0  0  0  0  0  0  0  0  0
    0.3120  -10.1918    3.4534 C   0  0  0  0  0  0  0  0  0  0  0  0
   -0.3491   -9.0234    3.1065 N   0  0  0  0  0  0  0  0  0  0  0  0
   -1.5939   -8.6364    3.4393 N   0  0  0  0  0  0  0  0  0  0  0  0
   -1.7082   -7.4675    2.8822 N   0  0  0  0  0  0  0  0  0  0  0  0
   -0.5725   -7.0685    2.1781 N   0  0  0  0  0  0  0  0  0  0  0  0
    0.2943   -8.0655    2.3244 C   0  0  0  0  0  0  0  0  0  0  0  0
    1.5647   -8.2220    1.8675 N   0  0  0  0  0  0  0  0  0  0  0  0
    3.9158  -10.6113    2.1000 H   0  0  0  0  0  0  0  0  0  0  0  0
    4.1890   -8.8615    2.1184 H   0  0  0  0  0  0  0  0  0  0  0  0
    3.5507   -9.6425    0.6688 H   0  0  0  0  0  0  0  0  0  0  0  0
   -0.1809  -10.9266    4.0778 H   0  0  0  0  0  0  0  0  0  0  0  0
  1  2  1  0
  1 11  1  0
  1 12  1  0
  1 13  1  0
  2 10  2  0
  2  3  1  0
  3  4  2  0
  4  5  1  0
  4 14  1  0
  5  9  1  0
  5  6  1  0
  6  7  2  0
  7  8  1  0
  8  9  2  0
  9 10  1  0
M  END
>  <i_m_ct_stereo_status>  (301) 
1

>  <s_m_source_file>  (301) 
/var/tmp/pbs.5076255.sched01/tmpp4327t_d/123x5hmlc3y.sdf

>  <i_m_source_file_index>  (301) 
2

>  <i_lp_mmshare_version>  (301) 
48012

>  <i_f3d_flags>  (301) 
0

>  <s_epik_input>  (301) 
W2NIXTFuYyhbQ0gzXSluYyhuMTIpbm5uMg==

>  <s_epik_cmdline>  (301) 
J2VwaWtfcHl0aG9uJywgJy1waHQnLCAnMi4wJywgJy1waCcsICc3LjAnLCAnLXRuJywgJzgnLCAnLW1hJywgJzIwMCcsICctaW1hZScsICc8aW5maWxlLm1hZT4nLCAnLW9tYWUnLCAnPG91dGZpbGUubWFlPic=

>  <r_lp_tautomer_probability>  (301) 
1

>  <r_epik_Ionization_Penalty>  (301) 
1.02133e-10

>  <r_epik_Ionization_Penalty_Charging>  (301) 
0

>  <r_epik_Ionization_Penalty_Neutral>  (301) 
1.02133e-10

>  <r_epik_State_Penalty>  (301) 
-0

>  <r_epik_Charging_Adjusted_Penalty>  (301) 
0

>  <i_epik_Tot_Q>  (301) 
0

>  <i_epik_Tot_abs_Q>  (301) 
0

>  <s_lp_Force_Field>  (301) 
OPLS3e

>  <r_lp_Energy>  (301) 
10.755

>  <b_lp_Chiralities_Consistent>  (301) 
1

>  <s_lp_Variant>  (301) 
88:0-1

>  <s_i_glide_gridfile>  (301) 
pfpi4k_grid

>  <i_i_glide_lignum>  (301) 
2

>  <i_i_glide_rotatable_bonds>  (301) 
0

>  <r_i_docking_score>  (301) 
-4.10612

>  <r_i_glide_ligand_efficiency>  (301) 
-0.410612

>  <r_i_glide_ligand_efficiency_sa>  (301) 
-0.884637

>  <r_i_glide_ligand_efficiency_ln>  (301) 
-1.24331

>  <r_i_glide_gscore>  (301) 
-4.10612

>  <r_i_glide_lipo>  (301) 
0

>  <r_i_glide_hbond>  (301) 
0

>  <r_i_glide_metal>  (301) 
-0

>  <r_i_glide_rewards>  (301) 
-2.35611

>  <r_i_glide_evdw>  (301) 
-17.2767

>  <r_i_glide_ecoul>  (301) 
-3.38839

>  <r_i_glide_erotb>  (301) 
0

>  <r_i_glide_esite>  (301) 
-0.377921

>  <r_i_glide_emodel>  (301) 
-26.9598

>  <r_i_glide_energy>  (301) 
-20.665

>  <r_i_glide_einternal>  (301) 
0

>  <r_i_glide_intrahb_reward>  (301) 
-0

>  <i_i_glide_confnum>  (301) 
2

>  <i_i_glide_posenum>  (301) 
19

>  <r_i_glide_eff_state_penalty>  (301) 
0

>  <ligand_id>  (301) 
88

>  <original_smiles>  (301) 
Cc1ncn2nnnc2n1

>  <smiles>  (301) 
[H]c1nc(C([H])([H])[H])nc2nnnn12

$$$$
88:0:2
     RDKit          3D

 14 15  0  0  1  0  0  0  0  0999 V2000
    3.5816   -0.2236   -4.3733 C   0  0  0  0  0  0  0  0  0  0  0  0
    3.4631   -1.2456   -3.2658 C   0  0  0  0  0  0  0  0  0  0  0  0
    2.6199   -2.2741   -3.5105 N   0  0  0  0  0  0  0  0  0  0  0  0
    2.4348   -3.1715   -2.5180 C   0  0  0  0  0  0  0  0  0  0  0  0
    3.1517   -3.0241   -1.3449 N   0  0  0  0  0  0  0  0  0  0  0  0
    3.1520   -3.8276   -0.2649 N   0  0  0  0  0  0  0  0  0  0  0  0
    4.0126   -3.2605    0.5304 N   0  0  0  0  0  0  0  0  0  0  0  0
    4.5815   -2.0988   -0.0001 N   0  0  0  0  0  0  0  0  0  0  0  0
    4.0269   -1.9520   -1.1985 C   0  0  0  0  0  0  0  0  0  0  0  0
    4.2159   -1.0153   -2.1652 N   0  0  0  0  0  0  0  0  0  0  0  0
    2.9357   -0.4611   -5.2202 H   0  0  0  0  0  0  0  0  0  0  0  0
    4.6112   -0.1922   -4.7217 H   0  0  0  0  0  0  0  0  0  0  0  0
    3.3099    0.7644   -4.0030 H   0  0  0  0  0  0  0  0  0  0  0  0
    1.7778   -4.0195   -2.6329 H   0  0  0  0  0  0  0  0  0  0  0  0
  1  2  1  0
  1 11  1  0
  1 12  1  0
  1 13  1  0
  2 10  2  0
  2  3  1  0
  3  4  2  0
  4  5  1  0
  4 14  1  0
  5  9  1  0
  5  6  1  0
  6  7  2  0
  7  8  1  0
  8  9  2  0
  9 10  1  0
M  END
>  <i_m_ct_stereo_status>  (302) 
1

>  <s_m_source_file>  (302) 
/var/tmp/pbs.5076255.sched01/tmpp4327t_d/123x5hmlc3y.sdf

>  <i_m_source_file_index>  (302) 
2

>  <i_lp_mmshare_version>  (302) 
48012

>  <i_f3d_flags>  (302) 
0

>  <s_epik_input>  (302) 
W2NIXTFuYyhbQ0gzXSluYyhuMTIpbm5uMg==

>  <s_epik_cmdline>  (302) 
J2VwaWtfcHl0aG9uJywgJy1waHQnLCAnMi4wJywgJy1waCcsICc3LjAnLCAnLXRuJywgJzgnLCAnLW1hJywgJzIwMCcsICctaW1hZScsICc8aW5maWxlLm1hZT4nLCAnLW9tYWUnLCAnPG91dGZpbGUubWFlPic=

>  <r_lp_tautomer_probability>  (302) 
1

>  <r_epik_Ionization_Penalty>  (302) 
1.02133e-10

>  <r_epik_Ionization_Penalty_Charging>  (302) 
0

>  <r_epik_Ionization_Penalty_Neutral>  (302) 
1.02133e-10

>  <r_epik_State_Penalty>  (302) 
-0

>  <r_epik_Charging_Adjusted_Penalty>  (302) 
0

>  <i_epik_Tot_Q>  (302) 
0

>  <i_epik_Tot_abs_Q>  (302) 
0

>  <s_lp_Force_Field>  (302) 
OPLS3e

>  <r_lp_Energy>  (302) 
10.755

>  <b_lp_Chiralities_Consistent>  (302) 
1

>  <s_lp_Variant>  (302) 
88:0-1

>  <s_i_glide_gridfile>  (302) 
pfpi4k_grid

>  <i_i_glide_lignum>  (302) 
2

>  <i_i_glide_rotatable_bonds>  (302) 
0

>  <r_i_docking_score>  (302) 
-4.08202

>  <r_i_glide_ligand_efficiency>  (302) 
-0.408202

>  <r_i_glide_ligand_efficiency_sa>  (302) 
-0.879444

>  <r_i_glide_ligand_efficiency_ln>  (302) 
-1.23601

>  <r_i_glide_gscore>  (302) 
-4.08202

>  <r_i_glide_lipo>  (302) 
-0.2831

>  <r_i_glide_hbond>  (302) 
0

>  <r_i_glide_metal>  (302) 
-0

>  <r_i_glide_rewards>  (302) 
-2.50178

>  <r_i_glide_evdw>  (302) 
-18.2416

>  <r_i_glide_ecoul>  (302) 
-2.16596

>  <r_i_glide_erotb>  (302) 
0

>  <r_i_glide_esite>  (302) 
-0.0601618

>  <r_i_glide_emodel>  (302) 
-26.6623

>  <r_i_glide_energy>  (302) 
-20.4075

>  <r_i_glide_einternal>  (302) 
0

>  <r_i_glide_intrahb_reward>  (302) 
-0

>  <i_i_glide_confnum>  (302) 
1

>  <i_i_glide_posenum>  (302) 
8

>  <r_i_glide_eff_state_penalty>  (302) 
0

>  <ligand_id>  (302) 
88

>  <original_smiles>  (302) 
Cc1ncn2nnnc2n1

>  <smiles>  (302) 
[H]c1nc(C([H])([H])[H])nc2nnnn12

$$$$
89:0:0
     RDKit          3D

 69 74  0  0  1  0  0  0  0  0999 V2000
    0.0631    1.4794    1.7281 C   0  0  0  0  0  0  0  0  0  0  0  0
    1.3779    1.8817    2.4147 C   0  0  2  0  0  0  0  0  0  0  0  0
    2.4910    0.7967    2.3760 C   0  0  0  0  0  0  0  0  0  0  0  0
    3.2828    0.8922    3.7163 C   0  0  0  0  0  0  0  0  0  0  0  0
    2.7378    2.1737    4.3309 C   0  0  2  0  0  0  0  0  0  0  0  0
    2.7701    2.5539    5.8191 C   0  0  1  0  0  0  0  0  0  0  0  0
    4.0456    3.0499    6.1480 O   0  0  0  0  0  0  0  0  0  0  0  0
    1.4513    3.4521    5.8486 C   0  0  1  0  0  0  0  0  0  0  0  0
    0.6943    4.5520    6.6827 C   0  0  1  0  0  0  0  0  0  0  0  0
   -0.5978    4.6877    6.1042 O   0  0  0  0  0  0  0  0  0  0  0  0
   -0.7138    3.6402    5.2681 C   0  0  2  0  0  0  0  0  0  0  0  0
   -1.6859    3.8631    4.2719 O   0  0  0  0  0  0  0  0  0  0  0  0
   -1.2979    2.5949    6.3553 C   0  0  0  0  0  0  0  0  0  0  0  0
   -1.4324    3.0376    7.9234 C   0  0  0  0  0  0  0  0  0  0  0  0
   -2.8953    3.4896    8.1366 C   0  0  0  0  0  0  0  0  0  0  0  0
   -1.3167    1.7388    8.7510 C   0  0  0  0  0  0  0  0  0  0  0  0
   -0.5063    4.1431    8.6682 C   0  0  0  0  0  0  0  0  0  0  0  0
    0.9462    4.4093    8.1175 C   0  0  1  0  0  0  0  0  0  0  0  0
    1.8505    3.3542    8.7640 C   0  0  0  0  0  0  0  0  0  0  0  0
    1.8057    5.7440    7.7069 C   0  0  1  0  0  0  0  0  0  0  0  0
    2.9740    5.8161    6.6130 C   0  0  0  0  0  0  0  0  0  0  0  0
    2.7072    5.6840    4.9923 C   0  0  1  0  0  0  0  0  0  0  0  0
    3.9552    5.2855    4.4762 O   0  0  0  0  0  0  0  0  0  0  0  0
    1.4616    4.9829    4.1215 C   0  0  1  0  0  0  0  0  0  0  0  0
    0.3939    5.9847    3.6089 C   0  0  0  0  0  0  0  0  0  0  0  0
    2.0642    4.8387    2.8487 O   0  0  0  0  0  0  0  0  0  0  0  0
    0.7865    3.5658    4.5846 C   0  0  1  0  0  0  0  0  0  0  0  0
    1.2656    2.2091    3.9253 C   0  0  1  0  0  0  0  0  0  0  0  0
    0.5928    1.0837    4.4850 O   0  0  0  0  0  0  0  0  0  0  0  0
    0.6194    6.1327    7.0142 C   0  0  1  0  0  0  0  0  0  0  0  0
    0.6955    7.2420    6.1480 O   0  0  0  0  0  0  0  0  0  0  0  0
   -0.3520    0.5462    2.1102 H   0  0  0  0  0  0  0  0  0  0  0  0
    0.2196    1.3521    0.6598 H   0  0  0  0  0  0  0  0  0  0  0  0
   -0.6969    2.2552    1.8403 H   0  0  0  0  0  0  0  0  0  0  0  0
    1.7692    2.7253    1.8541 H   0  0  0  0  0  0  0  0  0  0  0  0
    2.0631   -0.2005    2.2782 H   0  0  0  0  0  0  0  0  0  0  0  0
    3.1388    0.9515    1.5119 H   0  0  0  0  0  0  0  0  0  0  0  0
    3.0658    0.0327    4.3508 H   0  0  0  0  0  0  0  0  0  0  0  0
    4.3608    0.9404    3.5588 H   0  0  0  0  0  0  0  0  0  0  0  0
    3.2655    2.9514    3.7847 H   0  0  0  0  0  0  0  0  0  0  0  0
    2.6583    1.6358    6.4012 H   0  0  0  0  0  0  0  0  0  0  0  0
    4.1996    3.8412    5.6394 H   0  0  0  0  0  0  0  0  0  0  0  0
    1.0246    2.6086    6.3641 H   0  0  0  0  0  0  0  0  0  0  0  0
   -1.2208    4.0034    3.4517 H   0  0  0  0  0  0  0  0  0  0  0  0
   -2.2910    2.3231    6.0055 H   0  0  0  0  0  0  0  0  0  0  0  0
   -0.7875    1.6434    6.3084 H   0  0  0  0  0  0  0  0  0  0  0  0
   -3.1056    3.7189    9.1847 H   0  0  0  0  0  0  0  0  0  0  0  0
   -3.6151    2.7270    7.8284 H   0  0  0  0  0  0  0  0  0  0  0  0
   -3.0936    4.3909    7.5625 H   0  0  0  0  0  0  0  0  0  0  0  0
   -1.5196    1.9158    9.8123 H   0  0  0  0  0  0  0  0  0  0  0  0
   -0.3289    1.2865    8.6732 H   0  0  0  0  0  0  0  0  0  0  0  0
   -2.0411    1.0008    8.4040 H   0  0  0  0  0  0  0  0  0  0  0  0
   -1.1073    5.0526    8.7032 H   0  0  0  0  0  0  0  0  0  0  0  0
   -0.4497    3.9132    9.7337 H   0  0  0  0  0  0  0  0  0  0  0  0
    1.8248    3.4430    9.8509 H   0  0  0  0  0  0  0  0  0  0  0  0
    2.8914    3.4820    8.4717 H   0  0  0  0  0  0  0  0  0  0  0  0
    1.5551    2.3416    8.5115 H   0  0  0  0  0  0  0  0  0  0  0  0
    2.0015    6.3642    8.5836 H   0  0  0  0  0  0  0  0  0  0  0  0
    3.4425    6.7948    6.7186 H   0  0  0  0  0  0  0  0  0  0  0  0
    3.7973    5.2025    6.9576 H   0  0  0  0  0  0  0  0  0  0  0  0
    2.6942    6.7173    4.6423 H   0  0  0  0  0  0  0  0  0  0  0  0
    3.8613    5.3353    3.5291 H   0  0  0  0  0  0  0  0  0  0  0  0
   -0.3868    6.2356    4.3159 H   0  0  0  0  0  0  0  0  0  0  0  0
   -0.1589    5.6099    2.7466 H   0  0  0  0  0  0  0  0  0  0  0  0
    0.8699    6.9191    3.3109 H   0  0  0  0  0  0  0  0  0  0  0  0
    1.3763    4.6400    2.2100 H   0  0  0  0  0  0  0  0  0  0  0  0
   -0.2625    1.0394    4.0886 H   0  0  0  0  0  0  0  0  0  0  0  0
   -0.1317    6.4598    7.7317 H   0  0  0  0  0  0  0  0  0  0  0  0
    1.4089    7.0954    5.5452 H   0  0  0  0  0  0  0  0  0  0  0  0
  1  2  1  0
  1 32  1  0
  1 33  1  0
  1 34  1  0
  2 28  1  0
  2  3  1  0
  2 35  1  6
  3  4  1  0
  3 36  1  0
  3 37  1  0
  4  5  1  0
  4 38  1  0
  4 39  1  0
  5 28  1  0
  5  6  1  0
  5 40  1  6
  6  7  1  0
  6  8  1  0
  6 41  1  1
  7 42  1  0
  8 27  1  0
  8  9  1  0
  8 43  1  1
  9 18  1  0
  9 30  1  0
  9 10  1  1
 10 11  1  0
 27 11  1  1
 11 12  1  6
 11 13  1  0
 12 44  1  0
 13 14  1  0
 13 45  1  0
 13 46  1  0
 14 15  1  0
 14 16  1  0
 14 17  1  0
 15 47  1  0
 15 48  1  0
 15 49  1  0
 16 50  1  0
 16 51  1  0
 16 52  1  0
 17 18  1  0
 17 53  1  0
 17 54  1  0
 18 19  1  6
 18 20  1  0
 19 55  1  0
 19 56  1  0
 19 57  1  0
 20 21  1  0
 20 30  1  0
 20 58  1  1
 21 22  1  0
 21 59  1  0
 21 60  1  0
 22 23  1  0
 22 24  1  0
 22 61  1  6
 23 62  1  0
 24 25  1  0
 24 26  1  6
 24 27  1  0
 25 63  1  0
 25 64  1  0
 25 65  1  0
 26 66  1  0
 27 28  1  0
 28 29  1  1
 29 67  1  0
 30 31  1  0
 30 68  1  1
 31 69  1  0
M  END
>  <i_m_ct_stereo_status>  (303) 
1

>  <s_m_source_file>  (303) 
/var/tmp/pbs.5076255.sched01/tmpp4327t_d/123x5hmlc3y.sdf

>  <i_m_source_file_index>  (303) 
3

>  <i_lp_mmshare_version>  (303) 
48012

>  <i_f3d_flags>  (303) 
0

>  <s_epik_input>  (303) 
W0NIM11bQ0BASF0xW0NIMl1bQ0gyXVtDQEhdKFtDQEhdMltPSF0pW0NAQF0xKFtPSF0pW0NAXTMoW0NAQEhdMltDQEBdNDU2KVtDQEBdKE80KShbT0hdKVtDSDJdQyhbQ0gzXSkoW0NIM10pW0NIMl1bQ0BdNShbQ0gzXSlbQ0BIXShbQ0BIXTZbT0hdKVtDSDJdW0NAQEhdKFtPSF0pW0NAQF0zKFtDSDNdKVtPSF0=

>  <s_epik_cmdline>  (303) 
J2VwaWtfcHl0aG9uJywgJy1waHQnLCAnMi4wJywgJy1waCcsICc3LjAnLCAnLXRuJywgJzgnLCAnLW1hJywgJzIwMCcsICctaW1hZScsICc8aW5maWxlLm1hZT4nLCAnLW9tYWUnLCAnPG91dGZpbGUubWFlPic=

>  <r_lp_tautomer_probability>  (303) 
1

>  <r_epik_Ionization_Penalty>  (303) 
1.02903e-06

>  <r_epik_Ionization_Penalty_Charging>  (303) 
0

>  <r_epik_Ionization_Penalty_Neutral>  (303) 
1.02903e-06

>  <r_epik_State_Penalty>  (303) 
-0

>  <r_epik_Charging_Adjusted_Penalty>  (303) 
0

>  <i_epik_Tot_Q>  (303) 
0

>  <i_epik_Tot_abs_Q>  (303) 
0

>  <s_lp_Force_Field>  (303) 
OPLS3e

>  <r_lp_Energy>  (303) 
309.191

>  <b_lp_Chiralities_Consistent>  (303) 
1

>  <s_lp_Variant>  (303) 
89:0-1

>  <s_i_glide_gridfile>  (303) 
pfpi4k_grid

>  <i_i_glide_lignum>  (303) 
3

>  <i_i_glide_rotatable_bonds>  (303) 
6

>  <r_i_docking_score>  (303) 
-3.03876

>  <r_i_glide_ligand_efficiency>  (303) 
-0.0980245

>  <r_i_glide_ligand_efficiency_sa>  (303) 
-0.307932

>  <r_i_glide_ligand_efficiency_ln>  (303) 
-0.685333

>  <r_i_glide_gscore>  (303) 
-3.03876

>  <r_i_glide_lipo>  (303) 
-0.159597

>  <r_i_glide_hbond>  (303) 
0

>  <r_i_glide_metal>  (303) 
-0

>  <r_i_glide_rewards>  (303) 
-0.918948

>  <r_i_glide_evdw>  (303) 
-19.4074

>  <r_i_glide_ecoul>  (303) 
-6.5017

>  <r_i_glide_erotb>  (303) 
0

>  <r_i_glide_esite>  (303) 
-0.0145924

>  <r_i_glide_emodel>  (303) 
-35.3501

>  <r_i_glide_energy>  (303) 
-25.9091

>  <r_i_glide_einternal>  (303) 
1.28769

>  <r_i_glide_intrahb_reward>  (303) 
-0.5

>  <i_i_glide_confnum>  (303) 
2

>  <i_i_glide_posenum>  (303) 
1

>  <r_i_glide_eff_state_penalty>  (303) 
0

>  <ligand_id>  (303) 
89

>  <original_smiles>  (303) 
CC1CCC2C(O)C3C45OC6(O)CC(C)(C)CC4(C)C(CC(O)C(C)(O)C36C12O)C5O

>  <smiles>  (303) 
[H]OC1([H])C2([H])C([H])([H])C([H])([H])C([H])(C([H])([H])[H])C2(O[H])C23C4(O[H])OC5(C([H])(O[H])C([H])(C([H])([H])C([H])(O[H])C2(O[H])C([H])([H])[H])C5(C([H])([H])[H])C([H])([H])C(C([H])([H])[H])(C([H])([H])[H])C4([H])[H])C13[H]

$$$$
89:0:1
     RDKit          3D

 69 74  0  0  1  0  0  0  0  0999 V2000
    0.4049    0.8986    2.2032 C   0  0  0  0  0  0  0  0  0  0  0  0
    1.6506    1.5801    2.7951 C   0  0  2  0  0  0  0  0  0  0  0  0
    2.9256    0.6898    2.8115 C   0  0  0  0  0  0  0  0  0  0  0  0
    3.7306    1.0459    4.0983 C   0  0  0  0  0  0  0  0  0  0  0  0
    3.0006    2.2822    4.6075 C   0  0  2  0  0  0  0  0  0  0  0  0
    3.0140    2.8113    6.0515 C   0  0  1  0  0  0  0  0  0  0  0  0
    4.2033    3.5314    6.2794 O   0  0  0  0  0  0  0  0  0  0  0  0
    1.5696    3.4853    6.0552 C   0  0  1  0  0  0  0  0  0  0  0  0
    0.6673    4.5221    6.8179 C   0  0  1  0  0  0  0  0  0  0  0  0
   -0.6486    4.3844    6.2955 O   0  0  0  0  0  0  0  0  0  0  0  0
   -0.6139    3.2537    5.5658 C   0  0  2  0  0  0  0  0  0  0  0  0
   -1.6479    3.2138    4.6103 O   0  0  0  0  0  0  0  0  0  0  0  0
   -0.9812    2.2441    6.7743 C   0  0  0  0  0  0  0  0  0  0  0  0
   -1.1459    2.8164    8.2957 C   0  0  0  0  0  0  0  0  0  0  0  0
   -2.6611    3.0468    8.5229 C   0  0  0  0  0  0  0  0  0  0  0  0
   -0.7908    1.6409    9.2360 C   0  0  0  0  0  0  0  0  0  0  0  0
   -0.3917    4.1255    8.8879 C   0  0  0  0  0  0  0  0  0  0  0  0
    0.9819    4.5631    8.2482 C   0  0  1  0  0  0  0  0  0  0  0  0
    2.0663    3.7419    8.9504 C   0  0  0  0  0  0  0  0  0  0  0  0
    1.5957    5.9696    7.6726 C   0  0  1  0  0  0  0  0  0  0  0  0
    2.7060    6.1205    6.5219 C   0  0  0  0  0  0  0  0  0  0  0  0
    2.4215    5.7815    4.9278 C   0  0  1  0  0  0  0  0  0  0  0  0
    3.7107    5.5367    4.3987 O   0  0  0  0  0  0  0  0  0  0  0  0
    1.2773    4.8164    4.1781 C   0  0  1  0  0  0  0  0  0  0  0  0
    0.0294    5.5679    3.6483 C   0  0  0  0  0  0  0  0  0  0  0  0
    1.8440    4.6702    2.8839 O   0  0  0  0  0  0  0  0  0  0  0  0
    0.8555    3.3603    4.8155 C   0  0  1  0  0  0  0  0  0  0  0  0
    1.5276    2.0373    4.2689 C   0  0  1  0  0  0  0  0  0  0  0  0
    1.0878    0.8780    4.9664 O   0  0  0  0  0  0  0  0  0  0  0  0
    0.3431    6.0975    7.0002 C   0  0  1  0  0  0  0  0  0  0  0  0
    0.2170    7.1109    6.0324 O   0  0  0  0  0  0  0  0  0  0  0  0
    0.1478   -0.0269    2.7172 H   0  0  0  0  0  0  0  0  0  0  0  0
    0.5673    0.6493    1.1539 H   0  0  0  0  0  0  0  0  0  0  0  0
   -0.4655    1.5575    2.2472 H   0  0  0  0  0  0  0  0  0  0  0  0
    1.8760    2.4234    2.1478 H   0  0  0  0  0  0  0  0  0  0  0  0
    2.6731   -0.3706    2.8196 H   0  0  0  0  0  0  0  0  0  0  0  0
    3.5126    0.8662    1.9091 H   0  0  0  0  0  0  0  0  0  0  0  0
    3.6871    0.2328    4.8254 H   0  0  0  0  0  0  0  0  0  0  0  0
    4.7823    1.2471    3.8891 H   0  0  0  0  0  0  0  0  0  0  0  0
    3.3702    3.0760    3.9637 H   0  0  0  0  0  0  0  0  0  0  0  0
    3.0742    1.9488    6.7218 H   0  0  0  0  0  0  0  0  0  0  0  0
    4.2135    4.2874    5.6999 H   0  0  0  0  0  0  0  0  0  0  0  0
    1.3037    2.6393    6.6698 H   0  0  0  0  0  0  0  0  0  0  0  0
   -1.2691    3.4670    3.7786 H   0  0  0  0  0  0  0  0  0  0  0  0
   -1.9230    1.7781    6.4978 H   0  0  0  0  0  0  0  0  0  0  0  0
   -0.3238    1.3845    6.7917 H   0  0  0  0  0  0  0  0  0  0  0  0
   -2.8750    3.3471    9.5522 H   0  0  0  0  0  0  0  0  0  0  0  0
   -3.2414    2.1440    8.3315 H   0  0  0  0  0  0  0  0  0  0  0  0
   -3.0441    3.8275    7.8660 H   0  0  0  0  0  0  0  0  0  0  0  0
   -0.9902    1.8843   10.2862 H   0  0  0  0  0  0  0  0  0  0  0  0
    0.2566    1.3511    9.1578 H   0  0  0  0  0  0  0  0  0  0  0  0
   -1.3858    0.7626    8.9925 H   0  0  0  0  0  0  0  0  0  0  0  0
   -1.1323    4.9257    8.8654 H   0  0  0  0  0  0  0  0  0  0  0  0
   -0.2662    4.0159    9.9670 H   0  0  0  0  0  0  0  0  0  0  0  0
    2.0612    3.9327   10.0240 H   0  0  0  0  0  0  0  0  0  0  0  0
    3.0644    4.0043    8.5983 H   0  0  0  0  0  0  0  0  0  0  0  0
    1.9352    2.6728    8.8086 H   0  0  0  0  0  0  0  0  0  0  0  0
    1.7155    6.6991    8.4758 H   0  0  0  0  0  0  0  0  0  0  0  0
    3.0102    7.1668    6.5167 H   0  0  0  0  0  0  0  0  0  0  0  0
    3.6279    5.6863    6.8907 H   0  0  0  0  0  0  0  0  0  0  0  0
    2.2280    6.7617    4.4898 H   0  0  0  0  0  0  0  0  0  0  0  0
    3.5933    5.5140    3.4562 H   0  0  0  0  0  0  0  0  0  0  0  0
   -0.7417    5.7432    4.3874 H   0  0  0  0  0  0  0  0  0  0  0  0
   -0.4918    4.9948    2.8785 H   0  0  0  0  0  0  0  0  0  0  0  0
    0.2880    6.5381    3.2243 H   0  0  0  0  0  0  0  0  0  0  0  0
    1.1583    4.5441    2.2256 H   0  0  0  0  0  0  0  0  0  0  0  0
    1.6172    0.1565    4.6608 H   0  0  0  0  0  0  0  0  0  0  0  0
   -0.4326    6.3670    7.7145 H   0  0  0  0  0  0  0  0  0  0  0  0
    0.9935    7.0913    5.4887 H   0  0  0  0  0  0  0  0  0  0  0  0
  1  2  1  0
  1 32  1  0
  1 33  1  0
  1 34  1  0
  2 28  1  0
  2  3  1  0
  2 35  1  6
  3  4  1  0
  3 36  1  0
  3 37  1  0
  4  5  1  0
  4 38  1  0
  4 39  1  0
  5 28  1  0
  5  6  1  0
  5 40  1  6
  6  7  1  0
  6  8  1  0
  6 41  1  1
  7 42  1  0
  8 27  1  0
  8  9  1  0
  8 43  1  1
  9 18  1  0
  9 30  1  0
  9 10  1  1
 10 11  1  0
 27 11  1  1
 11 12  1  6
 11 13  1  0
 12 44  1  0
 13 14  1  0
 13 45  1  0
 13 46  1  0
 14 15  1  0
 14 16  1  0
 14 17  1  0
 15 47  1  0
 15 48  1  0
 15 49  1  0
 16 50  1  0
 16 51  1  0
 16 52  1  0
 17 18  1  0
 17 53  1  0
 17 54  1  0
 18 19  1  6
 18 20  1  0
 19 55  1  0
 19 56  1  0
 19 57  1  0
 20 21  1  0
 20 30  1  0
 20 58  1  1
 21 22  1  0
 21 59  1  0
 21 60  1  0
 22 23  1  0
 22 24  1  0
 22 61  1  6
 23 62  1  0
 24 25  1  0
 24 26  1  6
 24 27  1  0
 25 63  1  0
 25 64  1  0
 25 65  1  0
 26 66  1  0
 27 28  1  0
 28 29  1  1
 29 67  1  0
 30 31  1  0
 30 68  1  1
 31 69  1  0
M  END
>  <i_m_ct_stereo_status>  (304) 
1

>  <s_m_source_file>  (304) 
/var/tmp/pbs.5076255.sched01/tmpp4327t_d/123x5hmlc3y.sdf

>  <i_m_source_file_index>  (304) 
3

>  <i_lp_mmshare_version>  (304) 
48012

>  <i_f3d_flags>  (304) 
0

>  <s_epik_input>  (304) 
W0NIM11bQ0BASF0xW0NIMl1bQ0gyXVtDQEhdKFtDQEhdMltPSF0pW0NAQF0xKFtPSF0pW0NAXTMoW0NAQEhdMltDQEBdNDU2KVtDQEBdKE80KShbT0hdKVtDSDJdQyhbQ0gzXSkoW0NIM10pW0NIMl1bQ0BdNShbQ0gzXSlbQ0BIXShbQ0BIXTZbT0hdKVtDSDJdW0NAQEhdKFtPSF0pW0NAQF0zKFtDSDNdKVtPSF0=

>  <s_epik_cmdline>  (304) 
J2VwaWtfcHl0aG9uJywgJy1waHQnLCAnMi4wJywgJy1waCcsICc3LjAnLCAnLXRuJywgJzgnLCAnLW1hJywgJzIwMCcsICctaW1hZScsICc8aW5maWxlLm1hZT4nLCAnLW9tYWUnLCAnPG91dGZpbGUubWFlPic=

>  <r_lp_tautomer_probability>  (304) 
1

>  <r_epik_Ionization_Penalty>  (304) 
1.02903e-06

>  <r_epik_Ionization_Penalty_Charging>  (304) 
0

>  <r_epik_Ionization_Penalty_Neutral>  (304) 
1.02903e-06

>  <r_epik_State_Penalty>  (304) 
-0

>  <r_epik_Charging_Adjusted_Penalty>  (304) 
0

>  <i_epik_Tot_Q>  (304) 
0

>  <i_epik_Tot_abs_Q>  (304) 
0

>  <s_lp_Force_Field>  (304) 
OPLS3e

>  <r_lp_Energy>  (304) 
309.191

>  <b_lp_Chiralities_Consistent>  (304) 
1

>  <s_lp_Variant>  (304) 
89:0-1

>  <s_i_glide_gridfile>  (304) 
pfpi4k_grid

>  <i_i_glide_lignum>  (304) 
3

>  <i_i_glide_rotatable_bonds>  (304) 
6

>  <r_i_docking_score>  (304) 
-3.02055

>  <r_i_glide_ligand_efficiency>  (304) 
-0.0974372

>  <r_i_glide_ligand_efficiency_sa>  (304) 
-0.306087

>  <r_i_glide_ligand_efficiency_ln>  (304) 
-0.681227

>  <r_i_glide_gscore>  (304) 
-3.02055

>  <r_i_glide_lipo>  (304) 
-0.0810587

>  <r_i_glide_hbond>  (304) 
0

>  <r_i_glide_metal>  (304) 
-0

>  <r_i_glide_rewards>  (304) 
-0.918948

>  <r_i_glide_evdw>  (304) 
-18.9478

>  <r_i_glide_ecoul>  (304) 
-7.11042

>  <r_i_glide_erotb>  (304) 
0

>  <r_i_glide_esite>  (304) 
-0.00659514

>  <r_i_glide_emodel>  (304) 
-35.3259

>  <r_i_glide_energy>  (304) 
-26.0582

>  <r_i_glide_einternal>  (304) 
1.35027

>  <r_i_glide_intrahb_reward>  (304) 
-0.5

>  <i_i_glide_confnum>  (304) 
2

>  <i_i_glide_posenum>  (304) 
26

>  <r_i_glide_eff_state_penalty>  (304) 
0

>  <ligand_id>  (304) 
89

>  <original_smiles>  (304) 
CC1CCC2C(O)C3C45OC6(O)CC(C)(C)CC4(C)C(CC(O)C(C)(O)C36C12O)C5O

>  <smiles>  (304) 
[H]OC1([H])C2([H])C([H])([H])C([H])([H])C([H])(C([H])([H])[H])C2(O[H])C23C4(O[H])OC5(C([H])(O[H])C([H])(C([H])([H])C([H])(O[H])C2(O[H])C([H])([H])[H])C5(C([H])([H])[H])C([H])([H])C(C([H])([H])[H])(C([H])([H])[H])C4([H])[H])C13[H]

$$$$
89:0:2
     RDKit          3D

 69 74  0  0  1  0  0  0  0  0999 V2000
    3.2678   -0.2620    1.5665 C   0  0  0  0  0  0  0  0  0  0  0  0
    3.0621   -0.6737    3.0389 C   0  0  2  0  0  0  0  0  0  0  0  0
    2.7820   -2.1896    3.2583 C   0  0  0  0  0  0  0  0  0  0  0  0
    1.7889   -2.3164    4.4481 C   0  0  0  0  0  0  0  0  0  0  0  0
    1.7415   -0.8932    4.9896 C   0  0  2  0  0  0  0  0  0  0  0  0
    0.6131   -0.2769    5.8395 C   0  0  1  0  0  0  0  0  0  0  0  0
    0.7412   -0.6915    7.1844 O   0  0  0  0  0  0  0  0  0  0  0  0
    0.7995    1.2281    5.3805 C   0  0  1  0  0  0  0  0  0  0  0  0
    0.4362    2.7127    5.7606 C   0  0  1  0  0  0  0  0  0  0  0  0
    0.7620    3.5313    4.6480 O   0  0  0  0  0  0  0  0  0  0  0  0
    1.0173    2.6526    3.6364 C   0  0  2  0  0  0  0  0  0  0  0  0
    1.7999    3.1997    2.5899 O   0  0  0  0  0  0  0  0  0  0  0  0
   -0.5197    2.5230    3.1417 C   0  0  0  0  0  0  0  0  0  0  0  0
   -1.6849    3.3427    3.9251 C   0  0  0  0  0  0  0  0  0  0  0  0
   -1.8903    4.6573    3.1415 C   0  0  0  0  0  0  0  0  0  0  0  0
   -2.9805    2.5665    3.6414 C   0  0  0  0  0  0  0  0  0  0  0  0
   -1.6970    3.6959    5.4997 C   0  0  0  0  0  0  0  0  0  0  0  0
   -0.8419    2.7871    6.4662 C   0  0  1  0  0  0  0  0  0  0  0  0
   -1.7482    1.6115    6.8362 C   0  0  0  0  0  0  0  0  0  0  0  0
    0.2661    3.0690    7.6391 C   0  0  1  0  0  0  0  0  0  0  0  0
    1.4438    2.0793    8.0843 C   0  0  0  0  0  0  0  0  0  0  0  0
    2.7542    1.7631    7.1345 C   0  0  1  0  0  0  0  0  0  0  0  0
    3.2285    0.5233    7.6206 O   0  0  0  0  0  0  0  0  0  0  0  0
    2.9887    1.8978    5.4815 C   0  0  1  0  0  0  0  0  0  0  0  0
    3.7194    3.1933    5.0281 C   0  0  0  0  0  0  0  0  0  0  0  0
    4.1443    1.1010    5.3155 O   0  0  0  0  0  0  0  0  0  0  0  0
    1.8366    1.4444    4.4260 C   0  0  1  0  0  0  0  0  0  0  0  0
    1.8719    0.0073    3.7588 C   0  0  1  0  0  0  0  0  0  0  0  0
    0.7621   -0.2312    2.9095 O   0  0  0  0  0  0  0  0  0  0  0  0
    0.8471    3.9643    6.6863 C   0  0  1  0  0  0  0  0  0  0  0  0
    2.1136    4.4848    7.0098 O   0  0  0  0  0  0  0  0  0  0  0  0
    2.4264   -0.5348    0.9315 H   0  0  0  0  0  0  0  0  0  0  0  0
    4.1507   -0.7496    1.1487 H   0  0  0  0  0  0  0  0  0  0  0  0
    3.4173    0.8182    1.4752 H   0  0  0  0  0  0  0  0  0  0  0  0
    3.9996   -0.4683    3.5490 H   0  0  0  0  0  0  0  0  0  0  0  0
    2.3405   -2.6365    2.3699 H   0  0  0  0  0  0  0  0  0  0  0  0
    3.7187   -2.7166    3.4529 H   0  0  0  0  0  0  0  0  0  0  0  0
    0.8100   -2.6297    4.0952 H   0  0  0  0  0  0  0  0  0  0  0  0
    2.1289   -3.0318    5.1986 H   0  0  0  0  0  0  0  0  0  0  0  0
    2.6607   -0.8172    5.5682 H   0  0  0  0  0  0  0  0  0  0  0  0
   -0.3273   -0.7184    5.5044 H   0  0  0  0  0  0  0  0  0  0  0  0
    1.5805   -0.3758    7.5139 H   0  0  0  0  0  0  0  0  0  0  0  0
   -0.1067    1.0338    4.8364 H   0  0  0  0  0  0  0  0  0  0  0  0
    1.1962    3.6684    1.9925 H   0  0  0  0  0  0  0  0  0  0  0  0
   -0.5493    2.8886    2.1261 H   0  0  0  0  0  0  0  0  0  0  0  0
   -0.8339    1.4975    2.9864 H   0  0  0  0  0  0  0  0  0  0  0  0
   -2.8073    5.1376    3.4467 H   0  0  0  0  0  0  0  0  0  0  0  0
   -2.0482    4.4772    2.0806 H   0  0  0  0  0  0  0  0  0  0  0  0
   -1.0335    5.3312    3.2302 H   0  0  0  0  0  0  0  0  0  0  0  0
   -3.8708    3.0627    4.0429 H   0  0  0  0  0  0  0  0  0  0  0  0
   -2.9193    1.5816    4.0820 H   0  0  0  0  0  0  0  0  0  0  0  0
   -3.1336    2.4539    2.5693 H   0  0  0  0  0  0  0  0  0  0  0  0
   -1.3977    4.7413    5.5566 H   0  0  0  0  0  0  0  0  0  0  0  0
   -2.7280    3.7444    5.8623 H   0  0  0  0  0  0  0  0  0  0  0  0
   -2.6652    1.9510    7.3204 H   0  0  0  0  0  0  0  0  0  0  0  0
   -1.2597    0.9454    7.5485 H   0  0  0  0  0  0  0  0  0  0  0  0
   -2.0345    1.0181    5.9714 H   0  0  0  0  0  0  0  0  0  0  0  0
   -0.1982    3.5971    8.4826 H   0  0  0  0  0  0  0  0  0  0  0  0
    1.8729    2.4982    8.9932 H   0  0  0  0  0  0  0  0  0  0  0  0
    1.0004    1.1894    8.5092 H   0  0  0  0  0  0  0  0  0  0  0  0
    3.5273    2.4209    7.5421 H   0  0  0  0  0  0  0  0  0  0  0  0
    4.1085    0.4251    7.2684 H   0  0  0  0  0  0  0  0  0  0  0  0
    3.0786    4.0587    4.8764 H   0  0  0  0  0  0  0  0  0  0  0  0
    4.1869    3.0597    4.0550 H   0  0  0  0  0  0  0  0  0  0  0  0
    4.5079    3.5002    5.7217 H   0  0  0  0  0  0  0  0  0  0  0  0
    4.4090    1.1810    4.4080 H   0  0  0  0  0  0  0  0  0  0  0  0
    0.9255    0.2056    2.0806 H   0  0  0  0  0  0  0  0  0  0  0  0
    0.2352    4.8736    6.6207 H   0  0  0  0  0  0  0  0  0  0  0  0
    2.6890    3.7484    7.1647 H   0  0  0  0  0  0  0  0  0  0  0  0
  1  2  1  0
  1 32  1  0
  1 33  1  0
  1 34  1  0
  2 28  1  0
  2  3  1  0
  2 35  1  1
  3  4  1  0
  3 36  1  0
  3 37  1  0
  4  5  1  0
  4 38  1  0
  4 39  1  0
  5 28  1  0
  5  6  1  0
  5 40  1  1
  6  7  1  0
  6  8  1  0
  6 41  1  6
  7 42  1  0
  8 27  1  0
  8  9  1  0
  8 43  1  6
  9 18  1  0
  9 30  1  0
  9 10  1  6
 10 11  1  0
 27 11  1  6
 11 12  1  6
 11 13  1  0
 12 44  1  0
 13 14  1  0
 13 45  1  0
 13 46  1  0
 14 15  1  0
 14 16  1  0
 14 17  1  0
 15 47  1  0
 15 48  1  0
 15 49  1  0
 16 50  1  0
 16 51  1  0
 16 52  1  0
 17 18  1  0
 17 53  1  0
 17 54  1  0
 18 19  1  1
 18 20  1  0
 19 55  1  0
 19 56  1  0
 19 57  1  0
 20 21  1  0
 20 30  1  0
 20 58  1  1
 21 22  1  0
 21 59  1  0
 21 60  1  0
 22 23  1  0
 22 24  1  0
 22 61  1  1
 23 62  1  0
 24 25  1  0
 24 26  1  6
 24 27  1  0
 25 63  1  0
 25 64  1  0
 25 65  1  0
 26 66  1  0
 27 28  1  0
 28 29  1  6
 29 67  1  0
 30 31  1  0
 30 68  1  6
 31 69  1  0
M  END
>  <i_m_ct_stereo_status>  (305) 
1

>  <s_m_source_file>  (305) 
/var/tmp/pbs.5076255.sched01/tmpp4327t_d/123x5hmlc3y.sdf

>  <i_m_source_file_index>  (305) 
3

>  <i_lp_mmshare_version>  (305) 
48012

>  <i_f3d_flags>  (305) 
0

>  <s_epik_input>  (305) 
W0NIM11bQ0BASF0xW0NIMl1bQ0gyXVtDQEhdKFtDQEhdMltPSF0pW0NAQF0xKFtPSF0pW0NAXTMoW0NAQEhdMltDQEBdNDU2KVtDQEBdKE80KShbT0hdKVtDSDJdQyhbQ0gzXSkoW0NIM10pW0NIMl1bQ0BdNShbQ0gzXSlbQ0BIXShbQ0BIXTZbT0hdKVtDSDJdW0NAQEhdKFtPSF0pW0NAQF0zKFtDSDNdKVtPSF0=

>  <s_epik_cmdline>  (305) 
J2VwaWtfcHl0aG9uJywgJy1waHQnLCAnMi4wJywgJy1waCcsICc3LjAnLCAnLXRuJywgJzgnLCAnLW1hJywgJzIwMCcsICctaW1hZScsICc8aW5maWxlLm1hZT4nLCAnLW9tYWUnLCAnPG91dGZpbGUubWFlPic=

>  <r_lp_tautomer_probability>  (305) 
1

>  <r_epik_Ionization_Penalty>  (305) 
1.02903e-06

>  <r_epik_Ionization_Penalty_Charging>  (305) 
0

>  <r_epik_Ionization_Penalty_Neutral>  (305) 
1.02903e-06

>  <r_epik_State_Penalty>  (305) 
-0

>  <r_epik_Charging_Adjusted_Penalty>  (305) 
0

>  <i_epik_Tot_Q>  (305) 
0

>  <i_epik_Tot_abs_Q>  (305) 
0

>  <s_lp_Force_Field>  (305) 
OPLS3e

>  <r_lp_Energy>  (305) 
309.191

>  <b_lp_Chiralities_Consistent>  (305) 
1

>  <s_lp_Variant>  (305) 
89:0-1

>  <s_i_glide_gridfile>  (305) 
pfpi4k_grid

>  <i_i_glide_lignum>  (305) 
3

>  <i_i_glide_rotatable_bonds>  (305) 
6

>  <r_i_docking_score>  (305) 
-2.34456

>  <r_i_glide_ligand_efficiency>  (305) 
-0.0756311

>  <r_i_glide_ligand_efficiency_sa>  (305) 
-0.237586

>  <r_i_glide_ligand_efficiency_ln>  (305) 
-0.528771

>  <r_i_glide_gscore>  (305) 
-2.34456

>  <r_i_glide_lipo>  (305) 
0

>  <r_i_glide_hbond>  (305) 
0

>  <r_i_glide_metal>  (305) 
-0

>  <r_i_glide_rewards>  (305) 
-0.918948

>  <r_i_glide_evdw>  (305) 
-15.221

>  <r_i_glide_ecoul>  (305) 
-4.14396

>  <r_i_glide_erotb>  (305) 
0

>  <r_i_glide_esite>  (305) 
-0.0429745

>  <r_i_glide_emodel>  (305) 
-28.0338

>  <r_i_glide_energy>  (305) 
-19.3649

>  <r_i_glide_einternal>  (305) 
0.746556

>  <r_i_glide_intrahb_reward>  (305) 
-0.5

>  <i_i_glide_confnum>  (305) 
2

>  <i_i_glide_posenum>  (305) 
7

>  <r_i_glide_eff_state_penalty>  (305) 
0

>  <ligand_id>  (305) 
89

>  <original_smiles>  (305) 
CC1CCC2C(O)C3C45OC6(O)CC(C)(C)CC4(C)C(CC(O)C(C)(O)C36C12O)C5O

>  <smiles>  (305) 
[H]OC1([H])C2([H])C([H])([H])C([H])([H])C([H])(C([H])([H])[H])C2(O[H])C23C4(O[H])OC5(C([H])(O[H])C([H])(C([H])([H])C([H])(O[H])C2(O[H])C([H])([H])[H])C5(C([H])([H])[H])C([H])([H])C(C([H])([H])[H])(C([H])([H])[H])C4([H])[H])C13[H]

$$$$
90:0:0
     RDKit          3D

 26 27  0  0  1  0  0  0  0  0999 V2000
   -4.3957  -10.6407   -6.1499 C   0  0  0  0  0  0  0  0  0  0  0  0
   -5.3824   -9.4648   -6.1451 C   0  0  1  0  0  0  0  0  0  0  0  0
   -5.0984   -8.5047   -4.9638 C   0  0  0  0  0  0  0  0  0  0  0  0
   -3.9215   -7.7453   -5.1255 O   0  0  0  0  0  0  0  0  0  0  0  0
   -5.4722   -8.7556   -7.5326 C   0  0  0  0  0  0  0  0  0  0  0  0
   -6.9702   -8.7069   -7.7339 C   0  0  1  0  0  0  0  0  0  0  0  0
   -7.5919   -8.5255   -9.1056 C   0  0  0  0  0  0  0  0  0  0  0  0
   -8.8422   -8.9894   -9.3115 C   0  0  0  0  0  0  0  0  0  0  0  0
   -9.5489   -9.6934   -8.2369 C   0  0  0  0  0  0  0  0  0  0  0  0
   -8.8577  -10.2171   -7.2001 C   0  0  0  0  0  0  0  0  0  0  0  0
   -7.3524  -10.0560   -7.1723 C   0  0  2  0  0  0  0  0  0  0  0  0
   -6.7040   -9.9969   -5.9235 O   0  0  0  0  0  0  0  0  0  0  0  0
   -3.3797  -10.2931   -6.3133 H   0  0  0  0  0  0  0  0  0  0  0  0
   -4.6306  -11.3595   -6.9346 H   0  0  0  0  0  0  0  0  0  0  0  0
   -4.4110  -11.1720   -5.1981 H   0  0  0  0  0  0  0  0  0  0  0  0
   -5.9298   -7.8105   -4.8403 H   0  0  0  0  0  0  0  0  0  0  0  0
   -4.9868   -9.0659   -4.0358 H   0  0  0  0  0  0  0  0  0  0  0  0
   -3.1873   -8.2692   -4.8353 H   0  0  0  0  0  0  0  0  0  0  0  0
   -5.0217   -7.7608   -7.5413 H   0  0  0  0  0  0  0  0  0  0  0  0
   -4.9968   -9.3459   -8.3158 H   0  0  0  0  0  0  0  0  0  0  0  0
   -7.3817   -7.9202   -7.1005 H   0  0  0  0  0  0  0  0  0  0  0  0
   -7.0311   -7.9989   -9.8675 H   0  0  0  0  0  0  0  0  0  0  0  0
   -9.3273   -8.8493  -10.2672 H   0  0  0  0  0  0  0  0  0  0  0  0
  -10.6269   -9.7828   -8.2644 H   0  0  0  0  0  0  0  0  0  0  0  0
   -9.3352  -10.7475   -6.3892 H   0  0  0  0  0  0  0  0  0  0  0  0
   -6.9252  -10.8758   -7.7554 H   0  0  0  0  0  0  0  0  0  0  0  0
  2  1  1  6
  1 13  1  0
  1 14  1  0
  1 15  1  0
  2 12  1  0
  2  3  1  0
  2  5  1  0
  3  4  1  0
  3 16  1  0
  3 17  1  0
  4 18  1  0
  5  6  1  0
  5 19  1  0
  5 20  1  0
  6 11  1  0
  6  7  1  0
  6 21  1  1
  7  8  2  0
  7 22  1  0
  8  9  1  0
  8 23  1  0
  9 10  2  0
  9 24  1  0
 10 11  1  0
 10 25  1  0
 11 12  1  0
 11 26  1  6
M  END
>  <i_m_ct_stereo_status>  (306) 
1

>  <s_m_source_file>  (306) 
/var/tmp/pbs.5076255.sched01/tmpp4327t_d/123x5hmlc3y.sdf

>  <i_m_source_file_index>  (306) 
4

>  <i_lp_mmshare_version>  (306) 
48012

>  <i_f3d_flags>  (306) 
0

>  <s_epik_input>  (306) 
W09IXVtDSDJdW0NAXShbQ0gzXSkoW0NIMl0xKU9bQ0BIXShbQ0BASF0xMilbQ0hdPVtDSF1bQ0hdPVtDSF0y

>  <s_epik_cmdline>  (306) 
J2VwaWtfcHl0aG9uJywgJy1waHQnLCAnMi4wJywgJy1waCcsICc3LjAnLCAnLXRuJywgJzgnLCAnLW1hJywgJzIwMCcsICctaW1hZScsICc8aW5maWxlLm1hZT4nLCAnLW9tYWUnLCAnPG91dGZpbGUubWFlPic=

>  <r_lp_tautomer_probability>  (306) 
1

>  <r_epik_Ionization_Penalty>  (306) 
7.26626e-08

>  <r_epik_Ionization_Penalty_Charging>  (306) 
0

>  <r_epik_Ionization_Penalty_Neutral>  (306) 
7.26626e-08

>  <r_epik_State_Penalty>  (306) 
-0

>  <r_epik_Charging_Adjusted_Penalty>  (306) 
0

>  <i_epik_Tot_Q>  (306) 
0

>  <i_epik_Tot_abs_Q>  (306) 
0

>  <s_lp_Force_Field>  (306) 
OPLS3e

>  <r_lp_Energy>  (306) 
14.33

>  <b_lp_Chiralities_Consistent>  (306) 
1

>  <s_lp_Variant>  (306) 
90:0-1

>  <s_i_glide_gridfile>  (306) 
pfpi4k_grid

>  <i_i_glide_lignum>  (306) 
4

>  <i_i_glide_rotatable_bonds>  (306) 
2

>  <r_i_docking_score>  (306) 
-5.41716

>  <r_i_glide_ligand_efficiency>  (306) 
-0.45143

>  <r_i_glide_ligand_efficiency_sa>  (306) 
-1.03352

>  <r_i_glide_ligand_efficiency_ln>  (306) 
-1.55446

>  <r_i_glide_gscore>  (306) 
-5.41716

>  <r_i_glide_lipo>  (306) 
-1.26476

>  <r_i_glide_hbond>  (306) 
-0.296855

>  <r_i_glide_metal>  (306) 
-0

>  <r_i_glide_rewards>  (306) 
-2.48333

>  <r_i_glide_evdw>  (306) 
-14.6387

>  <r_i_glide_ecoul>  (306) 
-4.26856

>  <r_i_glide_erotb>  (306) 
0

>  <r_i_glide_esite>  (306) 
0

>  <r_i_glide_emodel>  (306) 
-25.0576

>  <r_i_glide_energy>  (306) 
-18.9073

>  <r_i_glide_einternal>  (306) 
0.61511

>  <r_i_glide_intrahb_reward>  (306) 
-0

>  <i_i_glide_confnum>  (306) 
1

>  <i_i_glide_posenum>  (306) 
6

>  <r_i_glide_eff_state_penalty>  (306) 
0

>  <ligand_id>  (306) 
90

>  <original_smiles>  (306) 
CC1(CO)CC2C=CC=CC2O1

>  <smiles>  (306) 
[H]OC([H])([H])C1(C([H])([H])[H])OC2([H])C([H])=C([H])C([H])=C([H])C2([H])C1([H])[H]

$$$$
90:0:1
     RDKit          3D

 26 27  0  0  1  0  0  0  0  0999 V2000
   -6.8999   -4.5873   -6.4700 C   0  0  0  0  0  0  0  0  0  0  0  0
   -6.7241   -5.6145   -5.3751 C   0  0  1  0  0  0  0  0  0  0  0  0
   -6.8354   -4.9745   -3.9918 C   0  0  0  0  0  0  0  0  0  0  0  0
   -5.9970   -3.8640   -3.9841 O   0  0  0  0  0  0  0  0  0  0  0  0
   -7.7845   -6.6993   -5.6508 C   0  0  0  0  0  0  0  0  0  0  0  0
   -6.9249   -7.9097   -5.4887 C   0  0  1  0  0  0  0  0  0  0  0  0
   -7.3481   -9.3097   -5.9552 C   0  0  0  0  0  0  0  0  0  0  0  0
   -6.3947  -10.2466   -6.1941 C   0  0  0  0  0  0  0  0  0  0  0  0
   -4.9955   -9.9075   -5.9822 C   0  0  0  0  0  0  0  0  0  0  0  0
   -4.6106   -8.6096   -5.9222 C   0  0  0  0  0  0  0  0  0  0  0  0
   -5.6337   -7.5092   -6.1401 C   0  0  2  0  0  0  0  0  0  0  0  0
   -5.4311   -6.2733   -5.4644 O   0  0  0  0  0  0  0  0  0  0  0  0
   -7.8048   -3.9795   -6.4273 H   0  0  0  0  0  0  0  0  0  0  0  0
   -7.0306   -5.2171   -7.3348 H   0  0  0  0  0  0  0  0  0  0  0  0
   -6.0298   -3.9224   -6.5167 H   0  0  0  0  0  0  0  0  0  0  0  0
   -7.8593   -4.6149   -3.8178 H   0  0  0  0  0  0  0  0  0  0  0  0
   -6.5698   -5.6757   -3.1808 H   0  0  0  0  0  0  0  0  0  0  0  0
   -6.1616   -3.3522   -3.2012 H   0  0  0  0  0  0  0  0  0  0  0  0
   -8.5594   -6.6217   -4.9111 H   0  0  0  0  0  0  0  0  0  0  0  0
   -8.2498   -6.6816   -6.6600 H   0  0  0  0  0  0  0  0  0  0  0  0
   -6.7558   -7.8457   -4.4163 H   0  0  0  0  0  0  0  0  0  0  0  0
   -8.3880   -9.5688   -6.0546 H   0  0  0  0  0  0  0  0  0  0  0  0
   -6.6642  -11.2475   -6.4939 H   0  0  0  0  0  0  0  0  0  0  0  0
   -4.2570  -10.6931   -5.8488 H   0  0  0  0  0  0  0  0  0  0  0  0
   -3.5900   -8.3263   -5.7628 H   0  0  0  0  0  0  0  0  0  0  0  0
   -5.7689   -7.3639   -7.2131 H   0  0  0  0  0  0  0  0  0  0  0  0
  2  1  1  6
  1 13  1  0
  1 14  1  0
  1 15  1  0
  2 12  1  0
  2  3  1  0
  2  5  1  0
  3  4  1  0
  3 16  1  0
  3 17  1  0
  4 18  1  0
  5  6  1  0
  5 19  1  0
  5 20  1  0
  6 11  1  0
  6  7  1  0
  6 21  1  1
  7  8  2  0
  7 22  1  0
  8  9  1  0
  8 23  1  0
  9 10  2  0
  9 24  1  0
 10 11  1  0
 10 25  1  0
 11 12  1  0
 11 26  1  6
M  END
>  <i_m_ct_stereo_status>  (307) 
1

>  <s_m_source_file>  (307) 
/var/tmp/pbs.5076255.sched01/tmpp4327t_d/123x5hmlc3y.sdf

>  <i_m_source_file_index>  (307) 
4

>  <i_lp_mmshare_version>  (307) 
48012

>  <i_f3d_flags>  (307) 
0

>  <s_epik_input>  (307) 
W09IXVtDSDJdW0NAXShbQ0gzXSkoW0NIMl0xKU9bQ0BIXShbQ0BASF0xMilbQ0hdPVtDSF1bQ0hdPVtDSF0y

>  <s_epik_cmdline>  (307) 
J2VwaWtfcHl0aG9uJywgJy1waHQnLCAnMi4wJywgJy1waCcsICc3LjAnLCAnLXRuJywgJzgnLCAnLW1hJywgJzIwMCcsICctaW1hZScsICc8aW5maWxlLm1hZT4nLCAnLW9tYWUnLCAnPG91dGZpbGUubWFlPic=

>  <r_lp_tautomer_probability>  (307) 
1

>  <r_epik_Ionization_Penalty>  (307) 
7.26626e-08

>  <r_epik_Ionization_Penalty_Charging>  (307) 
0

>  <r_epik_Ionization_Penalty_Neutral>  (307) 
7.26626e-08

>  <r_epik_State_Penalty>  (307) 
-0

>  <r_epik_Charging_Adjusted_Penalty>  (307) 
0

>  <i_epik_Tot_Q>  (307) 
0

>  <i_epik_Tot_abs_Q>  (307) 
0

>  <s_lp_Force_Field>  (307) 
OPLS3e

>  <r_lp_Energy>  (307) 
14.33

>  <b_lp_Chiralities_Consistent>  (307) 
1

>  <s_lp_Variant>  (307) 
90:0-1

>  <s_i_glide_gridfile>  (307) 
pfpi4k_grid

>  <i_i_glide_lignum>  (307) 
4

>  <i_i_glide_rotatable_bonds>  (307) 
2

>  <r_i_docking_score>  (307) 
-5.29234

>  <r_i_glide_ligand_efficiency>  (307) 
-0.441028

>  <r_i_glide_ligand_efficiency_sa>  (307) 
-1.0097

>  <r_i_glide_ligand_efficiency_ln>  (307) 
-1.51864

>  <r_i_glide_gscore>  (307) 
-5.29234

>  <r_i_glide_lipo>  (307) 
-2.00454

>  <r_i_glide_hbond>  (307) 
0

>  <r_i_glide_metal>  (307) 
-0

>  <r_i_glide_rewards>  (307) 
-2.79132

>  <r_i_glide_evdw>  (307) 
-4.18974

>  <r_i_glide_ecoul>  (307) 
-1.91327

>  <r_i_glide_erotb>  (307) 
0

>  <r_i_glide_esite>  (307) 
0

>  <r_i_glide_emodel>  (307) 
-10.0703

>  <r_i_glide_energy>  (307) 
-6.10301

>  <r_i_glide_einternal>  (307) 
2.06489

>  <r_i_glide_intrahb_reward>  (307) 
-0

>  <i_i_glide_confnum>  (307) 
1

>  <i_i_glide_posenum>  (307) 
2

>  <r_i_glide_eff_state_penalty>  (307) 
0

>  <ligand_id>  (307) 
90

>  <original_smiles>  (307) 
CC1(CO)CC2C=CC=CC2O1

>  <smiles>  (307) 
[H]OC([H])([H])C1(C([H])([H])[H])OC2([H])C([H])=C([H])C([H])=C([H])C2([H])C1([H])[H]

$$$$
90:0:2
     RDKit          3D

 26 27  0  0  1  0  0  0  0  0999 V2000
    2.7735   -2.7699    1.2411 C   0  0  0  0  0  0  0  0  0  0  0  0
    3.6056   -3.8403    0.5188 C   0  0  1  0  0  0  0  0  0  0  0  0
    2.9150   -5.2246    0.5812 C   0  0  0  0  0  0  0  0  0  0  0  0
    1.8128   -5.3203   -0.3044 O   0  0  0  0  0  0  0  0  0  0  0  0
    4.0130   -3.3871   -0.9209 C   0  0  0  0  0  0  0  0  0  0  0  0
    5.4940   -3.6908   -0.8996 C   0  0  1  0  0  0  0  0  0  0  0  0
    6.4629   -3.0521   -1.8775 C   0  0  0  0  0  0  0  0  0  0  0  0
    7.7609   -2.9415   -1.5145 C   0  0  0  0  0  0  0  0  0  0  0  0
    8.1940   -3.3953   -0.1942 C   0  0  0  0  0  0  0  0  0  0  0  0
    7.2883   -3.5782    0.7882 C   0  0  0  0  0  0  0  0  0  0  0  0
    5.8313   -3.2805    0.5151 C   0  0  2  0  0  0  0  0  0  0  0  0
    4.8468   -3.9940    1.2366 O   0  0  0  0  0  0  0  0  0  0  0  0
    1.8185   -2.6098    0.7425 H   0  0  0  0  0  0  0  0  0  0  0  0
    3.2937   -1.8123    1.2685 H   0  0  0  0  0  0  0  0  0  0  0  0
    2.5697   -3.0615    2.2710 H   0  0  0  0  0  0  0  0  0  0  0  0
    3.6178   -6.0199    0.3329 H   0  0  0  0  0  0  0  0  0  0  0  0
    2.5689   -5.4223    1.5979 H   0  0  0  0  0  0  0  0  0  0  0  0
    2.1716   -5.4338   -1.1886 H   0  0  0  0  0  0  0  0  0  0  0  0
    3.4995   -3.9160   -1.7218 H   0  0  0  0  0  0  0  0  0  0  0  0
    3.8347   -2.3217   -1.0646 H   0  0  0  0  0  0  0  0  0  0  0  0
    5.6189   -4.7702   -0.9999 H   0  0  0  0  0  0  0  0  0  0  0  0
    6.1002   -2.7475   -2.8482 H   0  0  0  0  0  0  0  0  0  0  0  0
    8.4944   -2.5372   -2.2020 H   0  0  0  0  0  0  0  0  0  0  0  0
    9.2404   -3.5932   -0.0156 H   0  0  0  0  0  0  0  0  0  0  0  0
    7.5657   -3.9205    1.7722 H   0  0  0  0  0  0  0  0  0  0  0  0
    5.6772   -2.2079    0.6665 H   0  0  0  0  0  0  0  0  0  0  0  0
  2  1  1  1
  1 13  1  0
  1 14  1  0
  1 15  1  0
  2 12  1  0
  2  3  1  0
  2  5  1  0
  3  4  1  0
  3 16  1  0
  3 17  1  0
  4 18  1  0
  5  6  1  0
  5 19  1  0
  5 20  1  0
  6 11  1  0
  6  7  1  0
  6 21  1  1
  7  8  2  0
  7 22  1  0
  8  9  1  0
  8 23  1  0
  9 10  2  0
  9 24  1  0
 10 11  1  0
 10 25  1  0
 11 12  1  0
 11 26  1  6
M  END
>  <i_m_ct_stereo_status>  (308) 
1

>  <s_m_source_file>  (308) 
/var/tmp/pbs.5076255.sched01/tmpp4327t_d/123x5hmlc3y.sdf

>  <i_m_source_file_index>  (308) 
4

>  <i_lp_mmshare_version>  (308) 
48012

>  <i_f3d_flags>  (308) 
0

>  <s_epik_input>  (308) 
W09IXVtDSDJdW0NAXShbQ0gzXSkoW0NIMl0xKU9bQ0BIXShbQ0BASF0xMilbQ0hdPVtDSF1bQ0hdPVtDSF0y

>  <s_epik_cmdline>  (308) 
J2VwaWtfcHl0aG9uJywgJy1waHQnLCAnMi4wJywgJy1waCcsICc3LjAnLCAnLXRuJywgJzgnLCAnLW1hJywgJzIwMCcsICctaW1hZScsICc8aW5maWxlLm1hZT4nLCAnLW9tYWUnLCAnPG91dGZpbGUubWFlPic=

>  <r_lp_tautomer_probability>  (308) 
1

>  <r_epik_Ionization_Penalty>  (308) 
7.26626e-08

>  <r_epik_Ionization_Penalty_Charging>  (308) 
0

>  <r_epik_Ionization_Penalty_Neutral>  (308) 
7.26626e-08

>  <r_epik_State_Penalty>  (308) 
-0

>  <r_epik_Charging_Adjusted_Penalty>  (308) 
0

>  <i_epik_Tot_Q>  (308) 
0

>  <i_epik_Tot_abs_Q>  (308) 
0

>  <s_lp_Force_Field>  (308) 
OPLS3e

>  <r_lp_Energy>  (308) 
14.33

>  <b_lp_Chiralities_Consistent>  (308) 
1

>  <s_lp_Variant>  (308) 
90:0-1

>  <s_i_glide_gridfile>  (308) 
pfpi4k_grid

>  <i_i_glide_lignum>  (308) 
4

>  <i_i_glide_rotatable_bonds>  (308) 
2

>  <r_i_docking_score>  (308) 
-4.70524

>  <r_i_glide_ligand_efficiency>  (308) 
-0.392103

>  <r_i_glide_ligand_efficiency_sa>  (308) 
-0.897692

>  <r_i_glide_ligand_efficiency_ln>  (308) 
-1.35018

>  <r_i_glide_gscore>  (308) 
-4.70524

>  <r_i_glide_lipo>  (308) 
-0.509834

>  <r_i_glide_hbond>  (308) 
-0.362673

>  <r_i_glide_metal>  (308) 
-0

>  <r_i_glide_rewards>  (308) 
-2.25

>  <r_i_glide_evdw>  (308) 
-11.7652

>  <r_i_glide_ecoul>  (308) 
-6.6298

>  <r_i_glide_erotb>  (308) 
0

>  <r_i_glide_esite>  (308) 
0

>  <r_i_glide_emodel>  (308) 
-23.7032

>  <r_i_glide_energy>  (308) 
-18.395

>  <r_i_glide_einternal>  (308) 
0.570206

>  <r_i_glide_intrahb_reward>  (308) 
-0

>  <i_i_glide_confnum>  (308) 
1

>  <i_i_glide_posenum>  (308) 
39

>  <r_i_glide_eff_state_penalty>  (308) 
0

>  <ligand_id>  (308) 
90

>  <original_smiles>  (308) 
CC1(CO)CC2C=CC=CC2O1

>  <smiles>  (308) 
[H]OC([H])([H])C1(C([H])([H])[H])OC2([H])C([H])=C([H])C([H])=C([H])C2([H])C1([H])[H]

$$$$
92:0:0
     RDKit          3D

 30 32  0  0  1  0  0  0  0  0999 V2000
    7.3923   -6.2033    2.8904 C   0  0  0  0  0  0  0  0  0  0  0  0
    6.2739   -5.7168    3.4453 N   0  0  0  0  0  0  0  0  0  0  0  0
    5.6731   -4.7452    2.6461 N   0  0  0  0  0  0  0  0  0  0  0  0
    6.3529   -4.5247    1.5097 C   0  0  0  0  0  0  0  0  0  0  0  0
    5.9783   -3.5878    0.5385 N   0  0  0  0  0  0  0  0  0  0  0  0
    4.8293   -2.6719    0.6243 C   0  0  0  0  0  0  0  0  0  0  0  0
    3.8498   -2.8343   -0.5544 C   0  0  0  0  0  0  0  0  0  0  0  0
    4.5512   -2.6966   -1.9234 C   0  0  0  0  0  0  0  0  0  0  0  0
    3.6434   -3.0364   -3.1163 C   0  0  0  0  0  0  0  0  0  0  0  0
    3.0273   -1.7076   -3.4387 C   0  0  0  0  0  0  0  0  0  0  0  0
    4.1691   -0.7483   -3.1376 C   0  0  0  0  0  0  0  0  0  0  0  0
    4.9411   -1.3350   -2.1036 O   0  0  0  0  0  0  0  0  0  0  0  0
    5.7953   -3.5806   -1.9313 C   0  0  0  0  0  0  0  0  0  0  0  0
    6.6900   -3.3451   -0.7140 C   0  0  0  0  0  0  0  0  0  0  0  0
    7.8118   -5.5107    1.3321 S   0  0  0  0  0  0  0  0  0  0  0  0
    7.9743   -6.9610    3.4027 H   0  0  0  0  0  0  0  0  0  0  0  0
    4.2940   -2.8447    1.5543 H   0  0  0  0  0  0  0  0  0  0  0  0
    5.2052   -1.6424    0.6623 H   0  0  0  0  0  0  0  0  0  0  0  0
    3.3815   -3.8210   -0.4749 H   0  0  0  0  0  0  0  0  0  0  0  0
    3.0428   -2.1059   -0.4670 H   0  0  0  0  0  0  0  0  0  0  0  0
    4.2371   -3.3741   -3.9678 H   0  0  0  0  0  0  0  0  0  0  0  0
    2.9088   -3.8205   -2.8935 H   0  0  0  0  0  0  0  0  0  0  0  0
    2.6818   -1.6412   -4.4738 H   0  0  0  0  0  0  0  0  0  0  0  0
    2.2039   -1.5213   -2.7636 H   0  0  0  0  0  0  0  0  0  0  0  0
    4.7902   -0.6670   -4.0315 H   0  0  0  0  0  0  0  0  0  0  0  0
    3.8297    0.2521   -2.8684 H   0  0  0  0  0  0  0  0  0  0  0  0
    5.4514   -4.6203   -1.9276 H   0  0  0  0  0  0  0  0  0  0  0  0
    6.3754   -3.4326   -2.8372 H   0  0  0  0  0  0  0  0  0  0  0  0
    7.1080   -2.3336   -0.7175 H   0  0  0  0  0  0  0  0  0  0  0  0
    7.5335   -4.0233   -0.8081 H   0  0  0  0  0  0  0  0  0  0  0  0
  1 15  1  0
  1  2  2  0
  1 16  1  0
  2  3  1  0
  3  4  2  0
  4  5  1  0
  4 15  1  0
  5 14  1  0
  5  6  1  0
  6  7  1  0
  6 17  1  0
  6 18  1  0
  7  8  1  0
  7 19  1  0
  7 20  1  0
  8 12  1  0
  8  9  1  0
  8 13  1  0
  9 10  1  0
  9 21  1  0
  9 22  1  0
 10 11  1  0
 10 23  1  0
 10 24  1  0
 11 12  1  0
 11 25  1  0
 11 26  1  0
 13 14  1  0
 13 27  1  0
 13 28  1  0
 14 29  1  0
 14 30  1  0
M  END
>  <i_m_ct_stereo_status>  (309) 
1

>  <s_m_source_file>  (309) 
/var/tmp/pbs.5076255.sched01/tmpp4327t_d/123x5hmlc3y.sdf

>  <i_m_source_file_index>  (309) 
6

>  <i_lp_mmshare_version>  (309) 
48012

>  <i_f3d_flags>  (309) 
0

>  <s_epik_input>  (309) 
czFbY0hdbm5jMU4oW0NIMl1bQ0gyXTIpW0NIMl1bQ0gyXUMyM1tDSDJdW0NIMl1bQ0gyXU8z

>  <s_epik_cmdline>  (309) 
J2VwaWtfcHl0aG9uJywgJy1waHQnLCAnMi4wJywgJy1waCcsICc3LjAnLCAnLXRuJywgJzgnLCAnLW1hJywgJzIwMCcsICctaW1hZScsICc8aW5maWxlLm1hZT4nLCAnLW9tYWUnLCAnPG91dGZpbGUubWFlPic=

>  <r_lp_tautomer_probability>  (309) 
1

>  <r_epik_Ionization_Penalty>  (309) 
1.18335e-06

>  <r_epik_Ionization_Penalty_Charging>  (309) 
0

>  <r_epik_Ionization_Penalty_Neutral>  (309) 
1.18335e-06

>  <r_epik_State_Penalty>  (309) 
-0

>  <r_epik_Charging_Adjusted_Penalty>  (309) 
0

>  <i_epik_Tot_Q>  (309) 
0

>  <i_epik_Tot_abs_Q>  (309) 
0

>  <s_lp_Force_Field>  (309) 
OPLS3e

>  <r_lp_Energy>  (309) 
15.7501

>  <b_lp_Chiralities_Consistent>  (309) 
1

>  <s_lp_Variant>  (309) 
92:0-1

>  <s_i_glide_gridfile>  (309) 
pfpi4k_grid

>  <i_i_glide_lignum>  (309) 
6

>  <i_i_glide_rotatable_bonds>  (309) 
1

>  <r_i_docking_score>  (309) 
-3.74904

>  <r_i_glide_ligand_efficiency>  (309) 
-0.249936

>  <r_i_glide_ligand_efficiency_sa>  (309) 
-0.616396

>  <r_i_glide_ligand_efficiency_ln>  (309) 
-1.01106

>  <r_i_glide_gscore>  (309) 
-3.74904

>  <r_i_glide_lipo>  (309) 
-0.847157

>  <r_i_glide_hbond>  (309) 
0

>  <r_i_glide_metal>  (309) 
-0

>  <r_i_glide_rewards>  (309) 
-1.97383

>  <r_i_glide_evdw>  (309) 
-21.9152

>  <r_i_glide_ecoul>  (309) 
-1.11037

>  <r_i_glide_erotb>  (309) 
0.334259

>  <r_i_glide_esite>  (309) 
0

>  <r_i_glide_emodel>  (309) 
-28.6179

>  <r_i_glide_energy>  (309) 
-23.0255

>  <r_i_glide_einternal>  (309) 
0.262495

>  <r_i_glide_intrahb_reward>  (309) 
-0

>  <i_i_glide_confnum>  (309) 
6

>  <i_i_glide_posenum>  (309) 
10

>  <r_i_glide_eff_state_penalty>  (309) 
0

>  <ligand_id>  (309) 
92

>  <original_smiles>  (309) 
c1nnc(N2CCC3(CCCO3)CC2)s1

>  <smiles>  (309) 
[H]c1nnc(N2C([H])([H])C([H])([H])C3(OC([H])([H])C([H])([H])C3([H])[H])C([H])([H])C2([H])[H])s1

$$$$
92:0:1
     RDKit          3D

 30 32  0  0  1  0  0  0  0  0999 V2000
    3.6432   -7.6618    1.9049 C   0  0  0  0  0  0  0  0  0  0  0  0
    2.4251   -7.0896    1.9583 N   0  0  0  0  0  0  0  0  0  0  0  0
    2.3909   -5.8759    1.2777 N   0  0  0  0  0  0  0  0  0  0  0  0
    3.5865   -5.5523    0.7422 C   0  0  0  0  0  0  0  0  0  0  0  0
    3.8406   -4.3768    0.0395 N   0  0  0  0  0  0  0  0  0  0  0  0
    2.8511   -3.3318   -0.2605 C   0  0  0  0  0  0  0  0  0  0  0  0
    2.6927   -3.0821   -1.7747 C   0  0  0  0  0  0  0  0  0  0  0  0
    4.0395   -2.7375   -2.4334 C   0  0  0  0  0  0  0  0  0  0  0  0
    3.9341   -2.6461   -3.9534 C   0  0  0  0  0  0  0  0  0  0  0  0
    3.8361   -1.1615   -4.2659 C   0  0  0  0  0  0  0  0  0  0  0  0
    3.8213   -0.4973   -2.9109 C   0  0  0  0  0  0  0  0  0  0  0  0
    4.4829   -1.4398   -2.0713 O   0  0  0  0  0  0  0  0  0  0  0  0
    5.0857   -3.7801   -2.0241 C   0  0  0  0  0  0  0  0  0  0  0  0
    5.1403   -3.9769   -0.5098 C   0  0  0  0  0  0  0  0  0  0  0  0
    4.8619   -6.7571    1.0181 S   0  0  0  0  0  0  0  0  0  0  0  0
    3.8247   -8.6126    2.3898 H   0  0  0  0  0  0  0  0  0  0  0  0
    1.8845   -3.6281    0.1356 H   0  0  0  0  0  0  0  0  0  0  0  0
    3.1333   -2.4052    0.2455 H   0  0  0  0  0  0  0  0  0  0  0  0
    2.2463   -3.9691   -2.2295 H   0  0  0  0  0  0  0  0  0  0  0  0
    1.9623   -2.2979   -1.9557 H   0  0  0  0  0  0  0  0  0  0  0  0
    4.8582   -3.0478   -4.3695 H   0  0  0  0  0  0  0  0  0  0  0  0
    3.1088   -3.2417   -4.3658 H   0  0  0  0  0  0  0  0  0  0  0  0
    4.7298   -0.8434   -4.7938 H   0  0  0  0  0  0  0  0  0  0  0  0
    2.9609   -0.9242   -4.8663 H   0  0  0  0  0  0  0  0  0  0  0  0
    4.3346    0.4593   -2.8845 H   0  0  0  0  0  0  0  0  0  0  0  0
    2.7971   -0.3325   -2.5873 H   0  0  0  0  0  0  0  0  0  0  0  0
    4.8385   -4.7328   -2.4899 H   0  0  0  0  0  0  0  0  0  0  0  0
    6.0712   -3.5021   -2.3821 H   0  0  0  0  0  0  0  0  0  0  0  0
    5.4959   -3.0729   -0.0111 H   0  0  0  0  0  0  0  0  0  0  0  0
    5.8861   -4.7475   -0.3511 H   0  0  0  0  0  0  0  0  0  0  0  0
  1 15  1  0
  1  2  2  0
  1 16  1  0
  2  3  1  0
  3  4  2  0
  4  5  1  0
  4 15  1  0
  5 14  1  0
  5  6  1  0
  6  7  1  0
  6 17  1  0
  6 18  1  0
  7  8  1  0
  7 19  1  0
  7 20  1  0
  8 12  1  0
  8  9  1  0
  8 13  1  0
  9 10  1  0
  9 21  1  0
  9 22  1  0
 10 11  1  0
 10 23  1  0
 10 24  1  0
 11 12  1  0
 11 25  1  0
 11 26  1  0
 13 14  1  0
 13 27  1  0
 13 28  1  0
 14 29  1  0
 14 30  1  0
M  END
>  <i_m_ct_stereo_status>  (310) 
1

>  <s_m_source_file>  (310) 
/var/tmp/pbs.5076255.sched01/tmpp4327t_d/123x5hmlc3y.sdf

>  <i_m_source_file_index>  (310) 
6

>  <i_lp_mmshare_version>  (310) 
48012

>  <i_f3d_flags>  (310) 
0

>  <s_epik_input>  (310) 
czFbY0hdbm5jMU4oW0NIMl1bQ0gyXTIpW0NIMl1bQ0gyXUMyM1tDSDJdW0NIMl1bQ0gyXU8z

>  <s_epik_cmdline>  (310) 
J2VwaWtfcHl0aG9uJywgJy1waHQnLCAnMi4wJywgJy1waCcsICc3LjAnLCAnLXRuJywgJzgnLCAnLW1hJywgJzIwMCcsICctaW1hZScsICc8aW5maWxlLm1hZT4nLCAnLW9tYWUnLCAnPG91dGZpbGUubWFlPic=

>  <r_lp_tautomer_probability>  (310) 
1

>  <r_epik_Ionization_Penalty>  (310) 
1.18335e-06

>  <r_epik_Ionization_Penalty_Charging>  (310) 
0

>  <r_epik_Ionization_Penalty_Neutral>  (310) 
1.18335e-06

>  <r_epik_State_Penalty>  (310) 
-0

>  <r_epik_Charging_Adjusted_Penalty>  (310) 
0

>  <i_epik_Tot_Q>  (310) 
0

>  <i_epik_Tot_abs_Q>  (310) 
0

>  <s_lp_Force_Field>  (310) 
OPLS3e

>  <r_lp_Energy>  (310) 
15.7501

>  <b_lp_Chiralities_Consistent>  (310) 
1

>  <s_lp_Variant>  (310) 
92:0-1

>  <s_i_glide_gridfile>  (310) 
pfpi4k_grid

>  <i_i_glide_lignum>  (310) 
6

>  <i_i_glide_rotatable_bonds>  (310) 
1

>  <r_i_docking_score>  (310) 
-3.27243

>  <r_i_glide_ligand_efficiency>  (310) 
-0.218162

>  <r_i_glide_ligand_efficiency_sa>  (310) 
-0.538033

>  <r_i_glide_ligand_efficiency_ln>  (310) 
-0.88252

>  <r_i_glide_gscore>  (310) 
-3.27243

>  <r_i_glide_lipo>  (310) 
-0.367331

>  <r_i_glide_hbond>  (310) 
0

>  <r_i_glide_metal>  (310) 
-0

>  <r_i_glide_rewards>  (310) 
-1.87288

>  <r_i_glide_evdw>  (310) 
-23.0744

>  <r_i_glide_ecoul>  (310) 
-1.13877

>  <r_i_glide_erotb>  (310) 
0.334259

>  <r_i_glide_esite>  (310) 
-0.0419456

>  <r_i_glide_emodel>  (310) 
-29.0405

>  <r_i_glide_energy>  (310) 
-24.2131

>  <r_i_glide_einternal>  (310) 
0.251007

>  <r_i_glide_intrahb_reward>  (310) 
-0

>  <i_i_glide_confnum>  (310) 
4

>  <i_i_glide_posenum>  (310) 
36

>  <r_i_glide_eff_state_penalty>  (310) 
0

>  <ligand_id>  (310) 
92

>  <original_smiles>  (310) 
c1nnc(N2CCC3(CCCO3)CC2)s1

>  <smiles>  (310) 
[H]c1nnc(N2C([H])([H])C([H])([H])C3(OC([H])([H])C([H])([H])C3([H])[H])C([H])([H])C2([H])[H])s1

$$$$
92:0:2
     RDKit          3D

 30 32  0  0  1  0  0  0  0  0999 V2000
    4.3451   -2.5339    4.8301 C   0  0  0  0  0  0  0  0  0  0  0  0
    5.0035   -1.3816    4.5738 N   0  0  0  0  0  0  0  0  0  0  0  0
    5.3061   -1.2421    3.2271 N   0  0  0  0  0  0  0  0  0  0  0  0
    4.8780   -2.3034    2.4964 C   0  0  0  0  0  0  0  0  0  0  0  0
    5.0672   -2.4368    1.1240 N   0  0  0  0  0  0  0  0  0  0  0  0
    5.8267   -1.5133    0.2676 C   0  0  0  0  0  0  0  0  0  0  0  0
    4.9766   -0.9477   -0.8862 C   0  0  0  0  0  0  0  0  0  0  0  0
    4.3113   -2.0510   -1.7275 C   0  0  0  0  0  0  0  0  0  0  0  0
    3.3624   -1.5155   -2.8050 C   0  0  0  0  0  0  0  0  0  0  0  0
    3.5264   -2.4975   -3.9461 C   0  0  0  0  0  0  0  0  0  0  0  0
    4.6578   -3.4311   -3.5290 C   0  0  0  0  0  0  0  0  0  0  0  0
    5.3116   -2.7107   -2.5044 O   0  0  0  0  0  0  0  0  0  0  0  0
    3.5898   -3.0188   -0.7695 C   0  0  0  0  0  0  0  0  0  0  0  0
    4.5350   -3.5311    0.3071 C   0  0  0  0  0  0  0  0  0  0  0  0
    4.0469   -3.5555    3.4342 S   0  0  0  0  0  0  0  0  0  0  0  0
    4.0405   -2.7738    5.8353 H   0  0  0  0  0  0  0  0  0  0  0  0
    6.2014   -0.6867    0.8645 H   0  0  0  0  0  0  0  0  0  0  0  0
    6.7055   -2.0382   -0.1260 H   0  0  0  0  0  0  0  0  0  0  0  0
    4.2060   -0.2949   -0.4572 H   0  0  0  0  0  0  0  0  0  0  0  0
    5.5886   -0.3092   -1.5211 H   0  0  0  0  0  0  0  0  0  0  0  0
    2.3270   -1.4654   -2.4479 H   0  0  0  0  0  0  0  0  0  0  0  0
    3.6386   -0.4976   -3.1141 H   0  0  0  0  0  0  0  0  0  0  0  0
    2.6039   -3.0434   -4.1391 H   0  0  0  0  0  0  0  0  0  0  0  0
    3.7852   -1.9319   -4.8342 H   0  0  0  0  0  0  0  0  0  0  0  0
    4.2869   -4.3717   -3.1454 H   0  0  0  0  0  0  0  0  0  0  0  0
    5.3381   -3.7019   -4.3339 H   0  0  0  0  0  0  0  0  0  0  0  0
    2.7650   -2.4936   -0.2737 H   0  0  0  0  0  0  0  0  0  0  0  0
    3.1334   -3.8657   -1.2697 H   0  0  0  0  0  0  0  0  0  0  0  0
    5.3593   -4.1112   -0.1220 H   0  0  0  0  0  0  0  0  0  0  0  0
    3.9473   -4.2168    0.9014 H   0  0  0  0  0  0  0  0  0  0  0  0
  1 15  1  0
  1  2  2  0
  1 16  1  0
  2  3  1  0
  3  4  2  0
  4  5  1  0
  4 15  1  0
  5 14  1  0
  5  6  1  0
  6  7  1  0
  6 17  1  0
  6 18  1  0
  7  8  1  0
  7 19  1  0
  7 20  1  0
  8 12  1  0
  8  9  1  0
  8 13  1  0
  9 10  1  0
  9 21  1  0
  9 22  1  0
 10 11  1  0
 10 23  1  0
 10 24  1  0
 11 12  1  0
 11 25  1  0
 11 26  1  0
 13 14  1  0
 13 27  1  0
 13 28  1  0
 14 29  1  0
 14 30  1  0
M  END
>  <i_m_ct_stereo_status>  (311) 
1

>  <s_m_source_file>  (311) 
/var/tmp/pbs.5076255.sched01/tmpp4327t_d/123x5hmlc3y.sdf

>  <i_m_source_file_index>  (311) 
6

>  <i_lp_mmshare_version>  (311) 
48012

>  <i_f3d_flags>  (311) 
0

>  <s_epik_input>  (311) 
czFbY0hdbm5jMU4oW0NIMl1bQ0gyXTIpW0NIMl1bQ0gyXUMyM1tDSDJdW0NIMl1bQ0gyXU8z

>  <s_epik_cmdline>  (311) 
J2VwaWtfcHl0aG9uJywgJy1waHQnLCAnMi4wJywgJy1waCcsICc3LjAnLCAnLXRuJywgJzgnLCAnLW1hJywgJzIwMCcsICctaW1hZScsICc8aW5maWxlLm1hZT4nLCAnLW9tYWUnLCAnPG91dGZpbGUubWFlPic=

>  <r_lp_tautomer_probability>  (311) 
1

>  <r_epik_Ionization_Penalty>  (311) 
1.18335e-06

>  <r_epik_Ionization_Penalty_Charging>  (311) 
0

>  <r_epik_Ionization_Penalty_Neutral>  (311) 
1.18335e-06

>  <r_epik_State_Penalty>  (311) 
-0

>  <r_epik_Charging_Adjusted_Penalty>  (311) 
0

>  <i_epik_Tot_Q>  (311) 
0

>  <i_epik_Tot_abs_Q>  (311) 
0

>  <s_lp_Force_Field>  (311) 
OPLS3e

>  <r_lp_Energy>  (311) 
15.7501

>  <b_lp_Chiralities_Consistent>  (311) 
1

>  <s_lp_Variant>  (311) 
92:0-1

>  <s_i_glide_gridfile>  (311) 
pfpi4k_grid

>  <i_i_glide_lignum>  (311) 
6

>  <i_i_glide_rotatable_bonds>  (311) 
1

>  <r_i_docking_score>  (311) 
-3.16854

>  <r_i_glide_ligand_efficiency>  (311) 
-0.211236

>  <r_i_glide_ligand_efficiency_sa>  (311) 
-0.520953

>  <r_i_glide_ligand_efficiency_ln>  (311) 
-0.854504

>  <r_i_glide_gscore>  (311) 
-3.16854

>  <r_i_glide_lipo>  (311) 
-0.420486

>  <r_i_glide_hbond>  (311) 
0

>  <r_i_glide_metal>  (311) 
-0

>  <r_i_glide_rewards>  (311) 
-1.91934

>  <r_i_glide_evdw>  (311) 
-21.0005

>  <r_i_glide_ecoul>  (311) 
-0.753035

>  <r_i_glide_erotb>  (311) 
0.334259

>  <r_i_glide_esite>  (311) 
0

>  <r_i_glide_emodel>  (311) 
-26.4259

>  <r_i_glide_energy>  (311) 
-21.7535

>  <r_i_glide_einternal>  (311) 
0.278663

>  <r_i_glide_intrahb_reward>  (311) 
-0

>  <i_i_glide_confnum>  (311) 
2

>  <i_i_glide_posenum>  (311) 
3

>  <r_i_glide_eff_state_penalty>  (311) 
0

>  <ligand_id>  (311) 
92

>  <original_smiles>  (311) 
c1nnc(N2CCC3(CCCO3)CC2)s1

>  <smiles>  (311) 
[H]c1nnc(N2C([H])([H])C([H])([H])C3(OC([H])([H])C([H])([H])C3([H])[H])C([H])([H])C2([H])[H])s1

$$$$
93:0:0
     RDKit          3D

 28 29  0  0  1  0  0  0  0  0999 V2000
    4.5463   -7.8314    1.4976 C   0  0  0  0  0  0  0  0  0  0  0  0
    5.6291   -6.7932    1.2441 C   0  0  0  0  0  0  0  0  0  0  0  0
    5.4702   -5.5784    0.6811 C   0  0  0  0  0  0  0  0  0  0  0  0
    4.1800   -5.1904    0.2774 N   0  0  0  0  0  0  0  0  0  0  0  0
    3.9747   -4.0483   -0.2435 C   0  0  0  0  0  0  0  0  0  0  0  0
    2.6681   -3.6001   -0.8537 C   0  0  0  0  0  0  0  0  0  0  0  0
    2.9623   -2.7464   -2.1070 C   0  0  0  0  0  0  0  0  0  0  0  0
    4.7582   -2.4715   -2.1363 S   0  0  0  0  0  0  0  0  0  0  0  0
    5.3813   -3.4336   -3.0476 O   0  0  0  0  0  0  0  0  0  0  0  0
    5.0267   -1.0316   -2.2470 O   0  0  0  0  0  0  0  0  0  0  0  0
    5.0261   -2.9806   -0.4135 C   0  0  2  0  0  0  0  0  0  0  0  0
    6.4359   -3.4672   -0.0866 C   0  0  0  0  0  0  0  0  0  0  0  0
    7.5580   -2.4564   -0.2894 C   0  0  0  0  0  0  0  0  0  0  0  0
    6.6263   -4.6888    0.4533 C   0  0  0  0  0  0  0  0  0  0  0  0
    7.9278   -5.1071    0.8320 C   0  0  0  0  0  0  0  0  0  0  0  0
    9.0123   -5.4197    1.1174 N   0  0  0  0  0  0  0  0  0  0  0  0
    4.4928   -8.0567    2.5603 H   0  0  0  0  0  0  0  0  0  0  0  0
    4.7891   -8.7569    0.9799 H   0  0  0  0  0  0  0  0  0  0  0  0
    3.5601   -7.5098    1.1649 H   0  0  0  0  0  0  0  0  0  0  0  0
    6.6094   -7.1192    1.5638 H   0  0  0  0  0  0  0  0  0  0  0  0
    2.0450   -4.4702   -1.0847 H   0  0  0  0  0  0  0  0  0  0  0  0
    2.1499   -2.9977   -0.1110 H   0  0  0  0  0  0  0  0  0  0  0  0
    2.6712   -3.2774   -3.0155 H   0  0  0  0  0  0  0  0  0  0  0  0
    2.4612   -1.7769   -2.0469 H   0  0  0  0  0  0  0  0  0  0  0  0
    4.7706   -2.1333    0.2216 H   0  0  0  0  0  0  0  0  0  0  0  0
    7.3317   -1.5235    0.2325 H   0  0  0  0  0  0  0  0  0  0  0  0
    7.6978   -2.2560   -1.3520 H   0  0  0  0  0  0  0  0  0  0  0  0
    8.5191   -2.7976    0.0952 H   0  0  0  0  0  0  0  0  0  0  0  0
  1  2  1  0
  1 17  1  0
  1 18  1  0
  1 19  1  0
  2  3  2  3
  2 20  1  0
  3 14  1  0
  3  4  1  0
  4  5  2  0
  5 11  1  0
  5  6  1  0
  6  7  1  0
  6 21  1  0
  6 22  1  0
  7  8  1  0
  7 23  1  0
  7 24  1  0
  8  9  2  0
  8 10  2  0
  8 11  1  0
 11 12  1  0
 11 25  1  1
 12 13  1  0
 12 14  2  0
 13 26  1  0
 13 27  1  0
 13 28  1  0
 14 15  1  0
 15 16  3  0
M  END
>  <i_m_ct_stereo_status>  (312) 
1

>  <s_m_source_file>  (312) 
/var/tmp/pbs.5076255.sched01/tmpp4327t_d/123x5hmlc3y.sdf

>  <i_m_source_file_index>  (312) 
7

>  <i_lp_mmshare_version>  (312) 
48012

>  <i_f3d_flags>  (312) 
0

>  <s_epik_input>  (312) 
W0NIM10vW0NIXT1DKFxOPTEpQyhDI04pPUMoW0NIM10pW0NASF0oQzEyKVMoPU8pKD1PKVtDSDJdW0NIMl0y

>  <s_epik_cmdline>  (312) 
J2VwaWtfcHl0aG9uJywgJy1waHQnLCAnMi4wJywgJy1waCcsICc3LjAnLCAnLXRuJywgJzgnLCAnLW1hJywgJzIwMCcsICctaW1hZScsICc8aW5maWxlLm1hZT4nLCAnLW9tYWUnLCAnPG91dGZpbGUubWFlPic=

>  <r_lp_tautomer_probability>  (312) 
1

>  <r_epik_Ionization_Penalty>  (312) 
0

>  <r_epik_Ionization_Penalty_Charging>  (312) 
0

>  <r_epik_Ionization_Penalty_Neutral>  (312) 
0

>  <r_epik_State_Penalty>  (312) 
-0

>  <r_epik_Charging_Adjusted_Penalty>  (312) 
0

>  <i_epik_Tot_Q>  (312) 
0

>  <i_epik_Tot_abs_Q>  (312) 
0

>  <s_epik_Chemistry_Notes>  (312) 
This compound has an imine and may undergo hydrolysis.

>  <s_lp_Force_Field>  (312) 
OPLS3e

>  <r_lp_Energy>  (312) 
8.92791

>  <b_lp_Chiralities_Consistent>  (312) 
1

>  <s_lp_Variant>  (312) 
93:0-1

>  <s_i_glide_gridfile>  (312) 
pfpi4k_grid

>  <i_i_glide_lignum>  (312) 
7

>  <i_i_glide_rotatable_bonds>  (312) 
1

>  <r_i_docking_score>  (312) 
-4.0721

>  <r_i_glide_ligand_efficiency>  (312) 
-0.254506

>  <r_i_glide_ligand_efficiency_sa>  (312) 
-0.641316

>  <r_i_glide_ligand_efficiency_ln>  (312) 
-1.07939

>  <r_i_glide_gscore>  (312) 
-4.0721

>  <r_i_glide_lipo>  (312) 
-0.464663

>  <r_i_glide_hbond>  (312) 
-0.00623575

>  <r_i_glide_metal>  (312) 
-0

>  <r_i_glide_rewards>  (312) 
-2.04653

>  <r_i_glide_evdw>  (312) 
-22.9965

>  <r_i_glide_ecoul>  (312) 
-2.33406

>  <r_i_glide_erotb>  (312) 
0

>  <r_i_glide_esite>  (312) 
-0.0547441

>  <r_i_glide_emodel>  (312) 
-31.4798

>  <r_i_glide_energy>  (312) 
-25.3306

>  <r_i_glide_einternal>  (312) 
0.727884

>  <r_i_glide_intrahb_reward>  (312) 
-0

>  <i_i_glide_confnum>  (312) 
2

>  <i_i_glide_posenum>  (312) 
1

>  <r_i_glide_eff_state_penalty>  (312) 
0

>  <ligand_id>  (312) 
93

>  <original_smiles>  (312) 
CC=C1N=C2CCS(=O)(=O)C2C(C)=C1C#N

>  <smiles>  (312) 
[H]C(=C1N=C2C([H])([H])C([H])([H])S(=O)(=O)C2([H])C(C([H])([H])[H])=C1C#N)C([H])([H])[H]

$$$$
93:0:1
     RDKit          3D

 28 29  0  0  1  0  0  0  0  0999 V2000
    3.0404   -6.8543    1.7733 C   0  0  0  0  0  0  0  0  0  0  0  0
    4.2055   -5.9369    1.4518 C   0  0  0  0  0  0  0  0  0  0  0  0
    4.2210   -4.9081    0.5771 C   0  0  0  0  0  0  0  0  0  0  0  0
    3.0338   -4.6082   -0.1091 N   0  0  0  0  0  0  0  0  0  0  0  0
    3.0106   -3.6785   -0.9863 C   0  0  0  0  0  0  0  0  0  0  0  0
    1.8748   -3.4576   -1.9564 C   0  0  0  0  0  0  0  0  0  0  0  0
    2.4160   -3.0095   -3.3288 C   0  0  0  0  0  0  0  0  0  0  0  0
    4.1966   -2.7253   -3.1097 S   0  0  0  0  0  0  0  0  0  0  0  0
    4.9235   -3.9040   -3.5967 O   0  0  0  0  0  0  0  0  0  0  0  0
    4.5320   -1.3820   -3.6049 O   0  0  0  0  0  0  0  0  0  0  0  0
    4.1372   -2.7238   -1.2782 C   0  0  2  0  0  0  0  0  0  0  0  0
    5.4333   -3.1305   -0.5851 C   0  0  0  0  0  0  0  0  0  0  0  0
    6.6303   -2.2357   -0.8566 C   0  0  0  0  0  0  0  0  0  0  0  0
    5.4504   -4.1536    0.2964 C   0  0  0  0  0  0  0  0  0  0  0  0
    6.6541   -4.4957    0.9790 C   0  0  0  0  0  0  0  0  0  0  0  0
    7.6330   -4.7786    1.5240 N   0  0  0  0  0  0  0  0  0  0  0  0
    2.7873   -6.7687    2.8285 H   0  0  0  0  0  0  0  0  0  0  0  0
    3.3197   -7.8912    1.5822 H   0  0  0  0  0  0  0  0  0  0  0  0
    2.1478   -6.6393    1.1854 H   0  0  0  0  0  0  0  0  0  0  0  0
    5.1002   -6.1850    1.9942 H   0  0  0  0  0  0  0  0  0  0  0  0
    1.2609   -4.3570   -2.0081 H   0  0  0  0  0  0  0  0  0  0  0  0
    1.2714   -2.6606   -1.5741 H   0  0  0  0  0  0  0  0  0  0  0  0
    2.2517   -3.7628   -4.1005 H   0  0  0  0  0  0  0  0  0  0  0  0
    1.9579   -2.0662   -3.6359 H   0  0  0  0  0  0  0  0  0  0  0  0
    3.8234   -1.7282   -0.9619 H   0  0  0  0  0  0  0  0  0  0  0  0
    6.3453   -1.2026   -0.6490 H   0  0  0  0  0  0  0  0  0  0  0  0
    6.9493   -2.3165   -1.8967 H   0  0  0  0  0  0  0  0  0  0  0  0
    7.4841   -2.4640   -0.2185 H   0  0  0  0  0  0  0  0  0  0  0  0
  1  2  1  0
  1 17  1  0
  1 18  1  0
  1 19  1  0
  2  3  2  3
  2 20  1  0
  3 14  1  0
  3  4  1  0
  4  5  2  0
  5 11  1  0
  5  6  1  0
  6  7  1  0
  6 21  1  0
  6 22  1  0
  7  8  1  0
  7 23  1  0
  7 24  1  0
  8  9  2  0
  8 10  2  0
  8 11  1  0
 11 12  1  0
 11 25  1  1
 12 13  1  0
 12 14  2  0
 13 26  1  0
 13 27  1  0
 13 28  1  0
 14 15  1  0
 15 16  3  0
M  END
>  <i_m_ct_stereo_status>  (313) 
1

>  <s_m_source_file>  (313) 
/var/tmp/pbs.5076255.sched01/tmpp4327t_d/123x5hmlc3y.sdf

>  <i_m_source_file_index>  (313) 
7

>  <i_lp_mmshare_version>  (313) 
48012

>  <i_f3d_flags>  (313) 
0

>  <s_epik_input>  (313) 
W0NIM10vW0NIXT1DKFxOPTEpQyhDI04pPUMoW0NIM10pW0NASF0oQzEyKVMoPU8pKD1PKVtDSDJdW0NIMl0y

>  <s_epik_cmdline>  (313) 
J2VwaWtfcHl0aG9uJywgJy1waHQnLCAnMi4wJywgJy1waCcsICc3LjAnLCAnLXRuJywgJzgnLCAnLW1hJywgJzIwMCcsICctaW1hZScsICc8aW5maWxlLm1hZT4nLCAnLW9tYWUnLCAnPG91dGZpbGUubWFlPic=

>  <r_lp_tautomer_probability>  (313) 
1

>  <r_epik_Ionization_Penalty>  (313) 
0

>  <r_epik_Ionization_Penalty_Charging>  (313) 
0

>  <r_epik_Ionization_Penalty_Neutral>  (313) 
0

>  <r_epik_State_Penalty>  (313) 
-0

>  <r_epik_Charging_Adjusted_Penalty>  (313) 
0

>  <i_epik_Tot_Q>  (313) 
0

>  <i_epik_Tot_abs_Q>  (313) 
0

>  <s_epik_Chemistry_Notes>  (313) 
This compound has an imine and may undergo hydrolysis.

>  <s_lp_Force_Field>  (313) 
OPLS3e

>  <r_lp_Energy>  (313) 
8.92791

>  <b_lp_Chiralities_Consistent>  (313) 
1

>  <s_lp_Variant>  (313) 
93:0-1

>  <s_i_glide_gridfile>  (313) 
pfpi4k_grid

>  <i_i_glide_lignum>  (313) 
7

>  <i_i_glide_rotatable_bonds>  (313) 
1

>  <r_i_docking_score>  (313) 
-3.97245

>  <r_i_glide_ligand_efficiency>  (313) 
-0.248278

>  <r_i_glide_ligand_efficiency_sa>  (313) 
-0.625621

>  <r_i_glide_ligand_efficiency_ln>  (313) 
-1.05298

>  <r_i_glide_gscore>  (313) 
-3.97245

>  <r_i_glide_lipo>  (313) 
-0.493034

>  <r_i_glide_hbond>  (313) 
0

>  <r_i_glide_metal>  (313) 
-0

>  <r_i_glide_rewards>  (313) 
-2.11968

>  <r_i_glide_evdw>  (313) 
-17.4452

>  <r_i_glide_ecoul>  (313) 
-3.24981

>  <r_i_glide_erotb>  (313) 
0

>  <r_i_glide_esite>  (313) 
0

>  <r_i_glide_emodel>  (313) 
-26.6655

>  <r_i_glide_energy>  (313) 
-20.6951

>  <r_i_glide_einternal>  (313) 
0.74765

>  <r_i_glide_intrahb_reward>  (313) 
-0

>  <i_i_glide_confnum>  (313) 
1

>  <i_i_glide_posenum>  (313) 
9

>  <r_i_glide_eff_state_penalty>  (313) 
0

>  <ligand_id>  (313) 
93

>  <original_smiles>  (313) 
CC=C1N=C2CCS(=O)(=O)C2C(C)=C1C#N

>  <smiles>  (313) 
[H]C(=C1N=C2C([H])([H])C([H])([H])S(=O)(=O)C2([H])C(C([H])([H])[H])=C1C#N)C([H])([H])[H]

$$$$
93:0:2
     RDKit          3D

 28 29  0  0  1  0  0  0  0  0999 V2000
    3.1152   -0.2595    1.1563 C   0  0  0  0  0  0  0  0  0  0  0  0
    2.3783   -1.1247    2.1618 C   0  0  0  0  0  0  0  0  0  0  0  0
    1.3645   -0.7528    2.9668 C   0  0  0  0  0  0  0  0  0  0  0  0
    0.9054    0.5708    2.8865 N   0  0  0  0  0  0  0  0  0  0  0  0
   -0.0676    0.9711    3.5953 C   0  0  0  0  0  0  0  0  0  0  0  0
   -0.5334    2.4140    3.6944 C   0  0  0  0  0  0  0  0  0  0  0  0
   -0.9524    2.7015    5.1566 C   0  0  0  0  0  0  0  0  0  0  0  0
   -0.9153    1.1033    6.0425 S   0  0  0  0  0  0  0  0  0  0  0  0
    0.3760    0.9757    6.7455 O   0  0  0  0  0  0  0  0  0  0  0  0
   -2.1810    0.8771    6.7553 O   0  0  0  0  0  0  0  0  0  0  0  0
   -0.8699    0.0927    4.5292 C   0  0  2  0  0  0  0  0  0  0  0  0
   -0.2659   -1.2979    4.7079 C   0  0  0  0  0  0  0  0  0  0  0  0
   -0.9742   -2.2146    5.6976 C   0  0  0  0  0  0  0  0  0  0  0  0
    0.7782   -1.6832    3.9390 C   0  0  0  0  0  0  0  0  0  0  0  0
    1.2931   -3.0099    4.0457 C   0  0  0  0  0  0  0  0  0  0  0  0
    1.6858   -4.1022    4.1019 N   0  0  0  0  0  0  0  0  0  0  0  0
    3.0116   -0.6866    0.1600 H   0  0  0  0  0  0  0  0  0  0  0  0
    4.1782   -0.2197    1.3926 H   0  0  0  0  0  0  0  0  0  0  0  0
    2.7366    0.7625    1.1217 H   0  0  0  0  0  0  0  0  0  0  0  0
    2.7562   -2.1389    2.1985 H   0  0  0  0  0  0  0  0  0  0  0  0
    0.2544    3.0855    3.3472 H   0  0  0  0  0  0  0  0  0  0  0  0
   -1.3893    2.5340    3.0326 H   0  0  0  0  0  0  0  0  0  0  0  0
   -0.2449    3.3707    5.6402 H   0  0  0  0  0  0  0  0  0  0  0  0
   -1.9705    3.1074    5.2131 H   0  0  0  0  0  0  0  0  0  0  0  0
   -1.8913    0.0254    4.1565 H   0  0  0  0  0  0  0  0  0  0  0  0
   -2.0384   -2.2476    5.4649 H   0  0  0  0  0  0  0  0  0  0  0  0
   -0.8532   -1.8568    6.7185 H   0  0  0  0  0  0  0  0  0  0  0  0
   -0.6004   -3.2355    5.6583 H   0  0  0  0  0  0  0  0  0  0  0  0
  1  2  1  0
  1 17  1  0
  1 18  1  0
  1 19  1  0
  2  3  2  3
  2 20  1  0
  3 14  1  0
  3  4  1  0
  4  5  2  0
  5 11  1  0
  5  6  1  0
  6  7  1  0
  6 21  1  0
  6 22  1  0
  7  8  1  0
  7 23  1  0
  7 24  1  0
  8  9  2  0
  8 10  2  0
  8 11  1  0
 11 12  1  0
 11 25  1  6
 12 13  1  0
 12 14  2  0
 13 26  1  0
 13 27  1  0
 13 28  1  0
 14 15  1  0
 15 16  3  0
M  END
>  <i_m_ct_stereo_status>  (314) 
1

>  <s_m_source_file>  (314) 
/var/tmp/pbs.5076255.sched01/tmpp4327t_d/123x5hmlc3y.sdf

>  <i_m_source_file_index>  (314) 
7

>  <i_lp_mmshare_version>  (314) 
48012

>  <i_f3d_flags>  (314) 
0

>  <s_epik_input>  (314) 
W0NIM10vW0NIXT1DKFxOPTEpQyhDI04pPUMoW0NIM10pW0NASF0oQzEyKVMoPU8pKD1PKVtDSDJdW0NIMl0y

>  <s_epik_cmdline>  (314) 
J2VwaWtfcHl0aG9uJywgJy1waHQnLCAnMi4wJywgJy1waCcsICc3LjAnLCAnLXRuJywgJzgnLCAnLW1hJywgJzIwMCcsICctaW1hZScsICc8aW5maWxlLm1hZT4nLCAnLW9tYWUnLCAnPG91dGZpbGUubWFlPic=

>  <r_lp_tautomer_probability>  (314) 
1

>  <r_epik_Ionization_Penalty>  (314) 
0

>  <r_epik_Ionization_Penalty_Charging>  (314) 
0

>  <r_epik_Ionization_Penalty_Neutral>  (314) 
0

>  <r_epik_State_Penalty>  (314) 
-0

>  <r_epik_Charging_Adjusted_Penalty>  (314) 
0

>  <i_epik_Tot_Q>  (314) 
0

>  <i_epik_Tot_abs_Q>  (314) 
0

>  <s_epik_Chemistry_Notes>  (314) 
This compound has an imine and may undergo hydrolysis.

>  <s_lp_Force_Field>  (314) 
OPLS3e

>  <r_lp_Energy>  (314) 
8.92791

>  <b_lp_Chiralities_Consistent>  (314) 
1

>  <s_lp_Variant>  (314) 
93:0-1

>  <s_i_glide_gridfile>  (314) 
pfpi4k_grid

>  <i_i_glide_lignum>  (314) 
7

>  <i_i_glide_rotatable_bonds>  (314) 
1

>  <r_i_docking_score>  (314) 
-3.48401

>  <r_i_glide_ligand_efficiency>  (314) 
-0.21775

>  <r_i_glide_ligand_efficiency_sa>  (314) 
-0.548697

>  <r_i_glide_ligand_efficiency_ln>  (314) 
-0.923505

>  <r_i_glide_gscore>  (314) 
-3.48401

>  <r_i_glide_lipo>  (314) 
0

>  <r_i_glide_hbond>  (314) 
0

>  <r_i_glide_metal>  (314) 
-0

>  <r_i_glide_rewards>  (314) 
-1.83413

>  <r_i_glide_evdw>  (314) 
-16.4414

>  <r_i_glide_ecoul>  (314) 
-4.503

>  <r_i_glide_erotb>  (314) 
0

>  <r_i_glide_esite>  (314) 
-0.15236

>  <r_i_glide_emodel>  (314) 
-26.1558

>  <r_i_glide_energy>  (314) 
-20.9444

>  <r_i_glide_einternal>  (314) 
0.748338

>  <r_i_glide_intrahb_reward>  (314) 
-0

>  <i_i_glide_confnum>  (314) 
1

>  <i_i_glide_posenum>  (314) 
3

>  <r_i_glide_eff_state_penalty>  (314) 
0

>  <ligand_id>  (314) 
93

>  <original_smiles>  (314) 
CC=C1N=C2CCS(=O)(=O)C2C(C)=C1C#N

>  <smiles>  (314) 
[H]C(=C1N=C2C([H])([H])C([H])([H])S(=O)(=O)C2([H])C(C([H])([H])[H])=C1C#N)C([H])([H])[H]

$$$$
93:1:0
     RDKit          3D

 28 29  0  0  1  0  0  0  0  0999 V2000
    2.3388   -3.2460   -2.0865 C   0  0  0  0  0  0  0  0  0  0  0  0
    1.7082   -4.2448   -1.1361 C   0  0  0  0  0  0  0  0  0  0  0  0
    2.2970   -5.0309   -0.2069 C   0  0  0  0  0  0  0  0  0  0  0  0
    1.4042   -5.8723    0.4767 N   0  0  0  0  0  0  0  0  0  0  0  0
    1.8248   -6.7621    1.2822 C   0  0  0  0  0  0  0  0  0  0  0  0
    0.9292   -7.6281    2.1455 C   0  0  0  0  0  0  0  0  0  0  0  0
    1.5964   -7.8259    3.5226 C   0  0  0  0  0  0  0  0  0  0  0  0
    3.2756   -7.1030    3.3992 S   0  0  0  0  0  0  0  0  0  0  0  0
    3.2400   -5.7367    3.9376 O   0  0  0  0  0  0  0  0  0  0  0  0
    4.2635   -8.0817    3.8717 O   0  0  0  0  0  0  0  0  0  0  0  0
    3.2848   -7.0318    1.5720 C   0  0  2  0  0  0  0  0  0  0  0  0
    4.2163   -5.9818    0.9727 C   0  0  0  0  0  0  0  0  0  0  0  0
    5.6935   -6.1267    1.3234 C   0  0  0  0  0  0  0  0  0  0  0  0
    3.7362   -5.0535    0.1109 C   0  0  0  0  0  0  0  0  0  0  0  0
    4.6347   -4.1054   -0.4683 C   0  0  0  0  0  0  0  0  0  0  0  0
    5.3957   -3.3448   -0.9064 N   0  0  0  0  0  0  0  0  0  0  0  0
    1.6165   -2.9848   -2.8587 H   0  0  0  0  0  0  0  0  0  0  0  0
    3.2003   -3.6701   -2.5944 H   0  0  0  0  0  0  0  0  0  0  0  0
    2.6198   -2.3329   -1.5690 H   0  0  0  0  0  0  0  0  0  0  0  0
    0.6388   -4.3222   -1.2706 H   0  0  0  0  0  0  0  0  0  0  0  0
   -0.0649   -7.1855    2.2336 H   0  0  0  0  0  0  0  0  0  0  0  0
    0.8172   -8.6009    1.6618 H   0  0  0  0  0  0  0  0  0  0  0  0
    1.0570   -7.3203    4.3222 H   0  0  0  0  0  0  0  0  0  0  0  0
    1.6952   -8.8848    3.7647 H   0  0  0  0  0  0  0  0  0  0  0  0
    3.5486   -8.0263    1.2135 H   0  0  0  0  0  0  0  0  0  0  0  0
    6.0261   -7.1435    1.1105 H   0  0  0  0  0  0  0  0  0  0  0  0
    5.8639   -5.9211    2.3808 H   0  0  0  0  0  0  0  0  0  0  0  0
    6.3335   -5.4592    0.7456 H   0  0  0  0  0  0  0  0  0  0  0  0
  1  2  1  0
  1 17  1  0
  1 18  1  0
  1 19  1  0
  2  3  2  3
  2 20  1  0
  3 14  1  0
  3  4  1  0
  4  5  2  0
  5 11  1  0
  5  6  1  0
  6  7  1  0
  6 21  1  0
  6 22  1  0
  7  8  1  0
  7 23  1  0
  7 24  1  0
  8  9  2  0
  8 10  2  0
  8 11  1  0
 11 12  1  0
 11 25  1  6
 12 13  1  0
 12 14  2  0
 13 26  1  0
 13 27  1  0
 13 28  1  0
 14 15  1  0
 15 16  3  0
M  END
>  <i_m_ct_stereo_status>  (315) 
1

>  <s_m_source_file>  (315) 
/var/tmp/pbs.5076255.sched01/tmpp4327t_d/123x5hmlc3y.sdf

>  <i_m_source_file_index>  (315) 
8

>  <i_lp_mmshare_version>  (315) 
48012

>  <i_f3d_flags>  (315) 
0

>  <s_epik_input>  (315) 
W0NIM10vW0NIXT1DKFxOPTEpQyhDI04pPUMoW0NIM10pW0NASF0oQzEyKVMoPU8pKD1PKVtDSDJdW0NIMl0y

>  <s_epik_cmdline>  (315) 
J2VwaWtfcHl0aG9uJywgJy1waHQnLCAnMi4wJywgJy1waCcsICc3LjAnLCAnLXRuJywgJzgnLCAnLW1hJywgJzIwMCcsICctaW1hZScsICc8aW5maWxlLm1hZT4nLCAnLW9tYWUnLCAnPG91dGZpbGUubWFlPic=

>  <r_lp_tautomer_probability>  (315) 
1

>  <r_epik_Ionization_Penalty>  (315) 
0

>  <r_epik_Ionization_Penalty_Charging>  (315) 
0

>  <r_epik_Ionization_Penalty_Neutral>  (315) 
0

>  <r_epik_State_Penalty>  (315) 
-0

>  <r_epik_Charging_Adjusted_Penalty>  (315) 
0

>  <i_epik_Tot_Q>  (315) 
0

>  <i_epik_Tot_abs_Q>  (315) 
0

>  <s_epik_Chemistry_Notes>  (315) 
This compound has an imine and may undergo hydrolysis.

>  <s_lp_Force_Field>  (315) 
OPLS3e

>  <r_lp_Energy>  (315) 
12.3297

>  <b_lp_Chiralities_Consistent>  (315) 
1

>  <s_lp_Variant>  (315) 
93:0-2

>  <s_i_glide_gridfile>  (315) 
pfpi4k_grid

>  <i_i_glide_lignum>  (315) 
8

>  <i_i_glide_rotatable_bonds>  (315) 
1

>  <r_i_docking_score>  (315) 
-3.65872

>  <r_i_glide_ligand_efficiency>  (315) 
-0.22867

>  <r_i_glide_ligand_efficiency_sa>  (315) 
-0.576212

>  <r_i_glide_ligand_efficiency_ln>  (315) 
-0.969817

>  <r_i_glide_gscore>  (315) 
-3.65872

>  <r_i_glide_lipo>  (315) 
-0.355045

>  <r_i_glide_hbond>  (315) 
-0.157484

>  <r_i_glide_metal>  (315) 
-0

>  <r_i_glide_rewards>  (315) 
-1.81034

>  <r_i_glide_evdw>  (315) 
-15.1822

>  <r_i_glide_ecoul>  (315) 
-3.60673

>  <r_i_glide_erotb>  (315) 
0

>  <r_i_glide_esite>  (315) 
-0.0357334

>  <r_i_glide_emodel>  (315) 
-23.95

>  <r_i_glide_energy>  (315) 
-18.7889

>  <r_i_glide_einternal>  (315) 
0.468231

>  <r_i_glide_intrahb_reward>  (315) 
-0

>  <i_i_glide_confnum>  (315) 
2

>  <i_i_glide_posenum>  (315) 
33

>  <r_i_glide_eff_state_penalty>  (315) 
0

>  <ligand_id>  (315) 
93

>  <original_smiles>  (315) 
CC=C1N=C2CCS(=O)(=O)C2C(C)=C1C#N

>  <smiles>  (315) 
[H]C(=C1N=C2C([H])([H])C([H])([H])S(=O)(=O)C2([H])C(C([H])([H])[H])=C1C#N)C([H])([H])[H]

$$$$
93:1:1
     RDKit          3D

 28 29  0  0  1  0  0  0  0  0999 V2000
   -2.5253    3.3171    2.8816 C   0  0  0  0  0  0  0  0  0  0  0  0
   -1.6377    2.1337    2.5468 C   0  0  0  0  0  0  0  0  0  0  0  0
   -0.3256    1.9460    2.8106 C   0  0  0  0  0  0  0  0  0  0  0  0
    0.1842    0.7287    2.3370 N   0  0  0  0  0  0  0  0  0  0  0  0
    1.4287    0.4754    2.3911 C   0  0  0  0  0  0  0  0  0  0  0  0
    2.0386   -0.8534    1.9897 C   0  0  0  0  0  0  0  0  0  0  0  0
    3.1769   -1.1997    2.9707 C   0  0  0  0  0  0  0  0  0  0  0  0
    3.4123    0.2628    4.0435 S   0  0  0  0  0  0  0  0  0  0  0  0
    2.6612    0.0582    5.2912 O   0  0  0  0  0  0  0  0  0  0  0  0
    4.8441    0.5963    4.0705 O   0  0  0  0  0  0  0  0  0  0  0  0
    2.4788    1.4068    2.9561 C   0  0  2  0  0  0  0  0  0  0  0  0
    1.8715    2.6206    3.6558 C   0  0  0  0  0  0  0  0  0  0  0  0
    2.8617    3.5404    4.3608 C   0  0  0  0  0  0  0  0  0  0  0  0
    0.5439    2.8785    3.5579 C   0  0  0  0  0  0  0  0  0  0  0  0
   -0.0046    4.0304    4.1998 C   0  0  0  0  0  0  0  0  0  0  0  0
   -0.4565    4.9472    4.7544 N   0  0  0  0  0  0  0  0  0  0  0  0
   -3.4440    3.2578    2.3027 H   0  0  0  0  0  0  0  0  0  0  0  0
   -2.0440    4.2549    2.6140 H   0  0  0  0  0  0  0  0  0  0  0  0
   -2.7911    3.3219    3.9355 H   0  0  0  0  0  0  0  0  0  0  0  0
   -2.1607    1.3436    2.0225 H   0  0  0  0  0  0  0  0  0  0  0  0
    1.2750   -1.6326    1.9568 H   0  0  0  0  0  0  0  0  0  0  0  0
    2.4460   -0.7477    0.9816 H   0  0  0  0  0  0  0  0  0  0  0  0
    2.9416   -2.0612    3.5965 H   0  0  0  0  0  0  0  0  0  0  0  0
    4.1103   -1.3848    2.4362 H   0  0  0  0  0  0  0  0  0  0  0  0
    3.1454    1.7314    2.1575 H   0  0  0  0  0  0  0  0  0  0  0  0
    3.6573    3.8184    3.6697 H   0  0  0  0  0  0  0  0  0  0  0  0
    3.3138    3.0461    5.2205 H   0  0  0  0  0  0  0  0  0  0  0  0
    2.4060    4.4666    4.7069 H   0  0  0  0  0  0  0  0  0  0  0  0
  1  2  1  0
  1 17  1  0
  1 18  1  0
  1 19  1  0
  2  3  2  3
  2 20  1  0
  3 14  1  0
  3  4  1  0
  4  5  2  0
  5 11  1  0
  5  6  1  0
  6  7  1  0
  6 21  1  0
  6 22  1  0
  7  8  1  0
  7 23  1  0
  7 24  1  0
  8  9  2  0
  8 10  2  0
  8 11  1  0
 11 12  1  0
 11 25  1  6
 12 13  1  0
 12 14  2  0
 13 26  1  0
 13 27  1  0
 13 28  1  0
 14 15  1  0
 15 16  3  0
M  END
>  <i_m_ct_stereo_status>  (316) 
1

>  <s_m_source_file>  (316) 
/var/tmp/pbs.5076255.sched01/tmpp4327t_d/123x5hmlc3y.sdf

>  <i_m_source_file_index>  (316) 
8

>  <i_lp_mmshare_version>  (316) 
48012

>  <i_f3d_flags>  (316) 
0

>  <s_epik_input>  (316) 
W0NIM10vW0NIXT1DKFxOPTEpQyhDI04pPUMoW0NIM10pW0NASF0oQzEyKVMoPU8pKD1PKVtDSDJdW0NIMl0y

>  <s_epik_cmdline>  (316) 
J2VwaWtfcHl0aG9uJywgJy1waHQnLCAnMi4wJywgJy1waCcsICc3LjAnLCAnLXRuJywgJzgnLCAnLW1hJywgJzIwMCcsICctaW1hZScsICc8aW5maWxlLm1hZT4nLCAnLW9tYWUnLCAnPG91dGZpbGUubWFlPic=

>  <r_lp_tautomer_probability>  (316) 
1

>  <r_epik_Ionization_Penalty>  (316) 
0

>  <r_epik_Ionization_Penalty_Charging>  (316) 
0

>  <r_epik_Ionization_Penalty_Neutral>  (316) 
0

>  <r_epik_State_Penalty>  (316) 
-0

>  <r_epik_Charging_Adjusted_Penalty>  (316) 
0

>  <i_epik_Tot_Q>  (316) 
0

>  <i_epik_Tot_abs_Q>  (316) 
0

>  <s_epik_Chemistry_Notes>  (316) 
This compound has an imine and may undergo hydrolysis.

>  <s_lp_Force_Field>  (316) 
OPLS3e

>  <r_lp_Energy>  (316) 
12.3297

>  <b_lp_Chiralities_Consistent>  (316) 
1

>  <s_lp_Variant>  (316) 
93:0-2

>  <s_i_glide_gridfile>  (316) 
pfpi4k_grid

>  <i_i_glide_lignum>  (316) 
8

>  <i_i_glide_rotatable_bonds>  (316) 
1

>  <r_i_docking_score>  (316) 
-3.42522

>  <r_i_glide_ligand_efficiency>  (316) 
-0.214076

>  <r_i_glide_ligand_efficiency_sa>  (316) 
-0.539438

>  <r_i_glide_ligand_efficiency_ln>  (316) 
-0.907922

>  <r_i_glide_gscore>  (316) 
-3.42522

>  <r_i_glide_lipo>  (316) 
0

>  <r_i_glide_hbond>  (316) 
0

>  <r_i_glide_metal>  (316) 
-0

>  <r_i_glide_rewards>  (316) 
-1.79801

>  <r_i_glide_evdw>  (316) 
-17.7777

>  <r_i_glide_ecoul>  (316) 
-4.31753

>  <r_i_glide_erotb>  (316) 
0

>  <r_i_glide_esite>  (316) 
-0.0906892

>  <r_i_glide_emodel>  (316) 
-26.8857

>  <r_i_glide_energy>  (316) 
-22.0952

>  <r_i_glide_einternal>  (316) 
0.458021

>  <r_i_glide_intrahb_reward>  (316) 
-0

>  <i_i_glide_confnum>  (316) 
1

>  <i_i_glide_posenum>  (316) 
12

>  <r_i_glide_eff_state_penalty>  (316) 
0

>  <ligand_id>  (316) 
93

>  <original_smiles>  (316) 
CC=C1N=C2CCS(=O)(=O)C2C(C)=C1C#N

>  <smiles>  (316) 
[H]C(=C1N=C2C([H])([H])C([H])([H])S(=O)(=O)C2([H])C(C([H])([H])[H])=C1C#N)C([H])([H])[H]

$$$$
93:1:2
     RDKit          3D

 28 29  0  0  1  0  0  0  0  0999 V2000
    3.0216   -2.4506   -2.5878 C   0  0  0  0  0  0  0  0  0  0  0  0
    2.5114   -3.4546   -1.5722 C   0  0  0  0  0  0  0  0  0  0  0  0
    3.2007   -4.1667   -0.6540 C   0  0  0  0  0  0  0  0  0  0  0  0
    2.4058   -5.0455    0.1024 N   0  0  0  0  0  0  0  0  0  0  0  0
    2.9408   -5.8805    0.8999 C   0  0  0  0  0  0  0  0  0  0  0  0
    2.1551   -6.7921    1.8235 C   0  0  0  0  0  0  0  0  0  0  0  0
    2.9013   -6.8939    3.1711 C   0  0  0  0  0  0  0  0  0  0  0  0
    4.5096   -6.0489    2.9493 S   0  0  0  0  0  0  0  0  0  0  0  0
    4.3935   -4.6736    3.4554 O   0  0  0  0  0  0  0  0  0  0  0  0
    5.5910   -6.9368    3.4007 O   0  0  0  0  0  0  0  0  0  0  0  0
    4.4274   -6.0320    1.1247 C   0  0  2  0  0  0  0  0  0  0  0  0
    5.2462   -4.9328    0.4542 C   0  0  0  0  0  0  0  0  0  0  0  0
    6.7437   -4.9496    0.7456 C   0  0  0  0  0  0  0  0  0  0  0  0
    4.6556   -4.0672   -0.4058 C   0  0  0  0  0  0  0  0  0  0  0  0
    5.4495   -3.0606   -1.0351 C   0  0  0  0  0  0  0  0  0  0  0  0
    6.1392   -2.2575   -1.5170 N   0  0  0  0  0  0  0  0  0  0  0  0
    2.2495   -2.2663   -3.3304 H   0  0  0  0  0  0  0  0  0  0  0  0
    3.8966   -2.8196   -3.1167 H   0  0  0  0  0  0  0  0  0  0  0  0
    3.2499   -1.5045   -2.1043 H   0  0  0  0  0  0  0  0  0  0  0  0
    1.4390   -3.5982   -1.6248 H   0  0  0  0  0  0  0  0  0  0  0  0
    1.1373   -6.4216    1.9524 H   0  0  0  0  0  0  0  0  0  0  0  0
    2.0978   -7.7809    1.3637 H   0  0  0  0  0  0  0  0  0  0  0  0
    2.3592   -6.4069    3.9828 H   0  0  0  0  0  0  0  0  0  0  0  0
    3.0944   -7.9348    3.4405 H   0  0  0  0  0  0  0  0  0  0  0  0
    4.7516   -7.0125    0.7753 H   0  0  0  0  0  0  0  0  0  0  0  0
    7.1491   -5.9423    0.5453 H   0  0  0  0  0  0  0  0  0  0  0  0
    6.9458   -4.7010    1.7881 H   0  0  0  0  0  0  0  0  0  0  0  0
    7.3050   -4.2535    0.1242 H   0  0  0  0  0  0  0  0  0  0  0  0
  1  2  1  0
  1 17  1  0
  1 18  1  0
  1 19  1  0
  2  3  2  3
  2 20  1  0
  3 14  1  0
  3  4  1  0
  4  5  2  0
  5 11  1  0
  5  6  1  0
  6  7  1  0
  6 21  1  0
  6 22  1  0
  7  8  1  0
  7 23  1  0
  7 24  1  0
  8  9  2  0
  8 10  2  0
  8 11  1  0
 11 12  1  0
 11 25  1  6
 12 13  1  0
 12 14  2  0
 13 26  1  0
 13 27  1  0
 13 28  1  0
 14 15  1  0
 15 16  3  0
M  END
>  <i_m_ct_stereo_status>  (317) 
1

>  <s_m_source_file>  (317) 
/var/tmp/pbs.5076255.sched01/tmpp4327t_d/123x5hmlc3y.sdf

>  <i_m_source_file_index>  (317) 
8

>  <i_lp_mmshare_version>  (317) 
48012

>  <i_f3d_flags>  (317) 
0

>  <s_epik_input>  (317) 
W0NIM10vW0NIXT1DKFxOPTEpQyhDI04pPUMoW0NIM10pW0NASF0oQzEyKVMoPU8pKD1PKVtDSDJdW0NIMl0y

>  <s_epik_cmdline>  (317) 
J2VwaWtfcHl0aG9uJywgJy1waHQnLCAnMi4wJywgJy1waCcsICc3LjAnLCAnLXRuJywgJzgnLCAnLW1hJywgJzIwMCcsICctaW1hZScsICc8aW5maWxlLm1hZT4nLCAnLW9tYWUnLCAnPG91dGZpbGUubWFlPic=

>  <r_lp_tautomer_probability>  (317) 
1

>  <r_epik_Ionization_Penalty>  (317) 
0

>  <r_epik_Ionization_Penalty_Charging>  (317) 
0

>  <r_epik_Ionization_Penalty_Neutral>  (317) 
0

>  <r_epik_State_Penalty>  (317) 
-0

>  <r_epik_Charging_Adjusted_Penalty>  (317) 
0

>  <i_epik_Tot_Q>  (317) 
0

>  <i_epik_Tot_abs_Q>  (317) 
0

>  <s_epik_Chemistry_Notes>  (317) 
This compound has an imine and may undergo hydrolysis.

>  <s_lp_Force_Field>  (317) 
OPLS3e

>  <r_lp_Energy>  (317) 
12.3297

>  <b_lp_Chiralities_Consistent>  (317) 
1

>  <s_lp_Variant>  (317) 
93:0-2

>  <s_i_glide_gridfile>  (317) 
pfpi4k_grid

>  <i_i_glide_lignum>  (317) 
8

>  <i_i_glide_rotatable_bonds>  (317) 
1

>  <r_i_docking_score>  (317) 
-3.39809

>  <r_i_glide_ligand_efficiency>  (317) 
-0.212381

>  <r_i_glide_ligand_efficiency_sa>  (317) 
-0.535166

>  <r_i_glide_ligand_efficiency_ln>  (317) 
-0.900732

>  <r_i_glide_gscore>  (317) 
-3.39809

>  <r_i_glide_lipo>  (317) 
-0.400288

>  <r_i_glide_hbond>  (317) 
-0.0480991

>  <r_i_glide_metal>  (317) 
-0

>  <r_i_glide_rewards>  (317) 
-1.8535

>  <r_i_glide_evdw>  (317) 
-17.5874

>  <r_i_glide_ecoul>  (317) 
-1.36533

>  <r_i_glide_erotb>  (317) 
0

>  <r_i_glide_esite>  (317) 
-0.0120363

>  <r_i_glide_emodel>  (317) 
-23.7317

>  <r_i_glide_energy>  (317) 
-18.9528

>  <r_i_glide_einternal>  (317) 
0.467371

>  <r_i_glide_intrahb_reward>  (317) 
-0

>  <i_i_glide_confnum>  (317) 
1

>  <i_i_glide_posenum>  (317) 
19

>  <r_i_glide_eff_state_penalty>  (317) 
0

>  <ligand_id>  (317) 
93

>  <original_smiles>  (317) 
CC=C1N=C2CCS(=O)(=O)C2C(C)=C1C#N

>  <smiles>  (317) 
[H]C(=C1N=C2C([H])([H])C([H])([H])S(=O)(=O)C2([H])C(C([H])([H])[H])=C1C#N)C([H])([H])[H]

$$$$
94:0:0
     RDKit          3D

 34 38  0  0  1  0  0  0  0  0999 V2000
    8.3591   -3.7980    0.0251 C   0  0  0  0  0  0  0  0  0  0  0  0
    7.6437   -2.4444    0.0491 C   0  0  0  0  0  0  0  0  0  0  0  0
    8.2596   -1.4594    0.4520 O   0  0  0  0  0  0  0  0  0  0  0  0
    6.3853   -2.3712   -0.4054 N   0  0  0  0  0  0  0  0  0  0  0  0
    5.5356   -1.1784   -0.4116 C   0  0  2  0  0  0  0  0  0  0  0  0
    4.7326   -1.1837    0.9272 C   0  0  0  0  0  0  0  0  0  0  0  0
    4.1234   -2.5639    1.2461 C   0  0  1  0  0  0  0  0  0  0  0  0
    2.8827   -2.8770    0.4306 C   0  0  1  0  0  0  0  0  0  0  0  0
    3.0771   -3.3075   -1.0239 C   0  0  1  0  0  0  0  0  0  0  0  0
    4.3899   -2.9046   -1.6807 C   0  0  1  0  0  0  0  0  0  0  0  0
    4.6613   -1.4147   -1.6224 C   0  0  0  0  0  0  0  0  0  0  0  0
    4.3951   -0.5012   -2.5740 C   0  0  0  0  0  0  0  0  0  0  0  0
    3.6086   -0.7193   -3.8507 C   0  0  0  0  0  0  0  0  0  0  0  0
    3.4186    0.5180   -4.5092 O   0  0  0  0  0  0  0  0  0  0  0  0
    5.4956   -3.4832   -0.7294 C   0  0  2  0  0  0  0  0  0  0  0  0
    4.7802   -3.8085    0.5937 C   0  0  2  0  0  0  0  0  0  0  0  0
    3.4444   -4.2153    0.0827 C   0  0  1  0  0  0  0  0  0  0  0  0
    7.8989   -4.4799    0.7394 H   0  0  0  0  0  0  0  0  0  0  0  0
    9.4045   -3.6771    0.2839 H   0  0  0  0  0  0  0  0  0  0  0  0
    8.3139   -4.2374   -0.9715 H   0  0  0  0  0  0  0  0  0  0  0  0
    6.1020   -0.2594   -0.5087 H   0  0  0  0  0  0  0  0  0  0  0  0
    5.4310   -0.9139    1.7282 H   0  0  0  0  0  0  0  0  0  0  0  0
    3.9745   -0.4013    0.9270 H   0  0  0  0  0  0  0  0  0  0  0  0
    3.9463   -2.7217    2.3137 H   0  0  0  0  0  0  0  0  0  0  0  0
    1.8943   -2.7942    0.8769 H   0  0  0  0  0  0  0  0  0  0  0  0
    2.2230   -3.5684   -1.6426 H   0  0  0  0  0  0  0  0  0  0  0  0
    4.4418   -3.2896   -2.6938 H   0  0  0  0  0  0  0  0  0  0  0  0
    4.7841    0.4917   -2.4410 H   0  0  0  0  0  0  0  0  0  0  0  0
    4.1721   -1.3818   -4.5083 H   0  0  0  0  0  0  0  0  0  0  0  0
    2.6495   -1.1881   -3.6219 H   0  0  0  0  0  0  0  0  0  0  0  0
    2.9046    1.0908   -3.9465 H   0  0  0  0  0  0  0  0  0  0  0  0
    5.9841   -4.3473   -1.1786 H   0  0  0  0  0  0  0  0  0  0  0  0
    5.2753   -4.4853    1.2904 H   0  0  0  0  0  0  0  0  0  0  0  0
    2.9337   -5.1285    0.3668 H   0  0  0  0  0  0  0  0  0  0  0  0
  1  2  1  0
  1 18  1  0
  1 19  1  0
  1 20  1  0
  2  3  2  0
  2  4  1  0
  4 15  1  0
  4  5  1  0
  5 11  1  0
  5  6  1  0
  5 21  1  6
  6  7  1  0
  6 22  1  0
  6 23  1  0
  7 16  1  0
  7  8  1  0
  7 24  1  1
  8 17  1  0
  8  9  1  0
  8 25  1  6
  9 17  1  0
  9 10  1  0
  9 26  1  6
 10 11  1  0
 10 15  1  0
 10 27  1  6
 11 12  2  3
 12 13  1  0
 12 28  1  0
 13 14  1  0
 13 29  1  0
 13 30  1  0
 14 31  1  0
 15 16  1  0
 15 32  1  6
 16 17  1  0
 16 33  1  1
 17 34  1  6
M  END
>  <i_m_ct_stereo_status>  (318) 
1

>  <s_m_source_file>  (318) 
/var/tmp/pbs.5076255.sched01/tmpp4327t_d/123x5hmlc3y.sdf

>  <i_m_source_file_index>  (318) 
9

>  <i_lp_mmshare_version>  (318) 
48012

>  <i_f3d_flags>  (318) 
0

>  <s_epik_input>  (318) 
W0NIM11DKD1PKU4oW0NASF0xMilbQ0BASF0zW0NASF0oQ1wyPVtDSF1cW0NIMl1bT0hdKVtDQEBIXTRbQ0BASF01W0NASF0oW0NIMl0xKVtDQEhdM1tDQEhdNDU=

>  <s_epik_cmdline>  (318) 
J2VwaWtfcHl0aG9uJywgJy1waHQnLCAnMi4wJywgJy1waCcsICc3LjAnLCAnLXRuJywgJzgnLCAnLW1hJywgJzIwMCcsICctaW1hZScsICc8aW5maWxlLm1hZT4nLCAnLW9tYWUnLCAnPG91dGZpbGUubWFlPic=

>  <r_lp_tautomer_probability>  (318) 
1

>  <r_epik_Ionization_Penalty>  (318) 
1.94233e-06

>  <r_epik_Ionization_Penalty_Charging>  (318) 
0

>  <r_epik_Ionization_Penalty_Neutral>  (318) 
1.94233e-06

>  <r_epik_State_Penalty>  (318) 
-0

>  <r_epik_Charging_Adjusted_Penalty>  (318) 
0

>  <i_epik_Tot_Q>  (318) 
0

>  <i_epik_Tot_abs_Q>  (318) 
0

>  <s_lp_Force_Field>  (318) 
OPLS3e

>  <r_lp_Energy>  (318) 
43.2394

>  <b_lp_Chiralities_Consistent>  (318) 
1

>  <s_lp_Variant>  (318) 
94:0-1

>  <s_i_glide_gridfile>  (318) 
pfpi4k_grid

>  <i_i_glide_lignum>  (318) 
9

>  <i_i_glide_rotatable_bonds>  (318) 
3

>  <r_i_docking_score>  (318) 
-4.24456

>  <r_i_glide_ligand_efficiency>  (318) 
-0.24968

>  <r_i_glide_ligand_efficiency_sa>  (318) 
-0.641998

>  <r_i_glide_ligand_efficiency_ln>  (318) 
-1.10731

>  <r_i_glide_gscore>  (318) 
-4.24456

>  <r_i_glide_lipo>  (318) 
-0.651148

>  <r_i_glide_hbond>  (318) 
-0.337785

>  <r_i_glide_metal>  (318) 
-0

>  <r_i_glide_rewards>  (318) 
-1.9386

>  <r_i_glide_evdw>  (318) 
-21.1502

>  <r_i_glide_ecoul>  (318) 
-3.73563

>  <r_i_glide_erotb>  (318) 
0.319742

>  <r_i_glide_esite>  (318) 
-0.0189164

>  <r_i_glide_emodel>  (318) 
-30.4601

>  <r_i_glide_energy>  (318) 
-24.8859

>  <r_i_glide_einternal>  (318) 
1.74692

>  <r_i_glide_intrahb_reward>  (318) 
-0

>  <i_i_glide_confnum>  (318) 
4

>  <i_i_glide_posenum>  (318) 
4

>  <r_i_glide_eff_state_penalty>  (318) 
0

>  <ligand_id>  (318) 
94

>  <original_smiles>  (318) 
CC(=O)N1C2CC3C4C5C(C2=CCO)C1C3C45

>  <smiles>  (318) 
[H]OC([H])([H])C([H])=C1C2([H])N(C(=O)C([H])([H])[H])C3([H])C1([H])C1([H])C4([H])C([H])(C2([H])[H])C3([H])C14[H]

$$$$
94:0:1
     RDKit          3D

 34 38  0  0  1  0  0  0  0  0999 V2000
    0.2488    5.9912    4.0938 C   0  0  0  0  0  0  0  0  0  0  0  0
   -0.6120    4.7664    3.7644 C   0  0  0  0  0  0  0  0  0  0  0  0
   -1.7170    4.9459    3.2672 O   0  0  0  0  0  0  0  0  0  0  0  0
   -0.1230    3.5462    4.0560 N   0  0  0  0  0  0  0  0  0  0  0  0
   -0.7877    2.2744    3.7946 C   0  0  2  0  0  0  0  0  0  0  0  0
   -1.5794    1.8935    5.0777 C   0  0  0  0  0  0  0  0  0  0  0  0
   -0.7362    2.0918    6.3605 C   0  0  1  0  0  0  0  0  0  0  0  0
    0.2831    0.9931    6.5796 C   0  0  2  0  0  0  0  0  0  0  0  0
    1.5602    1.0172    5.7406 C   0  0  1  0  0  0  0  0  0  0  0  0
    1.5093    1.8072    4.4481 C   0  0  1  0  0  0  0  0  0  0  0  0
    0.3892    1.3663    3.5423 C   0  0  0  0  0  0  0  0  0  0  0  0
    0.4891    0.5003    2.5163 C   0  0  0  0  0  0  0  0  0  0  0  0
    1.7073   -0.3290    2.1703 C   0  0  0  0  0  0  0  0  0  0  0  0
    2.2386    0.0637    0.9164 O   0  0  0  0  0  0  0  0  0  0  0  0
    1.0343    3.2373    4.8771 C   0  0  2  0  0  0  0  0  0  0  0  0
    0.4565    3.0834    6.2960 C   0  0  2  0  0  0  0  0  0  0  0  0
    1.3431    2.0174    6.8093 C   0  0  1  0  0  0  0  0  0  0  0  0
    0.3465    6.1043    5.1718 H   0  0  0  0  0  0  0  0  0  0  0  0
   -0.2076    6.8980    3.6991 H   0  0  0  0  0  0  0  0  0  0  0  0
    1.2380    5.9130    3.6429 H   0  0  0  0  0  0  0  0  0  0  0  0
   -1.4235    2.3106    2.9158 H   0  0  0  0  0  0  0  0  0  0  0  0
   -2.4464    2.5570    5.1234 H   0  0  0  0  0  0  0  0  0  0  0  0
   -1.9804    0.8787    4.9952 H   0  0  0  0  0  0  0  0  0  0  0  0
   -1.3400    2.2567    7.2557 H   0  0  0  0  0  0  0  0  0  0  0  0
    0.1064    0.2313    7.3304 H   0  0  0  0  0  0  0  0  0  0  0  0
    2.3383    0.2728    5.9081 H   0  0  0  0  0  0  0  0  0  0  0  0
    2.4837    1.8128    3.9587 H   0  0  0  0  0  0  0  0  0  0  0  0
   -0.3475    0.4206    1.8413 H   0  0  0  0  0  0  0  0  0  0  0  0
    2.4917   -0.2323    2.9232 H   0  0  0  0  0  0  0  0  0  0  0  0
    1.4072   -1.3785    2.1221 H   0  0  0  0  0  0  0  0  0  0  0  0
    1.6493   -0.2972    0.2450 H   0  0  0  0  0  0  0  0  0  0  0  0
    1.8502    3.9582    4.8284 H   0  0  0  0  0  0  0  0  0  0  0  0
    0.3317    3.9698    6.9255 H   0  0  0  0  0  0  0  0  0  0  0  0
    1.8369    2.0552    7.7660 H   0  0  0  0  0  0  0  0  0  0  0  0
  1  2  1  0
  1 18  1  0
  1 19  1  0
  1 20  1  0
  2  3  2  0
  2  4  1  0
  4 15  1  0
  4  5  1  0
  5 11  1  0
  5  6  1  0
  5 21  1  6
  6  7  1  0
  6 22  1  0
  6 23  1  0
  7 16  1  0
  7  8  1  0
  7 24  1  1
  8 17  1  0
  8  9  1  0
  8 25  1  1
  9 17  1  0
  9 10  1  0
  9 26  1  1
 10 11  1  0
 10 15  1  0
 10 27  1  6
 11 12  2  3
 12 13  1  0
 12 28  1  0
 13 14  1  0
 13 29  1  0
 13 30  1  0
 14 31  1  0
 15 16  1  0
 15 32  1  1
 16 17  1  0
 16 33  1  1
 17 34  1  1
M  END
>  <i_m_ct_stereo_status>  (319) 
1

>  <s_m_source_file>  (319) 
/var/tmp/pbs.5076255.sched01/tmpp4327t_d/123x5hmlc3y.sdf

>  <i_m_source_file_index>  (319) 
9

>  <i_lp_mmshare_version>  (319) 
48012

>  <i_f3d_flags>  (319) 
0

>  <s_epik_input>  (319) 
W0NIM11DKD1PKU4oW0NASF0xMilbQ0BASF0zW0NASF0oQ1wyPVtDSF1cW0NIMl1bT0hdKVtDQEBIXTRbQ0BASF01W0NASF0oW0NIMl0xKVtDQEhdM1tDQEhdNDU=

>  <s_epik_cmdline>  (319) 
J2VwaWtfcHl0aG9uJywgJy1waHQnLCAnMi4wJywgJy1waCcsICc3LjAnLCAnLXRuJywgJzgnLCAnLW1hJywgJzIwMCcsICctaW1hZScsICc8aW5maWxlLm1hZT4nLCAnLW9tYWUnLCAnPG91dGZpbGUubWFlPic=

>  <r_lp_tautomer_probability>  (319) 
1

>  <r_epik_Ionization_Penalty>  (319) 
1.94233e-06

>  <r_epik_Ionization_Penalty_Charging>  (319) 
0

>  <r_epik_Ionization_Penalty_Neutral>  (319) 
1.94233e-06

>  <r_epik_State_Penalty>  (319) 
-0

>  <r_epik_Charging_Adjusted_Penalty>  (319) 
0

>  <i_epik_Tot_Q>  (319) 
0

>  <i_epik_Tot_abs_Q>  (319) 
0

>  <s_lp_Force_Field>  (319) 
OPLS3e

>  <r_lp_Energy>  (319) 
43.2394

>  <b_lp_Chiralities_Consistent>  (319) 
1

>  <s_lp_Variant>  (319) 
94:0-1

>  <s_i_glide_gridfile>  (319) 
pfpi4k_grid

>  <i_i_glide_lignum>  (319) 
9

>  <i_i_glide_rotatable_bonds>  (319) 
3

>  <r_i_docking_score>  (319) 
-3.79753

>  <r_i_glide_ligand_efficiency>  (319) 
-0.223384

>  <r_i_glide_ligand_efficiency_sa>  (319) 
-0.574384

>  <r_i_glide_ligand_efficiency_ln>  (319) 
-0.990692

>  <r_i_glide_gscore>  (319) 
-3.79753

>  <r_i_glide_lipo>  (319) 
0

>  <r_i_glide_hbond>  (319) 
-0.32

>  <r_i_glide_metal>  (319) 
-0

>  <r_i_glide_rewards>  (319) 
-1.83211

>  <r_i_glide_evdw>  (319) 
-6.65828

>  <r_i_glide_ecoul>  (319) 
-9.80447

>  <r_i_glide_erotb>  (319) 
0.319742

>  <r_i_glide_esite>  (319) 
-0.161581

>  <r_i_glide_emodel>  (319) 
-21.8581

>  <r_i_glide_energy>  (319) 
-16.4627

>  <r_i_glide_einternal>  (319) 
0.520657

>  <r_i_glide_intrahb_reward>  (319) 
-0

>  <i_i_glide_confnum>  (319) 
5

>  <i_i_glide_posenum>  (319) 
7

>  <r_i_glide_eff_state_penalty>  (319) 
0

>  <ligand_id>  (319) 
94

>  <original_smiles>  (319) 
CC(=O)N1C2CC3C4C5C(C2=CCO)C1C3C45

>  <smiles>  (319) 
[H]OC([H])([H])C([H])=C1C2([H])N(C(=O)C([H])([H])[H])C3([H])C1([H])C1([H])C4([H])C([H])(C2([H])[H])C3([H])C14[H]

$$$$
94:0:2
     RDKit          3D

 34 38  0  0  1  0  0  0  0  0999 V2000
    1.1884    5.1231    5.5838 C   0  0  0  0  0  0  0  0  0  0  0  0
   -0.1903    4.5401    5.9085 C   0  0  0  0  0  0  0  0  0  0  0  0
   -0.7572    4.8890    6.9419 O   0  0  0  0  0  0  0  0  0  0  0  0
   -0.7342    3.6709    5.0465 N   0  0  0  0  0  0  0  0  0  0  0  0
   -1.9831    2.9207    5.2282 C   0  0  2  0  0  0  0  0  0  0  0  0
   -1.5957    1.5505    5.8714 C   0  0  0  0  0  0  0  0  0  0  0  0
   -0.3929    0.8815    5.1743 C   0  0  1  0  0  0  0  0  0  0  0  0
   -0.7504    0.2364    3.8420 C   0  0  2  0  0  0  0  0  0  0  0  0
   -0.9428    1.1586    2.6362 C   0  0  1  0  0  0  0  0  0  0  0  0
   -1.2573    2.6078    2.9542 C   0  0  1  0  0  0  0  0  0  0  0  0
   -2.4815    2.7822    3.8105 C   0  0  0  0  0  0  0  0  0  0  0  0
   -3.7393    3.0322    3.3980 C   0  0  0  0  0  0  0  0  0  0  0  0
   -4.2569    3.0421    1.9757 C   0  0  0  0  0  0  0  0  0  0  0  0
   -4.9726    4.2238    1.7320 O   0  0  0  0  0  0  0  0  0  0  0  0
   -0.0959    3.0832    3.8749 C   0  0  2  0  0  0  0  0  0  0  0  0
    0.5764    1.7971    4.3784 C   0  0  2  0  0  0  0  0  0  0  0  0
    0.4001    0.9171    3.1875 C   0  0  1  0  0  0  0  0  0  0  0  0
    1.9506    4.3475    5.6342 H   0  0  0  0  0  0  0  0  0  0  0  0
    1.4476    5.9013    6.2981 H   0  0  0  0  0  0  0  0  0  0  0  0
    1.2015    5.5669    4.5898 H   0  0  0  0  0  0  0  0  0  0  0  0
   -2.7106    3.4575    5.8365 H   0  0  0  0  0  0  0  0  0  0  0  0
   -1.3312    1.7423    6.9146 H   0  0  0  0  0  0  0  0  0  0  0  0
   -2.4511    0.8789    5.9043 H   0  0  0  0  0  0  0  0  0  0  0  0
    0.1626    0.1951    5.8069 H   0  0  0  0  0  0  0  0  0  0  0  0
   -0.8076   -0.8548    3.7690 H   0  0  0  0  0  0  0  0  0  0  0  0
   -1.1787    0.7501    1.6531 H   0  0  0  0  0  0  0  0  0  0  0  0
   -1.3608    3.2208    2.0779 H   0  0  0  0  0  0  0  0  0  0  0  0
   -4.4698    3.2551    4.1585 H   0  0  0  0  0  0  0  0  0  0  0  0
   -3.4330    2.9041    1.2779 H   0  0  0  0  0  0  0  0  0  0  0  0
   -4.9406    2.2123    1.8002 H   0  0  0  0  0  0  0  0  0  0  0  0
   -5.8740    3.9845    1.4665 H   0  0  0  0  0  0  0  0  0  0  0  0
    0.5798    3.7461    3.3262 H   0  0  0  0  0  0  0  0  0  0  0  0
    1.5860    1.8731    4.7836 H   0  0  0  0  0  0  0  0  0  0  0  0
    1.2012    0.3358    2.7323 H   0  0  0  0  0  0  0  0  0  0  0  0
  1  2  1  0
  1 18  1  0
  1 19  1  0
  1 20  1  0
  2  3  2  0
  2  4  1  0
  4 15  1  0
  4  5  1  0
  5 11  1  0
  5  6  1  0
  5 21  1  1
  6  7  1  0
  6 22  1  0
  6 23  1  0
  7 16  1  0
  7  8  1  0
  7 24  1  1
  8 17  1  0
  8  9  1  0
  8 25  1  1
  9 17  1  0
  9 10  1  0
  9 26  1  6
 10 11  1  0
 10 15  1  0
 10 27  1  6
 11 12  2  3
 12 13  1  0
 12 28  1  0
 13 14  1  0
 13 29  1  0
 13 30  1  0
 14 31  1  0
 15 16  1  0
 15 32  1  6
 16 17  1  0
 16 33  1  1
 17 34  1  6
M  END
>  <i_m_ct_stereo_status>  (320) 
1

>  <s_m_source_file>  (320) 
/var/tmp/pbs.5076255.sched01/tmpp4327t_d/123x5hmlc3y.sdf

>  <i_m_source_file_index>  (320) 
9

>  <i_lp_mmshare_version>  (320) 
48012

>  <i_f3d_flags>  (320) 
0

>  <s_epik_input>  (320) 
W0NIM11DKD1PKU4oW0NASF0xMilbQ0BASF0zW0NASF0oQ1wyPVtDSF1cW0NIMl1bT0hdKVtDQEBIXTRbQ0BASF01W0NASF0oW0NIMl0xKVtDQEhdM1tDQEhdNDU=

>  <s_epik_cmdline>  (320) 
J2VwaWtfcHl0aG9uJywgJy1waHQnLCAnMi4wJywgJy1waCcsICc3LjAnLCAnLXRuJywgJzgnLCAnLW1hJywgJzIwMCcsICctaW1hZScsICc8aW5maWxlLm1hZT4nLCAnLW9tYWUnLCAnPG91dGZpbGUubWFlPic=

>  <r_lp_tautomer_probability>  (320) 
1

>  <r_epik_Ionization_Penalty>  (320) 
1.94233e-06

>  <r_epik_Ionization_Penalty_Charging>  (320) 
0

>  <r_epik_Ionization_Penalty_Neutral>  (320) 
1.94233e-06

>  <r_epik_State_Penalty>  (320) 
-0

>  <r_epik_Charging_Adjusted_Penalty>  (320) 
0

>  <i_epik_Tot_Q>  (320) 
0

>  <i_epik_Tot_abs_Q>  (320) 
0

>  <s_lp_Force_Field>  (320) 
OPLS3e

>  <r_lp_Energy>  (320) 
43.2394

>  <b_lp_Chiralities_Consistent>  (320) 
1

>  <s_lp_Variant>  (320) 
94:0-1

>  <s_i_glide_gridfile>  (320) 
pfpi4k_grid

>  <i_i_glide_lignum>  (320) 
9

>  <i_i_glide_rotatable_bonds>  (320) 
3

>  <r_i_docking_score>  (320) 
-3.27311

>  <r_i_glide_ligand_efficiency>  (320) 
-0.192536

>  <r_i_glide_ligand_efficiency_sa>  (320) 
-0.495063

>  <r_i_glide_ligand_efficiency_ln>  (320) 
-0.85388

>  <r_i_glide_gscore>  (320) 
-3.27311

>  <r_i_glide_lipo>  (320) 
-0.0465867

>  <r_i_glide_hbond>  (320) 
-0.32

>  <r_i_glide_metal>  (320) 
-0

>  <r_i_glide_rewards>  (320) 
-1.83211

>  <r_i_glide_evdw>  (320) 
-13.8106

>  <r_i_glide_ecoul>  (320) 
-4.46469

>  <r_i_glide_erotb>  (320) 
0.319742

>  <r_i_glide_esite>  (320) 
-0.0339163

>  <r_i_glide_emodel>  (320) 
-22.6937

>  <r_i_glide_energy>  (320) 
-18.2753

>  <r_i_glide_einternal>  (320) 
0.882526

>  <r_i_glide_intrahb_reward>  (320) 
-0

>  <i_i_glide_confnum>  (320) 
2

>  <i_i_glide_posenum>  (320) 
39

>  <r_i_glide_eff_state_penalty>  (320) 
0

>  <ligand_id>  (320) 
94

>  <original_smiles>  (320) 
CC(=O)N1C2CC3C4C5C(C2=CCO)C1C3C45

>  <smiles>  (320) 
[H]OC([H])([H])C([H])=C1C2([H])N(C(=O)C([H])([H])[H])C3([H])C1([H])C1([H])C4([H])C([H])(C2([H])[H])C3([H])C14[H]

$$$$
95:0:0
     RDKit          3D

 51 54  0  0  1  0  0  0  0  0999 V2000
   -0.8757   -9.2030    2.9780 C   0  0  0  0  0  0  0  0  0  0  0  0
   -1.4050   -7.4697    2.9285 S   0  0  0  0  0  0  0  0  0  0  0  0
    0.1013   -6.6755    3.5460 C   0  0  0  0  0  0  0  0  0  0  0  0
    1.1975   -6.7037    2.4767 C   0  0  0  0  0  0  0  0  0  0  0  0
    0.9658   -6.2374    1.3602 O   0  0  0  0  0  0  0  0  0  0  0  0
    2.5558   -7.3753    2.8182 C   0  0  1  0  0  0  0  0  0  0  0  0
    2.3435   -8.3716    3.8054 O   0  0  0  0  0  0  0  0  0  0  0  0
    3.1427   -8.0549    1.5712 C   0  0  0  0  0  0  0  0  0  0  0  0
    3.9763   -6.9727    0.8709 C   0  0  0  0  0  0  0  0  0  0  0  0
    4.2979   -5.8631    1.9080 C   0  0  1  0  0  0  0  0  0  0  0  0
    3.8421   -4.4412    1.4416 C   0  0  2  0  0  0  0  0  0  0  0  0
    4.6440   -3.9460    0.2197 C   0  0  0  0  0  0  0  0  0  0  0  0
    5.5170   -4.6276   -0.3201 O   0  0  0  0  0  0  0  0  0  0  0  0
    4.3577   -2.5198   -0.2790 C   0  0  0  0  0  0  0  0  0  0  0  0
    4.5254   -2.2247   -1.4622 O   0  0  0  0  0  0  0  0  0  0  0  0
    3.8943   -1.5006    0.7260 C   0  0  1  0  0  0  0  0  0  0  0  0
    2.4881   -1.5905    1.2787 C   0  0  0  0  0  0  0  0  0  0  0  0
    3.6612   -1.9441    2.1624 C   0  0  2  0  0  0  0  0  0  0  0  0
    4.0776   -0.9499    3.2394 C   0  0  0  0  0  0  0  0  0  0  0  0
    3.9035   -3.4054    2.5973 C   0  0  1  0  0  0  0  0  0  0  0  0
    2.9505   -3.8541    3.7247 C   0  0  1  0  0  0  0  0  0  0  0  0
    1.5982   -3.7695    3.3173 O   0  0  0  0  0  0  0  0  0  0  0  0
    3.3046   -5.2549    4.2638 C   0  0  0  0  0  0  0  0  0  0  0  0
    3.6976   -6.3832    3.2524 C   0  0  1  0  0  0  0  0  0  0  0  0
    4.8288   -7.1838    3.9718 C   0  0  0  0  0  0  0  0  0  0  0  0
   -1.6583   -9.8586    2.6013 H   0  0  0  0  0  0  0  0  0  0  0  0
   -0.6480   -9.4857    4.0047 H   0  0  0  0  0  0  0  0  0  0  0  0
    0.0148   -9.3596    2.3698 H   0  0  0  0  0  0  0  0  0  0  0  0
   -0.1216   -5.6372    3.7845 H   0  0  0  0  0  0  0  0  0  0  0  0
    0.4100   -7.1494    4.4744 H   0  0  0  0  0  0  0  0  0  0  0  0
    1.8217   -9.0636    3.4286 H   0  0  0  0  0  0  0  0  0  0  0  0
    3.7879   -8.8891    1.8501 H   0  0  0  0  0  0  0  0  0  0  0  0
    2.3816   -8.4792    0.9151 H   0  0  0  0  0  0  0  0  0  0  0  0
    4.8869   -7.4070    0.4543 H   0  0  0  0  0  0  0  0  0  0  0  0
    3.4096   -6.5621    0.0342 H   0  0  0  0  0  0  0  0  0  0  0  0
    5.3853   -5.8210    2.0219 H   0  0  0  0  0  0  0  0  0  0  0  0
    2.8083   -4.5087    1.1039 H   0  0  0  0  0  0  0  0  0  0  0  0
    4.2962   -0.4973    0.5806 H   0  0  0  0  0  0  0  0  0  0  0  0
    1.9838   -0.6462    1.4596 H   0  0  0  0  0  0  0  0  0  0  0  0
    1.8460   -2.3879    0.9123 H   0  0  0  0  0  0  0  0  0  0  0  0
    3.4381   -1.0367    4.1182 H   0  0  0  0  0  0  0  0  0  0  0  0
    3.9840    0.0726    2.8657 H   0  0  0  0  0  0  0  0  0  0  0  0
    5.1167   -1.1097    3.5310 H   0  0  0  0  0  0  0  0  0  0  0  0
    4.9155   -3.4333    3.0073 H   0  0  0  0  0  0  0  0  0  0  0  0
    3.0349   -3.1663    4.5668 H   0  0  0  0  0  0  0  0  0  0  0  0
    1.4149   -2.8733    3.0722 H   0  0  0  0  0  0  0  0  0  0  0  0
    4.1600   -5.0756    4.9174 H   0  0  0  0  0  0  0  0  0  0  0  0
    2.5235   -5.6037    4.9377 H   0  0  0  0  0  0  0  0  0  0  0  0
    5.6933   -6.5489    4.1788 H   0  0  0  0  0  0  0  0  0  0  0  0
    5.1926   -8.0260    3.3834 H   0  0  0  0  0  0  0  0  0  0  0  0
    4.4916   -7.5770    4.9345 H   0  0  0  0  0  0  0  0  0  0  0  0
  1  2  1  0
  1 26  1  0
  1 27  1  0
  1 28  1  0
  2  3  1  0
  3  4  1  0
  3 29  1  0
  3 30  1  0
  4  5  2  0
  4  6  1  0
  6 24  1  0
  6  7  1  1
  6  8  1  0
  7 31  1  0
  8  9  1  0
  8 32  1  0
  8 33  1  0
  9 10  1  0
  9 34  1  0
  9 35  1  0
 10 24  1  0
 10 11  1  0
 10 36  1  1
 11 20  1  0
 11 12  1  0
 11 37  1  6
 12 13  2  0
 12 14  1  0
 14 15  2  0
 14 16  1  0
 16 18  1  0
 16 17  1  0
 16 38  1  1
 17 18  1  0
 17 39  1  0
 17 40  1  0
 18 19  1  1
 18 20  1  0
 19 41  1  0
 19 42  1  0
 19 43  1  0
 20 21  1  0
 20 44  1  1
 21 22  1  0
 21 23  1  0
 21 45  1  1
 22 46  1  0
 23 24  1  0
 23 47  1  0
 23 48  1  0
 24 25  1  1
 25 49  1  0
 25 50  1  0
 25 51  1  0
M  END
>  <i_m_ct_stereo_status>  (321) 
1

>  <s_m_source_file>  (321) 
/var/tmp/pbs.5076255.sched01/tmpp4327t_d/123x5hmlc3y.sdf

>  <i_m_source_file_index>  (321) 
10

>  <i_lp_mmshare_version>  (321) 
48012

>  <i_f3d_flags>  (321) 
0

>  <s_epik_input>  (321) 
W0NIM11TW0NIMl1DKD1PKVtDQEBdKFtPSF0pKFtDSDJdW0NIMl0xKVtDQF0oW0NIM10pKFtDSDJdW0NAQEhdKFtDQEBIXTIzKVtPSF0pW0NAQEhdMVtDQEBIXTJDKD1PKUMoPU8pW0NAQEhdKFtDSDJdNClbQ0BdMzRbQ0gzXQ==

>  <s_epik_cmdline>  (321) 
J2VwaWtfcHl0aG9uJywgJy1waHQnLCAnMi4wJywgJy1waCcsICc3LjAnLCAnLXRuJywgJzgnLCAnLW1hJywgJzIwMCcsICctaW1hZScsICc8aW5maWxlLm1hZT4nLCAnLW9tYWUnLCAnPG91dGZpbGUubWFlPic=

>  <r_lp_tautomer_probability>  (321) 
1

>  <r_epik_Ionization_Penalty>  (321) 
5.18305e-08

>  <r_epik_Ionization_Penalty_Charging>  (321) 
0

>  <r_epik_Ionization_Penalty_Neutral>  (321) 
5.18305e-08

>  <r_epik_State_Penalty>  (321) 
-0

>  <r_epik_Charging_Adjusted_Penalty>  (321) 
0

>  <i_epik_Tot_Q>  (321) 
0

>  <i_epik_Tot_abs_Q>  (321) 
0

>  <s_lp_Force_Field>  (321) 
OPLS3e

>  <r_lp_Energy>  (321) 
51.6589

>  <b_lp_Chiralities_Consistent>  (321) 
1

>  <s_lp_Variant>  (321) 
95:0-1

>  <s_i_glide_gridfile>  (321) 
pfpi4k_grid

>  <i_i_glide_lignum>  (321) 
10

>  <i_i_glide_rotatable_bonds>  (321) 
5

>  <r_i_docking_score>  (321) 
-2.93523

>  <r_i_glide_ligand_efficiency>  (321) 
-0.117409

>  <r_i_glide_ligand_efficiency_sa>  (321) 
-0.343307

>  <r_i_glide_ligand_efficiency_ln>  (321) 
-0.695737

>  <r_i_glide_gscore>  (321) 
-2.93523

>  <r_i_glide_lipo>  (321) 
-0.167167

>  <r_i_glide_hbond>  (321) 
-0.16

>  <r_i_glide_metal>  (321) 
-0

>  <r_i_glide_rewards>  (321) 
-0.954407

>  <r_i_glide_evdw>  (321) 
-23.5543

>  <r_i_glide_ecoul>  (321) 
-4.76813

>  <r_i_glide_erotb>  (321) 
0.286634

>  <r_i_glide_esite>  (321) 
-0.0473531

>  <r_i_glide_emodel>  (321) 
-33.0299

>  <r_i_glide_energy>  (321) 
-28.3225

>  <r_i_glide_einternal>  (321) 
2.58934

>  <r_i_glide_intrahb_reward>  (321) 
-0

>  <i_i_glide_confnum>  (321) 
4

>  <i_i_glide_posenum>  (321) 
13

>  <r_i_glide_eff_state_penalty>  (321) 
0

>  <ligand_id>  (321) 
95

>  <original_smiles>  (321) 
CSCC(=O)C1(O)CCC2C3C(=O)C(=O)C4CC4(C)C3C(O)CC21C

>  <smiles>  (321) 
[H]OC1([H])C([H])([H])C2(C([H])([H])[H])C(O[H])(C(=O)C([H])([H])SC([H])([H])[H])C([H])([H])C([H])([H])C2([H])C2([H])C(=O)C(=O)C3([H])C([H])([H])C3(C([H])([H])[H])C12[H]

$$$$
95:0:1
     RDKit          3D

 51 54  0  0  1  0  0  0  0  0999 V2000
    4.7351   -3.9044   -1.6267 C   0  0  0  0  0  0  0  0  0  0  0  0
    5.1246   -4.4773    0.0421 S   0  0  0  0  0  0  0  0  0  0  0  0
    4.1190   -5.9874    0.0872 C   0  0  0  0  0  0  0  0  0  0  0  0
    4.0637   -6.5388    1.5171 C   0  0  0  0  0  0  0  0  0  0  0  0
    3.8723   -5.7537    2.4438 O   0  0  0  0  0  0  0  0  0  0  0  0
    4.2391   -8.0568    1.7888 C   0  0  1  0  0  0  0  0  0  0  0  0
    4.5711   -8.7227    0.5829 O   0  0  0  0  0  0  0  0  0  0  0  0
    5.3935   -8.2559    2.7882 C   0  0  0  0  0  0  0  0  0  0  0  0
    4.7620   -8.1968    4.1888 C   0  0  0  0  0  0  0  0  0  0  0  0
    3.2414   -8.4627    4.0400 C   0  0  1  0  0  0  0  0  0  0  0  0
    2.3503   -7.3418    4.6752 C   0  0  2  0  0  0  0  0  0  0  0  0
    2.4869   -7.2827    6.2073 C   0  0  0  0  0  0  0  0  0  0  0  0
    3.2626   -8.0005    6.8410 O   0  0  0  0  0  0  0  0  0  0  0  0
    1.5985   -6.2602    6.9392 C   0  0  0  0  0  0  0  0  0  0  0  0
    1.9762   -5.7371    7.9886 O   0  0  0  0  0  0  0  0  0  0  0  0
    0.2738   -5.9021    6.3215 C   0  0  1  0  0  0  0  0  0  0  0  0
    0.2601   -5.0163    5.0916 C   0  0  0  0  0  0  0  0  0  0  0  0
   -0.0824   -6.4834    4.9619 C   0  0  2  0  0  0  0  0  0  0  0  0
   -1.5315   -6.8915    4.7709 C   0  0  0  0  0  0  0  0  0  0  0  0
    0.8694   -7.4515    4.2347 C   0  0  1  0  0  0  0  0  0  0  0  0
    0.7700   -7.3376    2.6963 C   0  0  1  0  0  0  0  0  0  0  0  0
    1.0619   -6.0353    2.2169 O   0  0  0  0  0  0  0  0  0  0  0  0
    1.6027   -8.4167    1.9786 C   0  0  0  0  0  0  0  0  0  0  0  0
    3.0288   -8.7540    2.5217 C   0  0  1  0  0  0  0  0  0  0  0  0
    3.1627  -10.2927    2.3491 C   0  0  0  0  0  0  0  0  0  0  0  0
    5.2852   -2.9874   -1.8347 H   0  0  0  0  0  0  0  0  0  0  0  0
    3.6673   -3.7024   -1.7170 H   0  0  0  0  0  0  0  0  0  0  0  0
    5.0149   -4.6550   -2.3662 H   0  0  0  0  0  0  0  0  0  0  0  0
    3.0971   -5.7524   -0.2079 H   0  0  0  0  0  0  0  0  0  0  0  0
    4.5106   -6.6944   -0.6408 H   0  0  0  0  0  0  0  0  0  0  0  0
    4.6146   -9.6565    0.7562 H   0  0  0  0  0  0  0  0  0  0  0  0
    5.8707   -9.2259    2.6467 H   0  0  0  0  0  0  0  0  0  0  0  0
    6.1866   -7.5157    2.6811 H   0  0  0  0  0  0  0  0  0  0  0  0
    5.2281   -8.9340    4.8470 H   0  0  0  0  0  0  0  0  0  0  0  0
    4.9512   -7.2176    4.6340 H   0  0  0  0  0  0  0  0  0  0  0  0
    3.0094   -9.3797    4.5920 H   0  0  0  0  0  0  0  0  0  0  0  0
    2.7150   -6.3721    4.3511 H   0  0  0  0  0  0  0  0  0  0  0  0
   -0.5396   -5.7646    7.0330 H   0  0  0  0  0  0  0  0  0  0  0  0
   -0.5551   -4.2998    5.0309 H   0  0  0  0  0  0  0  0  0  0  0  0
    1.2064   -4.6715    4.6814 H   0  0  0  0  0  0  0  0  0  0  0  0
   -1.8464   -6.7760    3.7379 H   0  0  0  0  0  0  0  0  0  0  0  0
   -2.1836   -6.2623    5.3810 H   0  0  0  0  0  0  0  0  0  0  0  0
   -1.6718   -7.9341    5.0566 H   0  0  0  0  0  0  0  0  0  0  0  0
    0.5324   -8.4570    4.5019 H   0  0  0  0  0  0  0  0  0  0  0  0
   -0.2656   -7.5052    2.3990 H   0  0  0  0  0  0  0  0  0  0  0  0
    1.9723   -5.8272    2.4169 H   0  0  0  0  0  0  0  0  0  0  0  0
    0.9910   -9.3170    2.0649 H   0  0  0  0  0  0  0  0  0  0  0  0
    1.6345   -8.2112    0.9101 H   0  0  0  0  0  0  0  0  0  0  0  0
    2.4134  -10.8308    2.9350 H   0  0  0  0  0  0  0  0  0  0  0  0
    4.1359  -10.6819    2.6467 H   0  0  0  0  0  0  0  0  0  0  0  0
    3.0070  -10.5673    1.3078 H   0  0  0  0  0  0  0  0  0  0  0  0
  1  2  1  0
  1 26  1  0
  1 27  1  0
  1 28  1  0
  2  3  1  0
  3  4  1  0
  3 29  1  0
  3 30  1  0
  4  5  2  0
  4  6  1  0
  6 24  1  0
  6  7  1  6
  6  8  1  0
  7 31  1  0
  8  9  1  0
  8 32  1  0
  8 33  1  0
  9 10  1  0
  9 34  1  0
  9 35  1  0
 10 24  1  0
 10 11  1  0
 10 36  1  1
 11 20  1  0
 11 12  1  0
 11 37  1  6
 12 13  2  0
 12 14  1  0
 14 15  2  0
 14 16  1  0
 16 18  1  0
 16 17  1  0
 16 38  1  1
 17 18  1  0
 17 39  1  0
 17 40  1  0
 18 19  1  1
 18 20  1  0
 19 41  1  0
 19 42  1  0
 19 43  1  0
 20 21  1  0
 20 44  1  6
 21 22  1  0
 21 23  1  0
 21 45  1  1
 22 46  1  0
 23 24  1  0
 23 47  1  0
 23 48  1  0
 24 25  1  1
 25 49  1  0
 25 50  1  0
 25 51  1  0
M  END
>  <i_m_ct_stereo_status>  (322) 
1

>  <s_m_source_file>  (322) 
/var/tmp/pbs.5076255.sched01/tmpp4327t_d/123x5hmlc3y.sdf

>  <i_m_source_file_index>  (322) 
10

>  <i_lp_mmshare_version>  (322) 
48012

>  <i_f3d_flags>  (322) 
0

>  <s_epik_input>  (322) 
W0NIM11TW0NIMl1DKD1PKVtDQEBdKFtPSF0pKFtDSDJdW0NIMl0xKVtDQF0oW0NIM10pKFtDSDJdW0NAQEhdKFtDQEBIXTIzKVtPSF0pW0NAQEhdMVtDQEBIXTJDKD1PKUMoPU8pW0NAQEhdKFtDSDJdNClbQ0BdMzRbQ0gzXQ==

>  <s_epik_cmdline>  (322) 
J2VwaWtfcHl0aG9uJywgJy1waHQnLCAnMi4wJywgJy1waCcsICc3LjAnLCAnLXRuJywgJzgnLCAnLW1hJywgJzIwMCcsICctaW1hZScsICc8aW5maWxlLm1hZT4nLCAnLW9tYWUnLCAnPG91dGZpbGUubWFlPic=

>  <r_lp_tautomer_probability>  (322) 
1

>  <r_epik_Ionization_Penalty>  (322) 
5.18305e-08

>  <r_epik_Ionization_Penalty_Charging>  (322) 
0

>  <r_epik_Ionization_Penalty_Neutral>  (322) 
5.18305e-08

>  <r_epik_State_Penalty>  (322) 
-0

>  <r_epik_Charging_Adjusted_Penalty>  (322) 
0

>  <i_epik_Tot_Q>  (322) 
0

>  <i_epik_Tot_abs_Q>  (322) 
0

>  <s_lp_Force_Field>  (322) 
OPLS3e

>  <r_lp_Energy>  (322) 
51.6589

>  <b_lp_Chiralities_Consistent>  (322) 
1

>  <s_lp_Variant>  (322) 
95:0-1

>  <s_i_glide_gridfile>  (322) 
pfpi4k_grid

>  <i_i_glide_lignum>  (322) 
10

>  <i_i_glide_rotatable_bonds>  (322) 
5

>  <r_i_docking_score>  (322) 
-2.86291

>  <r_i_glide_ligand_efficiency>  (322) 
-0.114516

>  <r_i_glide_ligand_efficiency_sa>  (322) 
-0.334848

>  <r_i_glide_ligand_efficiency_ln>  (322) 
-0.678595

>  <r_i_glide_gscore>  (322) 
-2.86291

>  <r_i_glide_lipo>  (322) 
-0.0853299

>  <r_i_glide_hbond>  (322) 
0

>  <r_i_glide_metal>  (322) 
-0

>  <r_i_glide_rewards>  (322) 
-1.49189

>  <r_i_glide_evdw>  (322) 
-19.1074

>  <r_i_glide_ecoul>  (322) 
-4.11302

>  <r_i_glide_erotb>  (322) 
0.286634

>  <r_i_glide_esite>  (322) 
0

>  <r_i_glide_emodel>  (322) 
-33.6159

>  <r_i_glide_energy>  (322) 
-23.2205

>  <r_i_glide_einternal>  (322) 
0.764704

>  <r_i_glide_intrahb_reward>  (322) 
-0.5

>  <i_i_glide_confnum>  (322) 
2

>  <i_i_glide_posenum>  (322) 
16

>  <r_i_glide_eff_state_penalty>  (322) 
0

>  <ligand_id>  (322) 
95

>  <original_smiles>  (322) 
CSCC(=O)C1(O)CCC2C3C(=O)C(=O)C4CC4(C)C3C(O)CC21C

>  <smiles>  (322) 
[H]OC1([H])C([H])([H])C2(C([H])([H])[H])C(O[H])(C(=O)C([H])([H])SC([H])([H])[H])C([H])([H])C([H])([H])C2([H])C2([H])C(=O)C(=O)C3([H])C([H])([H])C3(C([H])([H])[H])C12[H]

$$$$
95:0:2
     RDKit          3D

 51 54  0  0  1  0  0  0  0  0999 V2000
   -0.9395   -9.2340    2.7014 C   0  0  0  0  0  0  0  0  0  0  0  0
   -1.3197   -7.4763    2.9435 S   0  0  0  0  0  0  0  0  0  0  0  0
    0.2652   -6.9409    3.6460 C   0  0  0  0  0  0  0  0  0  0  0  0
    1.3412   -6.8325    2.5580 C   0  0  0  0  0  0  0  0  0  0  0  0
    1.0682   -6.2593    1.4988 O   0  0  0  0  0  0  0  0  0  0  0  0
    2.7359   -7.4788    2.7975 C   0  0  1  0  0  0  0  0  0  0  0  0
    2.6132   -8.4977    3.7778 O   0  0  0  0  0  0  0  0  0  0  0  0
    3.2437   -8.1261    1.4997 C   0  0  0  0  0  0  0  0  0  0  0  0
    4.0178   -7.0227    0.7621 C   0  0  0  0  0  0  0  0  0  0  0  0
    4.3946   -5.9249    1.7919 C   0  0  1  0  0  0  0  0  0  0  0  0
    3.8858   -4.5015    1.3822 C   0  0  2  0  0  0  0  0  0  0  0  0
    4.5868   -3.9791    0.1110 C   0  0  0  0  0  0  0  0  0  0  0  0
    5.4137   -4.6481   -0.5056 O   0  0  0  0  0  0  0  0  0  0  0  0
    4.2549   -2.5476   -0.3439 C   0  0  0  0  0  0  0  0  0  0  0  0
    4.3353   -2.2336   -1.5334 O   0  0  0  0  0  0  0  0  0  0  0  0
    3.8541   -1.5499    0.7061 C   0  0  1  0  0  0  0  0  0  0  0  0
    2.4888   -1.6676    1.3518 C   0  0  0  0  0  0  0  0  0  0  0  0
    3.7227   -2.0189    2.1489 C   0  0  2  0  0  0  0  0  0  0  0  0
    4.2056   -1.0363    3.2084 C   0  0  0  0  0  0  0  0  0  0  0  0
    4.0116   -3.4840    2.5455 C   0  0  1  0  0  0  0  0  0  0  0  0
    3.1504   -3.9681    3.7332 C   0  0  1  0  0  0  0  0  0  0  0  0
    1.7673   -3.9167    3.4413 O   0  0  0  0  0  0  0  0  0  0  0  0
    3.5648   -5.3698    4.2223 C   0  0  0  0  0  0  0  0  0  0  0  0
    3.8957   -6.4751    3.1652 C   0  0  1  0  0  0  0  0  0  0  0  0
    5.0863   -7.2700    3.7890 C   0  0  0  0  0  0  0  0  0  0  0  0
   -1.7693   -9.7451    2.2166 H   0  0  0  0  0  0  0  0  0  0  0  0
   -0.7548   -9.7074    3.6650 H   0  0  0  0  0  0  0  0  0  0  0  0
   -0.0524   -9.3657    2.0808 H   0  0  0  0  0  0  0  0  0  0  0  0
    0.1368   -5.9582    4.0961 H   0  0  0  0  0  0  0  0  0  0  0  0
    0.5379   -7.6202    4.4500 H   0  0  0  0  0  0  0  0  0  0  0  0
    2.0866   -9.1988    3.4229 H   0  0  0  0  0  0  0  0  0  0  0  0
    3.9149   -8.9588    1.7160 H   0  0  0  0  0  0  0  0  0  0  0  0
    2.4419   -8.5464    0.8910 H   0  0  0  0  0  0  0  0  0  0  0  0
    4.9024   -7.4415    0.2781 H   0  0  0  0  0  0  0  0  0  0  0  0
    3.3973   -6.6008   -0.0291 H   0  0  0  0  0  0  0  0  0  0  0  0
    5.4871   -5.8688    1.8287 H   0  0  0  0  0  0  0  0  0  0  0  0
    2.8327   -4.5730    1.1159 H   0  0  0  0  0  0  0  0  0  0  0  0
    4.2333   -0.5391    0.5486 H   0  0  0  0  0  0  0  0  0  0  0  0
    1.9861   -0.7354    1.5872 H   0  0  0  0  0  0  0  0  0  0  0  0
    1.8302   -2.4729    1.0327 H   0  0  0  0  0  0  0  0  0  0  0  0
    3.6325   -1.1456    4.1290 H   0  0  0  0  0  0  0  0  0  0  0  0
    4.0748   -0.0091    2.8605 H   0  0  0  0  0  0  0  0  0  0  0  0
    5.2642   -1.1882    3.4229 H   0  0  0  0  0  0  0  0  0  0  0  0
    5.0514   -3.5017    2.8805 H   0  0  0  0  0  0  0  0  0  0  0  0
    3.2885   -3.2853    4.5716 H   0  0  0  0  0  0  0  0  0  0  0  0
    1.2869   -4.0339    4.2469 H   0  0  0  0  0  0  0  0  0  0  0  0
    4.4632   -5.1857    4.8139 H   0  0  0  0  0  0  0  0  0  0  0  0
    2.8401   -5.7425    4.9439 H   0  0  0  0  0  0  0  0  0  0  0  0
    5.9557   -6.6262    3.9435 H   0  0  0  0  0  0  0  0  0  0  0  0
    5.4176   -8.0982    3.1628 H   0  0  0  0  0  0  0  0  0  0  0  0
    4.8246   -7.6819    4.7674 H   0  0  0  0  0  0  0  0  0  0  0  0
  1  2  1  0
  1 26  1  0
  1 27  1  0
  1 28  1  0
  2  3  1  0
  3  4  1  0
  3 29  1  0
  3 30  1  0
  4  5  2  0
  4  6  1  0
  6 24  1  0
  6  7  1  1
  6  8  1  0
  7 31  1  0
  8  9  1  0
  8 32  1  0
  8 33  1  0
  9 10  1  0
  9 34  1  0
  9 35  1  0
 10 24  1  0
 10 11  1  0
 10 36  1  1
 11 20  1  0
 11 12  1  0
 11 37  1  6
 12 13  2  0
 12 14  1  0
 14 15  2  0
 14 16  1  0
 16 18  1  0
 16 17  1  0
 16 38  1  1
 17 18  1  0
 17 39  1  0
 17 40  1  0
 18 19  1  1
 18 20  1  0
 19 41  1  0
 19 42  1  0
 19 43  1  0
 20 21  1  0
 20 44  1  1
 21 22  1  0
 21 23  1  0
 21 45  1  1
 22 46  1  0
 23 24  1  0
 23 47  1  0
 23 48  1  0
 24 25  1  1
 25 49  1  0
 25 50  1  0
 25 51  1  0
M  END
>  <i_m_ct_stereo_status>  (323) 
1

>  <s_m_source_file>  (323) 
/var/tmp/pbs.5076255.sched01/tmpp4327t_d/123x5hmlc3y.sdf

>  <i_m_source_file_index>  (323) 
10

>  <i_lp_mmshare_version>  (323) 
48012

>  <i_f3d_flags>  (323) 
0

>  <s_epik_input>  (323) 
W0NIM11TW0NIMl1DKD1PKVtDQEBdKFtPSF0pKFtDSDJdW0NIMl0xKVtDQF0oW0NIM10pKFtDSDJdW0NAQEhdKFtDQEBIXTIzKVtPSF0pW0NAQEhdMVtDQEBIXTJDKD1PKUMoPU8pW0NAQEhdKFtDSDJdNClbQ0BdMzRbQ0gzXQ==

>  <s_epik_cmdline>  (323) 
J2VwaWtfcHl0aG9uJywgJy1waHQnLCAnMi4wJywgJy1waCcsICc3LjAnLCAnLXRuJywgJzgnLCAnLW1hJywgJzIwMCcsICctaW1hZScsICc8aW5maWxlLm1hZT4nLCAnLW9tYWUnLCAnPG91dGZpbGUubWFlPic=

>  <r_lp_tautomer_probability>  (323) 
1

>  <r_epik_Ionization_Penalty>  (323) 
5.18305e-08

>  <r_epik_Ionization_Penalty_Charging>  (323) 
0

>  <r_epik_Ionization_Penalty_Neutral>  (323) 
5.18305e-08

>  <r_epik_State_Penalty>  (323) 
-0

>  <r_epik_Charging_Adjusted_Penalty>  (323) 
0

>  <i_epik_Tot_Q>  (323) 
0

>  <i_epik_Tot_abs_Q>  (323) 
0

>  <s_lp_Force_Field>  (323) 
OPLS3e

>  <r_lp_Energy>  (323) 
51.6589

>  <b_lp_Chiralities_Consistent>  (323) 
1

>  <s_lp_Variant>  (323) 
95:0-1

>  <s_i_glide_gridfile>  (323) 
pfpi4k_grid

>  <i_i_glide_lignum>  (323) 
10

>  <i_i_glide_rotatable_bonds>  (323) 
5

>  <r_i_docking_score>  (323) 
-2.7639

>  <r_i_glide_ligand_efficiency>  (323) 
-0.110556

>  <r_i_glide_ligand_efficiency_sa>  (323) 
-0.323268

>  <r_i_glide_ligand_efficiency_ln>  (323) 
-0.655128

>  <r_i_glide_gscore>  (323) 
-2.7639

>  <r_i_glide_lipo>  (323) 
-0.265147

>  <r_i_glide_hbond>  (323) 
-0.125006

>  <r_i_glide_metal>  (323) 
-0

>  <r_i_glide_rewards>  (323) 
-0.94755

>  <r_i_glide_evdw>  (323) 
-23.7702

>  <r_i_glide_ecoul>  (323) 
-3.22168

>  <r_i_glide_erotb>  (323) 
0.286634

>  <r_i_glide_esite>  (323) 
-0.0410739

>  <r_i_glide_emodel>  (323) 
-31.2881

>  <r_i_glide_energy>  (323) 
-26.9919

>  <r_i_glide_einternal>  (323) 
2.65962

>  <r_i_glide_intrahb_reward>  (323) 
-0

>  <i_i_glide_confnum>  (323) 
4

>  <i_i_glide_posenum>  (323) 
2

>  <r_i_glide_eff_state_penalty>  (323) 
0

>  <ligand_id>  (323) 
95

>  <original_smiles>  (323) 
CSCC(=O)C1(O)CCC2C3C(=O)C(=O)C4CC4(C)C3C(O)CC21C

>  <smiles>  (323) 
[H]OC1([H])C([H])([H])C2(C([H])([H])[H])C(O[H])(C(=O)C([H])([H])SC([H])([H])[H])C([H])([H])C([H])([H])C2([H])C2([H])C(=O)C(=O)C3([H])C([H])([H])C3(C([H])([H])[H])C12[H]

$$$$
97:0:0
     RDKit          3D

 22 24  0  0  1  0  0  0  0  0999 V2000
   -4.5227   -8.6731   -5.2461 C   0  0  0  0  0  0  0  0  0  0  0  0
   -5.4761   -8.4331   -6.3682 C   0  0  0  0  0  0  0  0  0  0  0  0
   -5.4076   -9.0580   -7.5441 N   0  0  0  0  0  0  0  0  0  0  0  0
   -6.4958   -8.5906   -8.2350 N   0  0  0  0  0  0  0  0  0  0  0  0
   -7.1689   -7.7466   -7.5293 N   0  0  0  0  0  0  0  0  0  0  0  0
   -6.5079   -7.5964   -6.3559 N   0  0  0  0  0  0  0  0  0  0  0  0
   -7.0555   -6.7714   -5.3338 C   0  0  2  0  0  0  0  0  0  0  0  0
   -7.8175   -5.4675   -5.6337 C   0  0  0  0  0  0  0  0  0  0  0  0
   -6.8754   -4.7165   -4.6938 C   0  0  2  0  0  0  0  0  0  0  0  0
   -5.5332   -4.1995   -5.1683 C   0  0  0  0  0  0  0  0  0  0  0  0
   -4.9223   -5.4960   -5.0599 O   0  0  0  0  0  0  0  0  0  0  0  0
   -6.1148   -5.9979   -4.4234 C   0  0  2  0  0  0  0  0  0  0  0  0
   -3.7350   -9.3537   -5.5732 H   0  0  0  0  0  0  0  0  0  0  0  0
   -5.0330   -9.1053   -4.3841 H   0  0  0  0  0  0  0  0  0  0  0  0
   -4.0335   -7.7479   -4.9504 H   0  0  0  0  0  0  0  0  0  0  0  0
   -7.6409   -7.4279   -4.7159 H   0  0  0  0  0  0  0  0  0  0  0  0
   -7.7156   -5.1280   -6.6712 H   0  0  0  0  0  0  0  0  0  0  0  0
   -8.8534   -5.4655   -5.2982 H   0  0  0  0  0  0  0  0  0  0  0  0
   -7.2648   -4.3295   -3.7461 H   0  0  0  0  0  0  0  0  0  0  0  0
   -5.5582   -3.8364   -6.1974 H   0  0  0  0  0  0  0  0  0  0  0  0
   -5.1277   -3.4979   -4.4523 H   0  0  0  0  0  0  0  0  0  0  0  0
   -6.0392   -6.2821   -3.3691 H   0  0  0  0  0  0  0  0  0  0  0  0
  1  2  1  0
  1 13  1  0
  1 14  1  0
  1 15  1  0
  2  6  1  0
  2  3  2  0
  3  4  1  0
  4  5  2  0
  5  6  1  0
  6  7  1  0
  7 12  1  0
  7  8  1  0
  7 16  1  1
  8  9  1  0
  8 17  1  0
  8 18  1  0
  9 12  1  0
  9 10  1  0
  9 19  1  1
 10 11  1  0
 10 20  1  0
 10 21  1  0
 11 12  1  0
 12 22  1  1
M  END
>  <i_m_ct_stereo_status>  (324) 
1

>  <s_m_source_file>  (324) 
/var/tmp/pbs.5076255.sched01/tmpp4327t_d/123x5hmlc3y.sdf

>  <i_m_source_file_index>  (324) 
12

>  <i_lp_mmshare_version>  (324) 
48012

>  <i_f3d_flags>  (324) 
0

>  <s_epik_input>  (324) 
W0NIM11jMW5ubm4xW0NASF0oW0NIMl0yKVtDQEhdKFtDQEhdMjMpT1tDSDJdMw==

>  <s_epik_cmdline>  (324) 
J2VwaWtfcHl0aG9uJywgJy1waHQnLCAnMi4wJywgJy1waCcsICc3LjAnLCAnLXRuJywgJzgnLCAnLW1hJywgJzIwMCcsICctaW1hZScsICc8aW5maWxlLm1hZT4nLCAnLW9tYWUnLCAnPG91dGZpbGUubWFlPic=

>  <r_lp_tautomer_probability>  (324) 
1

>  <r_epik_Ionization_Penalty>  (324) 
3.27215e-08

>  <r_epik_Ionization_Penalty_Charging>  (324) 
0

>  <r_epik_Ionization_Penalty_Neutral>  (324) 
3.27215e-08

>  <r_epik_State_Penalty>  (324) 
-0

>  <r_epik_Charging_Adjusted_Penalty>  (324) 
0

>  <i_epik_Tot_Q>  (324) 
0

>  <i_epik_Tot_abs_Q>  (324) 
0

>  <s_lp_Force_Field>  (324) 
OPLS3e

>  <r_lp_Energy>  (324) 
14.6377

>  <b_lp_Chiralities_Consistent>  (324) 
1

>  <s_lp_Variant>  (324) 
97:0-1

>  <s_i_glide_gridfile>  (324) 
pfpi4k_grid

>  <i_i_glide_lignum>  (324) 
12

>  <i_i_glide_rotatable_bonds>  (324) 
1

>  <r_i_docking_score>  (324) 
-6.40644

>  <r_i_glide_ligand_efficiency>  (324) 
-0.53387

>  <r_i_glide_ligand_efficiency_sa>  (324) 
-1.22226

>  <r_i_glide_ligand_efficiency_ln>  (324) 
-1.83834

>  <r_i_glide_gscore>  (324) 
-6.40644

>  <r_i_glide_lipo>  (324) 
-1.52289

>  <r_i_glide_hbond>  (324) 
-0.32

>  <r_i_glide_metal>  (324) 
-0

>  <r_i_glide_rewards>  (324) 
-3.67883

>  <r_i_glide_evdw>  (324) 
-17.6408

>  <r_i_glide_ecoul>  (324) 
-3.71034

>  <r_i_glide_erotb>  (324) 
0.553872

>  <r_i_glide_esite>  (324) 
0

>  <r_i_glide_emodel>  (324) 
-28.5277

>  <r_i_glide_energy>  (324) 
-21.3511

>  <r_i_glide_einternal>  (324) 
0.737118

>  <r_i_glide_intrahb_reward>  (324) 
-0

>  <i_i_glide_confnum>  (324) 
4

>  <i_i_glide_posenum>  (324) 
31

>  <r_i_glide_eff_state_penalty>  (324) 
0

>  <ligand_id>  (324) 
97

>  <original_smiles>  (324) 
Cc1nnnn1C1CC2COC21

>  <smiles>  (324) 
[H]C([H])([H])c1nnnn1C1([H])C([H])([H])C2([H])C([H])([H])OC12[H]

$$$$
97:0:1
     RDKit          3D

 22 24  0  0  1  0  0  0  0  0999 V2000
    2.3120   -4.3467   -0.2697 C   0  0  0  0  0  0  0  0  0  0  0  0
    3.6219   -3.8902   -0.7593 C   0  0  0  0  0  0  0  0  0  0  0  0
    4.7905   -4.2328   -0.2289 N   0  0  0  0  0  0  0  0  0  0  0  0
    5.7096   -3.5722   -1.0099 N   0  0  0  0  0  0  0  0  0  0  0  0
    5.1133   -2.8887   -1.9528 N   0  0  0  0  0  0  0  0  0  0  0  0
    3.7784   -3.0661   -1.7812 N   0  0  0  0  0  0  0  0  0  0  0  0
    2.8456   -2.3804   -2.6422 C   0  0  2  0  0  0  0  0  0  0  0  0
    2.9028   -2.5166   -4.1604 C   0  0  0  0  0  0  0  0  0  0  0  0
    2.9031   -0.9882   -4.3168 C   0  0  2  0  0  0  0  0  0  0  0  0
    4.1680   -0.1548   -4.2764 C   0  0  0  0  0  0  0  0  0  0  0  0
    4.2594   -0.2415   -2.8374 O   0  0  0  0  0  0  0  0  0  0  0  0
    2.9608   -0.8671   -2.8045 C   0  0  2  0  0  0  0  0  0  0  0  0
    2.4303   -5.0020    0.5959 H   0  0  0  0  0  0  0  0  0  0  0  0
    1.7679   -4.8709   -1.0563 H   0  0  0  0  0  0  0  0  0  0  0  0
    1.7987   -3.4408    0.0241 H   0  0  0  0  0  0  0  0  0  0  0  0
    1.8376   -2.6220   -2.3009 H   0  0  0  0  0  0  0  0  0  0  0  0
    3.8324   -2.9448   -4.5358 H   0  0  0  0  0  0  0  0  0  0  0  0
    2.0209   -3.0132   -4.5651 H   0  0  0  0  0  0  0  0  0  0  0  0
    2.0046   -0.4996   -4.7076 H   0  0  0  0  0  0  0  0  0  0  0  0
    4.9859   -0.6802   -4.7443 H   0  0  0  0  0  0  0  0  0  0  0  0
    4.0398    0.8664   -4.6396 H   0  0  0  0  0  0  0  0  0  0  0  0
    2.2003   -0.2411   -2.3642 H   0  0  0  0  0  0  0  0  0  0  0  0
  1  2  1  0
  1 13  1  0
  1 14  1  0
  1 15  1  0
  2  6  1  0
  2  3  2  0
  3  4  1  0
  4  5  2  0
  5  6  1  0
  6  7  1  0
  7 12  1  0
  7  8  1  0
  7 16  1  1
  8  9  1  0
  8 17  1  0
  8 18  1  0
  9 12  1  0
  9 10  1  0
  9 19  1  6
 10 11  1  0
 10 20  1  0
 10 21  1  0
 11 12  1  0
 12 22  1  1
M  END
>  <i_m_ct_stereo_status>  (325) 
1

>  <s_m_source_file>  (325) 
/var/tmp/pbs.5076255.sched01/tmpp4327t_d/123x5hmlc3y.sdf

>  <i_m_source_file_index>  (325) 
12

>  <i_lp_mmshare_version>  (325) 
48012

>  <i_f3d_flags>  (325) 
0

>  <s_epik_input>  (325) 
W0NIM11jMW5ubm4xW0NASF0oW0NIMl0yKVtDQEhdKFtDQEhdMjMpT1tDSDJdMw==

>  <s_epik_cmdline>  (325) 
J2VwaWtfcHl0aG9uJywgJy1waHQnLCAnMi4wJywgJy1waCcsICc3LjAnLCAnLXRuJywgJzgnLCAnLW1hJywgJzIwMCcsICctaW1hZScsICc8aW5maWxlLm1hZT4nLCAnLW9tYWUnLCAnPG91dGZpbGUubWFlPic=

>  <r_lp_tautomer_probability>  (325) 
1

>  <r_epik_Ionization_Penalty>  (325) 
3.27215e-08

>  <r_epik_Ionization_Penalty_Charging>  (325) 
0

>  <r_epik_Ionization_Penalty_Neutral>  (325) 
3.27215e-08

>  <r_epik_State_Penalty>  (325) 
-0

>  <r_epik_Charging_Adjusted_Penalty>  (325) 
0

>  <i_epik_Tot_Q>  (325) 
0

>  <i_epik_Tot_abs_Q>  (325) 
0

>  <s_lp_Force_Field>  (325) 
OPLS3e

>  <r_lp_Energy>  (325) 
14.6377

>  <b_lp_Chiralities_Consistent>  (325) 
1

>  <s_lp_Variant>  (325) 
97:0-1

>  <s_i_glide_gridfile>  (325) 
pfpi4k_grid

>  <i_i_glide_lignum>  (325) 
12

>  <i_i_glide_rotatable_bonds>  (325) 
1

>  <r_i_docking_score>  (325) 
-3.16429

>  <r_i_glide_ligand_efficiency>  (325) 
-0.263691

>  <r_i_glide_ligand_efficiency_sa>  (325) 
-0.603701

>  <r_i_glide_ligand_efficiency_ln>  (325) 
-0.907998

>  <r_i_glide_gscore>  (325) 
-3.16429

>  <r_i_glide_lipo>  (325) 
-0.329295

>  <r_i_glide_hbond>  (325) 
0

>  <r_i_glide_metal>  (325) 
-0

>  <r_i_glide_rewards>  (325) 
-2.25

>  <r_i_glide_evdw>  (325) 
-16.9915

>  <r_i_glide_ecoul>  (325) 
-1.74228

>  <r_i_glide_erotb>  (325) 
0.553872

>  <r_i_glide_esite>  (325) 
-0.0279476

>  <r_i_glide_emodel>  (325) 
-22.2682

>  <r_i_glide_energy>  (325) 
-18.7338

>  <r_i_glide_einternal>  (325) 
0.425313

>  <r_i_glide_intrahb_reward>  (325) 
-0

>  <i_i_glide_confnum>  (325) 
1

>  <i_i_glide_posenum>  (325) 
37

>  <r_i_glide_eff_state_penalty>  (325) 
0

>  <ligand_id>  (325) 
97

>  <original_smiles>  (325) 
Cc1nnnn1C1CC2COC21

>  <smiles>  (325) 
[H]C([H])([H])c1nnnn1C1([H])C([H])([H])C2([H])C([H])([H])OC12[H]

$$$$
97:0:2
     RDKit          3D

 22 24  0  0  1  0  0  0  0  0999 V2000
    1.0208   -2.7330    4.0452 C   0  0  0  0  0  0  0  0  0  0  0  0
   -0.0408   -1.8693    4.6019 C   0  0  0  0  0  0  0  0  0  0  0  0
   -0.9477   -2.2481    5.4917 N   0  0  0  0  0  0  0  0  0  0  0  0
   -1.7303   -1.1387    5.6775 N   0  0  0  0  0  0  0  0  0  0  0  0
   -1.2774   -0.1415    4.9783 N   0  0  0  0  0  0  0  0  0  0  0  0
   -0.2208   -0.5818    4.2565 N   0  0  0  0  0  0  0  0  0  0  0  0
    0.4860    0.2830    3.3581 C   0  0  2  0  0  0  0  0  0  0  0  0
    1.3448    1.4516    3.8738 C   0  0  0  0  0  0  0  0  0  0  0  0
    0.6315    2.4101    2.9128 C   0  0  2  0  0  0  0  0  0  0  0  0
   -0.6667    3.1177    3.2822 C   0  0  0  0  0  0  0  0  0  0  0  0
   -1.4548    1.9376    2.9869 O   0  0  0  0  0  0  0  0  0  0  0  0
   -0.2752    1.2779    2.4612 C   0  0  2  0  0  0  0  0  0  0  0  0
    0.9025   -3.7409    4.4479 H   0  0  0  0  0  0  0  0  0  0  0  0
    1.9989   -2.3412    4.3272 H   0  0  0  0  0  0  0  0  0  0  0  0
    0.9385   -2.7805    2.9586 H   0  0  0  0  0  0  0  0  0  0  0  0
    1.1006   -0.3448    2.7110 H   0  0  0  0  0  0  0  0  0  0  0  0
    1.1445    1.7244    4.9109 H   0  0  0  0  0  0  0  0  0  0  0  0
    2.4115    1.3446    3.6629 H   0  0  0  0  0  0  0  0  0  0  0  0
    1.2015    2.8094    2.0754 H   0  0  0  0  0  0  0  0  0  0  0  0
   -0.6760    3.3856    4.3321 H   0  0  0  0  0  0  0  0  0  0  0  0
   -0.9452    3.9620    2.6525 H   0  0  0  0  0  0  0  0  0  0  0  0
   -0.2914    1.0983    1.3876 H   0  0  0  0  0  0  0  0  0  0  0  0
  1  2  1  0
  1 13  1  0
  1 14  1  0
  1 15  1  0
  2  6  1  0
  2  3  2  0
  3  4  1  0
  4  5  2  0
  5  6  1  0
  6  7  1  0
  7 12  1  0
  7  8  1  0
  7 16  1  6
  8  9  1  0
  8 17  1  0
  8 18  1  0
  9 12  1  0
  9 10  1  0
  9 19  1  6
 10 11  1  0
 10 20  1  0
 10 21  1  0
 11 12  1  0
 12 22  1  6
M  END
>  <i_m_ct_stereo_status>  (326) 
1

>  <s_m_source_file>  (326) 
/var/tmp/pbs.5076255.sched01/tmpp4327t_d/123x5hmlc3y.sdf

>  <i_m_source_file_index>  (326) 
12

>  <i_lp_mmshare_version>  (326) 
48012

>  <i_f3d_flags>  (326) 
0

>  <s_epik_input>  (326) 
W0NIM11jMW5ubm4xW0NASF0oW0NIMl0yKVtDQEhdKFtDQEhdMjMpT1tDSDJdMw==

>  <s_epik_cmdline>  (326) 
J2VwaWtfcHl0aG9uJywgJy1waHQnLCAnMi4wJywgJy1waCcsICc3LjAnLCAnLXRuJywgJzgnLCAnLW1hJywgJzIwMCcsICctaW1hZScsICc8aW5maWxlLm1hZT4nLCAnLW9tYWUnLCAnPG91dGZpbGUubWFlPic=

>  <r_lp_tautomer_probability>  (326) 
1

>  <r_epik_Ionization_Penalty>  (326) 
3.27215e-08

>  <r_epik_Ionization_Penalty_Charging>  (326) 
0

>  <r_epik_Ionization_Penalty_Neutral>  (326) 
3.27215e-08

>  <r_epik_State_Penalty>  (326) 
-0

>  <r_epik_Charging_Adjusted_Penalty>  (326) 
0

>  <i_epik_Tot_Q>  (326) 
0

>  <i_epik_Tot_abs_Q>  (326) 
0

>  <s_lp_Force_Field>  (326) 
OPLS3e

>  <r_lp_Energy>  (326) 
14.6377

>  <b_lp_Chiralities_Consistent>  (326) 
1

>  <s_lp_Variant>  (326) 
97:0-1

>  <s_i_glide_gridfile>  (326) 
pfpi4k_grid

>  <i_i_glide_lignum>  (326) 
12

>  <i_i_glide_rotatable_bonds>  (326) 
1

>  <r_i_docking_score>  (326) 
-3.08803

>  <r_i_glide_ligand_efficiency>  (326) 
-0.257336

>  <r_i_glide_ligand_efficiency_sa>  (326) 
-0.589152

>  <r_i_glide_ligand_efficiency_ln>  (326) 
-0.886115

>  <r_i_glide_gscore>  (326) 
-3.08803

>  <r_i_glide_lipo>  (326) 
-0.0303019

>  <r_i_glide_hbond>  (326) 
0

>  <r_i_glide_metal>  (326) 
-0

>  <r_i_glide_rewards>  (326) 
-2.25

>  <r_i_glide_evdw>  (326) 
-12.6563

>  <r_i_glide_ecoul>  (326) 
-3.79336

>  <r_i_glide_erotb>  (326) 
0.553872

>  <r_i_glide_esite>  (326) 
-0.159782

>  <r_i_glide_emodel>  (326) 
-19.6769

>  <r_i_glide_energy>  (326) 
-16.4496

>  <r_i_glide_einternal>  (326) 
0.872961

>  <r_i_glide_intrahb_reward>  (326) 
-0

>  <i_i_glide_confnum>  (326) 
4

>  <i_i_glide_posenum>  (326) 
22

>  <r_i_glide_eff_state_penalty>  (326) 
0

>  <ligand_id>  (326) 
97

>  <original_smiles>  (326) 
Cc1nnnn1C1CC2COC21

>  <smiles>  (326) 
[H]C([H])([H])c1nnnn1C1([H])C([H])([H])C2([H])C([H])([H])OC12[H]

$$$$
98:0:0
     RDKit          3D

 47 50  0  0  1  0  0  0  0  0999 V2000
    3.7694   -5.9216    2.3022 C   0  0  0  0  0  0  0  0  0  0  0  0
    3.7701   -4.6738    1.3958 C   0  0  2  0  0  0  0  0  0  0  0  0
    2.3914   -4.5904    0.7349 C   0  0  0  0  0  0  0  0  0  0  0  0
    2.2336   -3.3881   -0.1960 C   0  0  0  0  0  0  0  0  0  0  0  0
    3.3669   -3.3494   -1.2179 C   0  0  1  0  0  0  0  0  0  0  0  0
    3.1788   -2.1911   -2.1731 C   0  0  0  0  0  0  0  0  0  0  0  0
    4.2846   -2.2401   -3.2154 C   0  0  1  0  0  0  0  0  0  0  0  0
    4.1858   -1.0799   -4.2203 C   0  0  0  0  0  0  0  0  0  0  0  0
    3.9017    0.2734   -3.5882 C   0  0  0  0  0  0  0  0  0  0  0  0
    3.7529    1.2735   -4.5518 O   0  0  0  0  0  0  0  0  0  0  0  0
    5.5413   -2.2210   -2.5454 O   0  0  0  0  0  0  0  0  0  0  0  0
    5.8137   -3.3287   -1.7141 C   0  0  1  0  0  0  0  0  0  0  0  0
    7.1241   -3.2504   -1.2001 O   0  0  0  0  0  0  0  0  0  0  0  0
    7.2202   -2.5582    0.0438 C   0  0  2  0  0  0  0  0  0  0  0  0
    8.6277   -1.9160    0.1120 C   0  0  0  0  0  0  0  0  0  0  0  0
    7.0446   -3.5351    1.2298 C   0  0  0  0  0  0  0  0  0  0  0  0
    6.3173   -4.8352    0.8667 C   0  0  0  0  0  0  0  0  0  0  0  0
    4.8934   -4.6374    0.3173 C   0  0  2  0  0  0  0  0  0  0  0  0
    4.7614   -3.3555   -0.5667 C   0  0  2  0  0  0  0  0  0  0  0  0
    4.8756   -2.1783    0.2385 O   0  0  0  0  0  0  0  0  0  0  0  0
    6.2374   -1.5398    0.0900 O   0  0  0  0  0  0  0  0  0  0  0  0
    3.8358   -6.8306    1.7181 H   0  0  0  0  0  0  0  0  0  0  0  0
    2.8314   -6.0264    2.8660 H   0  0  0  0  0  0  0  0  0  0  0  0
    4.6076   -5.9305    2.9961 H   0  0  0  0  0  0  0  0  0  0  0  0
    3.8611   -3.7852    2.0172 H   0  0  0  0  0  0  0  0  0  0  0  0
    2.1835   -5.4860    0.1413 H   0  0  0  0  0  0  0  0  0  0  0  0
    1.6434   -4.5265    1.5200 H   0  0  0  0  0  0  0  0  0  0  0  0
    1.2972   -3.4347   -0.7380 H   0  0  0  0  0  0  0  0  0  0  0  0
    2.2372   -2.4496    0.3505 H   0  0  0  0  0  0  0  0  0  0  0  0
    3.2728   -4.2453   -1.8752 H   0  0  0  0  0  0  0  0  0  0  0  0
    2.2090   -2.2536   -2.6483 H   0  0  0  0  0  0  0  0  0  0  0  0
    3.2008   -1.2692   -1.6156 H   0  0  0  0  0  0  0  0  0  0  0  0
    4.2722   -3.1653   -3.7946 H   0  0  0  0  0  0  0  0  0  0  0  0
    5.1118   -1.0471   -4.7631 H   0  0  0  0  0  0  0  0  0  0  0  0
    3.3952   -1.2418   -4.9658 H   0  0  0  0  0  0  0  0  0  0  0  0
    2.9321    0.2006   -3.1258 H   0  0  0  0  0  0  0  0  0  0  0  0
    4.6206    0.5598   -2.8255 H   0  0  0  0  0  0  0  0  0  0  0  0
    3.2462    1.9498   -4.1123 H   0  0  0  0  0  0  0  0  0  0  0  0
    5.7554   -4.2323   -2.3236 H   0  0  0  0  0  0  0  0  0  0  0  0
    8.8669   -1.2981   -0.7362 H   0  0  0  0  0  0  0  0  0  0  0  0
    9.4224   -2.6799    0.1342 H   0  0  0  0  0  0  0  0  0  0  0  0
    8.7251   -1.2571    0.9862 H   0  0  0  0  0  0  0  0  0  0  0  0
    8.0183   -3.8497    1.5958 H   0  0  0  0  0  0  0  0  0  0  0  0
    6.5607   -3.0247    2.0617 H   0  0  0  0  0  0  0  0  0  0  0  0
    6.9195   -5.3225    0.0868 H   0  0  0  0  0  0  0  0  0  0  0  0
    6.3331   -5.4854    1.7581 H   0  0  0  0  0  0  0  0  0  0  0  0
    4.7121   -5.4819   -0.3454 H   0  0  0  0  0  0  0  0  0  0  0  0
  1  2  1  0
  1 22  1  0
  1 23  1  0
  1 24  1  0
  2 18  1  0
  2  3  1  0
  2 25  1  1
  3  4  1  0
  3 26  1  0
  3 27  1  0
  4  5  1  0
  4 28  1  0
  4 29  1  0
  5 19  1  0
  5  6  1  0
  5 30  1  6
  6  7  1  0
  6 31  1  0
  6 32  1  0
  7  8  1  0
  7 11  1  0
  7 33  1  6
  8  9  1  0
  8 34  1  0
  8 35  1  0
  9 10  1  0
  9 36  1  0
  9 37  1  0
 10 38  1  0
 11 12  1  0
 12 19  1  0
 12 13  1  0
 12 39  1  6
 13 14  1  0
 14 21  1  0
 14 15  1  1
 14 16  1  0
 15 40  1  0
 15 41  1  0
 15 42  1  0
 16 17  1  0
 16 43  1  0
 16 44  1  0
 17 18  1  0
 17 45  1  0
 17 46  1  0
 18 19  1  0
 18 47  1  6
 19 20  1  1
 20 21  1  0
M  END
>  <i_m_ct_stereo_status>  (327) 
1

>  <s_m_source_file>  (327) 
/var/tmp/pbs.5076255.sched01/tmpp4327t_d/123x5hmlc3y.sdf

>  <i_m_source_file_index>  (327) 
13

>  <i_lp_mmshare_version>  (327) 
48012

>  <i_f3d_flags>  (327) 
0

>  <s_epik_input>  (327) 
W0NAQF0xMjNbQ0BIXTRbQ0gyXVtDSDJdW0NAQEhdKFtDSDNdKVtDQEBIXTJbQ0gyXVtDSDJdW0NAXShbQ0gzXSkoT08zKU9bQ0BASF0xT1tDQEBIXShbQ0gyXTQpW0NIMl1bQ0gyXVtPSF0=

>  <s_epik_cmdline>  (327) 
J2VwaWtfcHl0aG9uJywgJy1waHQnLCAnMi4wJywgJy1waCcsICc3LjAnLCAnLXRuJywgJzgnLCAnLW1hJywgJzIwMCcsICctaW1hZScsICc8aW5maWxlLm1hZT4nLCAnLW9tYWUnLCAnPG91dGZpbGUubWFlPic=

>  <r_lp_tautomer_probability>  (327) 
1

>  <r_epik_Ionization_Penalty>  (327) 
3.42294e-07

>  <r_epik_Ionization_Penalty_Charging>  (327) 
0

>  <r_epik_Ionization_Penalty_Neutral>  (327) 
3.42294e-07

>  <r_epik_State_Penalty>  (327) 
-0

>  <r_epik_Charging_Adjusted_Penalty>  (327) 
0

>  <i_epik_Tot_Q>  (327) 
0

>  <i_epik_Tot_abs_Q>  (327) 
0

>  <s_epik_Chemistry_Notes>  (327) 
This compound contains an acetal/aminal-like group ( X-CH(R)-Y where X, Y are N, S, or O) that may be acid/base labile, releasing an aldehyde.

>  <s_lp_Force_Field>  (327) 
OPLS3e

>  <r_lp_Energy>  (327) 
31.7708

>  <b_lp_Chiralities_Consistent>  (327) 
1

>  <s_lp_Variant>  (327) 
98:0-1

>  <s_i_glide_gridfile>  (327) 
pfpi4k_grid

>  <i_i_glide_lignum>  (327) 
13

>  <i_i_glide_rotatable_bonds>  (327) 
3

>  <r_i_docking_score>  (327) 
-3.81815

>  <r_i_glide_ligand_efficiency>  (327) 
-0.181816

>  <r_i_glide_ligand_efficiency_sa>  (327) 
-0.501618

>  <r_i_glide_ligand_efficiency_ln>  (327) 
-0.944029

>  <r_i_glide_gscore>  (327) 
-3.81815

>  <r_i_glide_lipo>  (327) 
-0.522218

>  <r_i_glide_hbond>  (327) 
-0.313332

>  <r_i_glide_metal>  (327) 
-0

>  <r_i_glide_rewards>  (327) 
-1.67367

>  <r_i_glide_evdw>  (327) 
-16.5565

>  <r_i_glide_ecoul>  (327) 
-5.95553

>  <r_i_glide_erotb>  (327) 
0.412233

>  <r_i_glide_esite>  (327) 
0

>  <r_i_glide_emodel>  (327) 
-24.2199

>  <r_i_glide_energy>  (327) 
-22.5121

>  <r_i_glide_einternal>  (327) 
5.29658

>  <r_i_glide_intrahb_reward>  (327) 
-0

>  <i_i_glide_confnum>  (327) 
3

>  <i_i_glide_posenum>  (327) 
16

>  <r_i_glide_eff_state_penalty>  (327) 
0

>  <ligand_id>  (327) 
98

>  <original_smiles>  (327) 
CC1CCC2CC(CCO)OC3OC4(C)CCC1C23OO4

>  <smiles>  (327) 
[H]OC([H])([H])C([H])([H])C1([H])OC2([H])OC3(C([H])([H])[H])OOC24C([H])(C([H])([H])C([H])([H])C([H])(C([H])([H])[H])C4([H])C([H])([H])C3([H])[H])C1([H])[H]

$$$$
98:0:1
     RDKit          3D

 47 50  0  0  1  0  0  0  0  0999 V2000
    3.4570   -6.7214    3.5459 C   0  0  0  0  0  0  0  0  0  0  0  0
    3.1934   -5.6478    2.4590 C   0  0  2  0  0  0  0  0  0  0  0  0
    2.4838   -6.3334    1.2737 C   0  0  0  0  0  0  0  0  0  0  0  0
    2.1944   -5.3829    0.1161 C   0  0  0  0  0  0  0  0  0  0  0  0
    3.4571   -4.6518   -0.3440 C   0  0  1  0  0  0  0  0  0  0  0  0
    3.1539   -3.6544   -1.4786 C   0  0  0  0  0  0  0  0  0  0  0  0
    4.4760   -3.0357   -1.9507 C   0  0  1  0  0  0  0  0  0  0  0  0
    4.2801   -2.0318   -3.0975 C   0  0  0  0  0  0  0  0  0  0  0  0
    3.6114   -0.7243   -2.6594 C   0  0  0  0  0  0  0  0  0  0  0  0
    3.4580    0.1463   -3.7571 O   0  0  0  0  0  0  0  0  0  0  0  0
    5.1164   -2.3915   -0.8530 O   0  0  0  0  0  0  0  0  0  0  0  0
    5.4313   -3.2019    0.2539 C   0  0  1  0  0  0  0  0  0  0  0  0
    6.0511   -2.4175    1.2422 O   0  0  0  0  0  0  0  0  0  0  0  0
    5.1497   -1.8553    2.1840 C   0  0  2  0  0  0  0  0  0  0  0  0
    5.7062   -0.4972    2.5949 C   0  0  0  0  0  0  0  0  0  0  0  0
    5.0168   -2.7982    3.4096 C   0  0  0  0  0  0  0  0  0  0  0  0
    5.3410   -4.2593    3.0839 C   0  0  0  0  0  0  0  0  0  0  0  0
    4.4809   -4.9008    1.9698 C   0  0  2  0  0  0  0  0  0  0  0  0
    4.1317   -3.8887    0.8173 C   0  0  2  0  0  0  0  0  0  0  0  0
    3.2040   -2.9329    1.3284 O   0  0  0  0  0  0  0  0  0  0  0  0
    3.8855   -1.6090    1.5917 O   0  0  0  0  0  0  0  0  0  0  0  0
    4.2752   -7.3761    3.2661 H   0  0  0  0  0  0  0  0  0  0  0  0
    2.5905   -7.3815    3.6758 H   0  0  0  0  0  0  0  0  0  0  0  0
    3.7052   -6.2981    4.5248 H   0  0  0  0  0  0  0  0  0  0  0  0
    2.5106   -4.9070    2.8711 H   0  0  0  0  0  0  0  0  0  0  0  0
    3.0910   -7.1610    0.9051 H   0  0  0  0  0  0  0  0  0  0  0  0
    1.5425   -6.7703    1.6045 H   0  0  0  0  0  0  0  0  0  0  0  0
    1.7433   -5.9317   -0.7142 H   0  0  0  0  0  0  0  0  0  0  0  0
    1.4556   -4.6603    0.4179 H   0  0  0  0  0  0  0  0  0  0  0  0
    4.1633   -5.4013   -0.7106 H   0  0  0  0  0  0  0  0  0  0  0  0
    2.6684   -4.1188   -2.3292 H   0  0  0  0  0  0  0  0  0  0  0  0
    2.4519   -2.9099   -1.1234 H   0  0  0  0  0  0  0  0  0  0  0  0
    5.1273   -3.8339   -2.3048 H   0  0  0  0  0  0  0  0  0  0  0  0
    5.2504   -1.8080   -3.5297 H   0  0  0  0  0  0  0  0  0  0  0  0
    3.6931   -2.4797   -3.8964 H   0  0  0  0  0  0  0  0  0  0  0  0
    2.6159   -0.9192   -2.2363 H   0  0  0  0  0  0  0  0  0  0  0  0
    4.2041   -0.2299   -1.8806 H   0  0  0  0  0  0  0  0  0  0  0  0
    2.9350    0.8905   -3.4468 H   0  0  0  0  0  0  0  0  0  0  0  0
    6.1545   -3.9406   -0.0795 H   0  0  0  0  0  0  0  0  0  0  0  0
    5.7836    0.1431    1.7191 H   0  0  0  0  0  0  0  0  0  0  0  0
    6.7015   -0.5909    3.0208 H   0  0  0  0  0  0  0  0  0  0  0  0
    5.0719   -0.0072    3.3329 H   0  0  0  0  0  0  0  0  0  0  0  0
    5.7122   -2.4870    4.1877 H   0  0  0  0  0  0  0  0  0  0  0  0
    4.0245   -2.7003    3.8462 H   0  0  0  0  0  0  0  0  0  0  0  0
    6.3732   -4.2887    2.7255 H   0  0  0  0  0  0  0  0  0  0  0  0
    5.3330   -4.8307    4.0156 H   0  0  0  0  0  0  0  0  0  0  0  0
    5.1141   -5.6631    1.5142 H   0  0  0  0  0  0  0  0  0  0  0  0
  1  2  1  0
  1 22  1  0
  1 23  1  0
  1 24  1  0
  2 18  1  0
  2  3  1  0
  2 25  1  1
  3  4  1  0
  3 26  1  0
  3 27  1  0
  4  5  1  0
  4 28  1  0
  4 29  1  0
  5 19  1  0
  5  6  1  0
  5 30  1  6
  6  7  1  0
  6 31  1  0
  6 32  1  0
  7  8  1  0
  7 11  1  0
  7 33  1  6
  8  9  1  0
  8 34  1  0
  8 35  1  0
  9 10  1  0
  9 36  1  0
  9 37  1  0
 10 38  1  0
 11 12  1  0
 12 19  1  0
 12 13  1  0
 12 39  1  6
 13 14  1  0
 14 21  1  0
 14 15  1  1
 14 16  1  0
 15 40  1  0
 15 41  1  0
 15 42  1  0
 16 17  1  0
 16 43  1  0
 16 44  1  0
 17 18  1  0
 17 45  1  0
 17 46  1  0
 18 19  1  0
 18 47  1  6
 19 20  1  1
 20 21  1  0
M  END
>  <i_m_ct_stereo_status>  (328) 
1

>  <s_m_source_file>  (328) 
/var/tmp/pbs.5076255.sched01/tmpp4327t_d/123x5hmlc3y.sdf

>  <i_m_source_file_index>  (328) 
13

>  <i_lp_mmshare_version>  (328) 
48012

>  <i_f3d_flags>  (328) 
0

>  <s_epik_input>  (328) 
W0NAQF0xMjNbQ0BIXTRbQ0gyXVtDSDJdW0NAQEhdKFtDSDNdKVtDQEBIXTJbQ0gyXVtDSDJdW0NAXShbQ0gzXSkoT08zKU9bQ0BASF0xT1tDQEBIXShbQ0gyXTQpW0NIMl1bQ0gyXVtPSF0=

>  <s_epik_cmdline>  (328) 
J2VwaWtfcHl0aG9uJywgJy1waHQnLCAnMi4wJywgJy1waCcsICc3LjAnLCAnLXRuJywgJzgnLCAnLW1hJywgJzIwMCcsICctaW1hZScsICc8aW5maWxlLm1hZT4nLCAnLW9tYWUnLCAnPG91dGZpbGUubWFlPic=

>  <r_lp_tautomer_probability>  (328) 
1

>  <r_epik_Ionization_Penalty>  (328) 
3.42294e-07

>  <r_epik_Ionization_Penalty_Charging>  (328) 
0

>  <r_epik_Ionization_Penalty_Neutral>  (328) 
3.42294e-07

>  <r_epik_State_Penalty>  (328) 
-0

>  <r_epik_Charging_Adjusted_Penalty>  (328) 
0

>  <i_epik_Tot_Q>  (328) 
0

>  <i_epik_Tot_abs_Q>  (328) 
0

>  <s_epik_Chemistry_Notes>  (328) 
This compound contains an acetal/aminal-like group ( X-CH(R)-Y where X, Y are N, S, or O) that may be acid/base labile, releasing an aldehyde.

>  <s_lp_Force_Field>  (328) 
OPLS3e

>  <r_lp_Energy>  (328) 
31.7708

>  <b_lp_Chiralities_Consistent>  (328) 
1

>  <s_lp_Variant>  (328) 
98:0-1

>  <s_i_glide_gridfile>  (328) 
pfpi4k_grid

>  <i_i_glide_lignum>  (328) 
13

>  <i_i_glide_rotatable_bonds>  (328) 
3

>  <r_i_docking_score>  (328) 
-3.12534

>  <r_i_glide_ligand_efficiency>  (328) 
-0.148826

>  <r_i_glide_ligand_efficiency_sa>  (328) 
-0.410599

>  <r_i_glide_ligand_efficiency_ln>  (328) 
-0.772734

>  <r_i_glide_gscore>  (328) 
-3.12534

>  <r_i_glide_lipo>  (328) 
-0.330438

>  <r_i_glide_hbond>  (328) 
-0.32

>  <r_i_glide_metal>  (328) 
-0

>  <r_i_glide_rewards>  (328) 
-1.5448

>  <r_i_glide_evdw>  (328) 
-14.6526

>  <r_i_glide_ecoul>  (328) 
-4.06473

>  <r_i_glide_erotb>  (328) 
0.412233

>  <r_i_glide_esite>  (328) 
0

>  <r_i_glide_emodel>  (328) 
-21.7104

>  <r_i_glide_energy>  (328) 
-18.7173

>  <r_i_glide_einternal>  (328) 
2.2899

>  <r_i_glide_intrahb_reward>  (328) 
-0

>  <i_i_glide_confnum>  (328) 
3

>  <i_i_glide_posenum>  (328) 
8

>  <r_i_glide_eff_state_penalty>  (328) 
0

>  <ligand_id>  (328) 
98

>  <original_smiles>  (328) 
CC1CCC2CC(CCO)OC3OC4(C)CCC1C23OO4

>  <smiles>  (328) 
[H]OC([H])([H])C([H])([H])C1([H])OC2([H])OC3(C([H])([H])[H])OOC24C([H])(C([H])([H])C([H])([H])C([H])(C([H])([H])[H])C4([H])C([H])([H])C3([H])[H])C1([H])[H]

$$$$
98:0:2
     RDKit          3D

 47 50  0  0  1  0  0  0  0  0999 V2000
    5.8507   -5.4866    3.3463 C   0  0  0  0  0  0  0  0  0  0  0  0
    4.9891   -4.7842    2.2771 C   0  0  2  0  0  0  0  0  0  0  0  0
    5.1082   -5.5769    0.9593 C   0  0  0  0  0  0  0  0  0  0  0  0
    4.3316   -4.9400   -0.1931 C   0  0  0  0  0  0  0  0  0  0  0  0
    4.7234   -3.4682   -0.3771 C   0  0  1  0  0  0  0  0  0  0  0  0
    3.9727   -2.8188   -1.5370 C   0  0  0  0  0  0  0  0  0  0  0  0
    4.4336   -1.3638   -1.6920 C   0  0  1  0  0  0  0  0  0  0  0  0
    3.6612   -0.6242   -2.7893 C   0  0  0  0  0  0  0  0  0  0  0  0
    3.9384   -1.1752   -4.1904 C   0  0  0  0  0  0  0  0  0  0  0  0
    3.4118   -0.2914   -5.1602 O   0  0  0  0  0  0  0  0  0  0  0  0
    4.2274   -0.6796   -0.4627 O   0  0  0  0  0  0  0  0  0  0  0  0
    4.9386   -1.1721    0.6399 C   0  0  1  0  0  0  0  0  0  0  0  0
    4.7178   -0.3594    1.7624 O   0  0  0  0  0  0  0  0  0  0  0  0
    3.6078   -0.7621    2.5596 C   0  0  2  0  0  0  0  0  0  0  0  0
    2.9815    0.5034    3.1531 C   0  0  0  0  0  0  0  0  0  0  0  0
    4.0837   -1.7059    3.6857 C   0  0  0  0  0  0  0  0  0  0  0  0
    5.3868   -2.4422    3.3548 C   0  0  0  0  0  0  0  0  0  0  0  0
    5.3745   -3.2904    2.0587 C   0  0  2  0  0  0  0  0  0  0  0  0
    4.5112   -2.6589    0.9223 C   0  0  2  0  0  0  0  0  0  0  0  0
    3.1333   -2.7397    1.3036 O   0  0  0  0  0  0  0  0  0  0  0  0
    2.6173   -1.3935    1.7669 O   0  0  0  0  0  0  0  0  0  0  0  0
    6.9144   -5.3278    3.1695 H   0  0  0  0  0  0  0  0  0  0  0  0
    5.7017   -6.5695    3.3330 H   0  0  0  0  0  0  0  0  0  0  0  0
    5.6302   -5.1411    4.3581 H   0  0  0  0  0  0  0  0  0  0  0  0
    3.9514   -4.8322    2.6081 H   0  0  0  0  0  0  0  0  0  0  0  0
    6.1572   -5.6525    0.6714 H   0  0  0  0  0  0  0  0  0  0  0  0
    4.7535   -6.5965    1.1022 H   0  0  0  0  0  0  0  0  0  0  0  0
    4.5477   -5.4887   -1.1092 H   0  0  0  0  0  0  0  0  0  0  0  0
    3.2589   -5.0243   -0.0183 H   0  0  0  0  0  0  0  0  0  0  0  0
    5.7845   -3.4498   -0.6305 H   0  0  0  0  0  0  0  0  0  0  0  0
    4.1580   -3.3848   -2.4487 H   0  0  0  0  0  0  0  0  0  0  0  0
    2.8967   -2.8512   -1.3615 H   0  0  0  0  0  0  0  0  0  0  0  0
    5.4970   -1.3301   -1.9275 H   0  0  0  0  0  0  0  0  0  0  0  0
    2.5918   -0.6570   -2.5819 H   0  0  0  0  0  0  0  0  0  0  0  0
    3.9417    0.4281   -2.7739 H   0  0  0  0  0  0  0  0  0  0  0  0
    5.0133   -1.2810   -4.3396 H   0  0  0  0  0  0  0  0  0  0  0  0
    3.4920   -2.1630   -4.3266 H   0  0  0  0  0  0  0  0  0  0  0  0
    2.4768   -0.4143   -5.2007 H   0  0  0  0  0  0  0  0  0  0  0  0
    6.0016   -1.1067    0.4051 H   0  0  0  0  0  0  0  0  0  0  0  0
    2.6230    1.1764    2.3760 H   0  0  0  0  0  0  0  0  0  0  0  0
    3.7040    1.0512    3.7565 H   0  0  0  0  0  0  0  0  0  0  0  0
    2.1382    0.2514    3.7954 H   0  0  0  0  0  0  0  0  0  0  0  0
    4.2727   -1.1282    4.5914 H   0  0  0  0  0  0  0  0  0  0  0  0
    3.2932   -2.4107    3.9505 H   0  0  0  0  0  0  0  0  0  0  0  0
    6.1505   -1.6734    3.2366 H   0  0  0  0  0  0  0  0  0  0  0  0
    5.7024   -3.0193    4.2202 H   0  0  0  0  0  0  0  0  0  0  0  0
    6.4077   -3.2952    1.7084 H   0  0  0  0  0  0  0  0  0  0  0  0
  1  2  1  0
  1 22  1  0
  1 23  1  0
  1 24  1  0
  2 18  1  0
  2  3  1  0
  2 25  1  1
  3  4  1  0
  3 26  1  0
  3 27  1  0
  4  5  1  0
  4 28  1  0
  4 29  1  0
  5 19  1  0
  5  6  1  0
  5 30  1  6
  6  7  1  0
  6 31  1  0
  6 32  1  0
  7  8  1  0
  7 11  1  0
  7 33  1  6
  8  9  1  0
  8 34  1  0
  8 35  1  0
  9 10  1  0
  9 36  1  0
  9 37  1  0
 10 38  1  0
 11 12  1  0
 12 19  1  0
 12 13  1  0
 12 39  1  6
 13 14  1  0
 14 21  1  0
 14 15  1  1
 14 16  1  0
 15 40  1  0
 15 41  1  0
 15 42  1  0
 16 17  1  0
 16 43  1  0
 16 44  1  0
 17 18  1  0
 17 45  1  0
 17 46  1  0
 18 19  1  0
 18 47  1  6
 19 20  1  1
 20 21  1  0
M  END
>  <i_m_ct_stereo_status>  (329) 
1

>  <s_m_source_file>  (329) 
/var/tmp/pbs.5076255.sched01/tmpp4327t_d/123x5hmlc3y.sdf

>  <i_m_source_file_index>  (329) 
13

>  <i_lp_mmshare_version>  (329) 
48012

>  <i_f3d_flags>  (329) 
0

>  <s_epik_input>  (329) 
W0NAQF0xMjNbQ0BIXTRbQ0gyXVtDSDJdW0NAQEhdKFtDSDNdKVtDQEBIXTJbQ0gyXVtDSDJdW0NAXShbQ0gzXSkoT08zKU9bQ0BASF0xT1tDQEBIXShbQ0gyXTQpW0NIMl1bQ0gyXVtPSF0=

>  <s_epik_cmdline>  (329) 
J2VwaWtfcHl0aG9uJywgJy1waHQnLCAnMi4wJywgJy1waCcsICc3LjAnLCAnLXRuJywgJzgnLCAnLW1hJywgJzIwMCcsICctaW1hZScsICc8aW5maWxlLm1hZT4nLCAnLW9tYWUnLCAnPG91dGZpbGUubWFlPic=

>  <r_lp_tautomer_probability>  (329) 
1

>  <r_epik_Ionization_Penalty>  (329) 
3.42294e-07

>  <r_epik_Ionization_Penalty_Charging>  (329) 
0

>  <r_epik_Ionization_Penalty_Neutral>  (329) 
3.42294e-07

>  <r_epik_State_Penalty>  (329) 
-0

>  <r_epik_Charging_Adjusted_Penalty>  (329) 
0

>  <i_epik_Tot_Q>  (329) 
0

>  <i_epik_Tot_abs_Q>  (329) 
0

>  <s_epik_Chemistry_Notes>  (329) 
This compound contains an acetal/aminal-like group ( X-CH(R)-Y where X, Y are N, S, or O) that may be acid/base labile, releasing an aldehyde.

>  <s_lp_Force_Field>  (329) 
OPLS3e

>  <r_lp_Energy>  (329) 
31.7708

>  <b_lp_Chiralities_Consistent>  (329) 
1

>  <s_lp_Variant>  (329) 
98:0-1

>  <s_i_glide_gridfile>  (329) 
pfpi4k_grid

>  <i_i_glide_lignum>  (329) 
13

>  <i_i_glide_rotatable_bonds>  (329) 
3

>  <r_i_docking_score>  (329) 
-2.46729

>  <r_i_glide_ligand_efficiency>  (329) 
-0.11749

>  <r_i_glide_ligand_efficiency_sa>  (329) 
-0.324147

>  <r_i_glide_ligand_efficiency_ln>  (329) 
-0.610034

>  <r_i_glide_gscore>  (329) 
-2.46729

>  <r_i_glide_lipo>  (329) 
-0.291172

>  <r_i_glide_hbond>  (329) 
-0.022123

>  <r_i_glide_metal>  (329) 
-0

>  <r_i_glide_rewards>  (329) 
-1.48338

>  <r_i_glide_evdw>  (329) 
-20.321

>  <r_i_glide_ecoul>  (329) 
-0.445323

>  <r_i_glide_erotb>  (329) 
0.412233

>  <r_i_glide_esite>  (329) 
0

>  <r_i_glide_emodel>  (329) 
-23.2876

>  <r_i_glide_energy>  (329) 
-20.7664

>  <r_i_glide_einternal>  (329) 
1.41415

>  <r_i_glide_intrahb_reward>  (329) 
-0

>  <i_i_glide_confnum>  (329) 
2

>  <i_i_glide_posenum>  (329) 
15

>  <r_i_glide_eff_state_penalty>  (329) 
0

>  <ligand_id>  (329) 
98

>  <original_smiles>  (329) 
CC1CCC2CC(CCO)OC3OC4(C)CCC1C23OO4

>  <smiles>  (329) 
[H]OC([H])([H])C([H])([H])C1([H])OC2([H])OC3(C([H])([H])[H])OOC24C([H])(C([H])([H])C([H])([H])C([H])(C([H])([H])[H])C4([H])C([H])([H])C3([H])[H])C1([H])[H]

$$$$
99:0:0
     RDKit          3D

 80 86  0  0  1  0  0  0  0  0999 V2000
    3.9368   -3.0490   -1.3086 C   0  0  0  0  0  0  0  0  0  0  0  0
    5.3842   -2.8316   -1.8041 C   0  0  0  0  0  0  0  0  0  0  0  0
    5.7246   -3.1941   -2.9204 O   0  0  0  0  0  0  0  0  0  0  0  0
    6.4089   -2.1923   -0.8374 C   0  0  0  0  0  0  0  0  0  0  0  0
    6.4308   -2.6633    0.6492 C   0  0  2  0  0  0  0  0  0  0  0  0
    6.8589   -4.1030    0.8380 C   0  0  0  0  0  0  0  0  0  0  0  0
    7.7004   -4.6762    0.1298 O   0  0  0  0  0  0  0  0  0  0  0  0
    6.1543   -4.7594    2.0062 C   0  0  0  0  0  0  0  0  0  0  0  0
    4.8486   -3.9445    2.1892 C   0  0  2  0  0  0  0  0  0  0  0  0
    4.5556   -3.6067    3.6201 C   0  0  0  0  0  0  0  0  0  0  0  0
    3.3949   -2.6108    3.4949 C   0  0  1  0  0  0  0  0  0  0  0  0
    2.1692   -3.2145    4.0784 C   0  0  0  0  0  0  0  0  0  0  0  0
    1.6871   -4.3822    3.5619 C   0  0  0  0  0  0  0  0  0  0  0  0
    0.6212   -5.0662    4.4895 C   0  0  0  0  0  0  0  0  0  0  0  0
    1.1327   -5.9662    5.5638 O   0  0  0  0  0  0  0  0  0  0  0  0
    0.9645   -7.3738    5.2602 C   0  0  1  0  0  0  0  0  0  0  0  0
    1.8528   -7.4835    4.0893 C   0  0  2  0  0  0  0  0  0  0  0  0
    0.8041   -7.9302    3.1894 O   0  0  0  0  0  0  0  0  0  0  0  0
    1.8228   -8.4023    2.3932 C   0  0  1  0  0  0  0  0  0  0  0  0
    2.2106   -7.2972    1.4835 O   0  0  0  0  0  0  0  0  0  0  0  0
    1.5709   -6.0612    1.7101 C   0  0  0  0  0  0  0  0  0  0  0  0
    2.2651   -5.0227    2.2819 C   0  0  0  0  0  0  0  0  0  0  0  0
    3.6679   -4.8499    1.6603 C   0  0  0  0  0  0  0  0  0  0  0  0
    3.9535   -5.4467    0.6131 O   0  0  0  0  0  0  0  0  0  0  0  0
    2.6800   -8.6515    3.7321 C   0  0  1  0  0  0  0  0  0  0  0  0
    4.1721   -8.9262    3.5153 C   0  0  1  0  0  0  0  0  0  0  0  0
    5.1316   -7.8520    4.0826 C   0  0  0  0  0  0  0  0  0  0  0  0
    4.3594  -10.3503    4.1370 C   0  0  0  0  0  0  0  0  0  0  0  0
    3.0968  -10.6774    5.0024 C   0  0  0  0  0  0  0  0  0  0  0  0
    2.5054   -9.2882    5.1204 C   0  0  2  0  0  0  0  0  0  0  0  0
    1.3245   -8.7109    6.0013 C   0  0  0  0  0  0  0  0  0  0  0  0
    1.6951   -8.4458    7.4750 C   0  0  0  0  0  0  0  0  0  0  0  0
    0.1383   -9.6908    5.9533 C   0  0  0  0  0  0  0  0  0  0  0  0
    3.8437   -1.1408    3.3593 C   0  0  0  0  0  0  0  0  0  0  0  0
    2.6726   -0.2467    2.8580 C   0  0  0  0  0  0  0  0  0  0  0  0
    4.3913   -0.5646    4.6743 C   0  0  0  0  0  0  0  0  0  0  0  0
    5.0420   -1.2310    2.3220 C   0  0  0  0  0  0  0  0  0  0  0  0
    5.0776   -2.5361    1.4291 C   0  0  1  0  0  0  0  0  0  0  0  0
    4.0688   -3.6521   -0.4264 H   0  0  0  0  0  0  0  0  0  0  0  0
    3.3128   -3.5870   -1.9645 H   0  0  0  0  0  0  0  0  0  0  0  0
    3.4621   -2.0713   -0.9941 H   0  0  0  0  0  0  0  0  0  0  0  0
    7.4031   -2.3604   -1.2676 H   0  0  0  0  0  0  0  0  0  0  0  0
    6.2627   -1.1146   -0.8446 H   0  0  0  0  0  0  0  0  0  0  0  0
    7.2174   -2.0949    1.1660 H   0  0  0  0  0  0  0  0  0  0  0  0
    5.9936   -5.8270    1.8153 H   0  0  0  0  0  0  0  0  0  0  0  0
    6.7897   -4.6749    2.8845 H   0  0  0  0  0  0  0  0  0  0  0  0
    4.3148   -4.5106    4.1901 H   0  0  0  0  0  0  0  0  0  0  0  0
    5.4373   -3.1753    4.0969 H   0  0  0  0  0  0  0  0  0  0  0  0
    2.9325   -2.6218    2.5054 H   0  0  0  0  0  0  0  0  0  0  0  0
    1.7954   -2.7958    4.9965 H   0  0  0  0  0  0  0  0  0  0  0  0
    0.0563   -4.2782    4.9883 H   0  0  0  0  0  0  0  0  0  0  0  0
   -0.1364   -5.5545    3.8761 H   0  0  0  0  0  0  0  0  0  0  0  0
   -0.1097   -7.4378    5.0436 H   0  0  0  0  0  0  0  0  0  0  0  0
    2.5270   -6.6480    3.9218 H   0  0  0  0  0  0  0  0  0  0  0  0
    1.5577   -9.3103    1.8569 H   0  0  0  0  0  0  0  0  0  0  0  0
    0.5271   -6.2204    1.9215 H   0  0  0  0  0  0  0  0  0  0  0  0
    4.3817   -8.9911    2.4464 H   0  0  0  0  0  0  0  0  0  0  0  0
    5.0593   -7.7401    5.1626 H   0  0  0  0  0  0  0  0  0  0  0  0
    4.9263   -6.8814    3.6402 H   0  0  0  0  0  0  0  0  0  0  0  0
    6.1671   -8.0967    3.8532 H   0  0  0  0  0  0  0  0  0  0  0  0
    4.4817  -11.1057    3.3578 H   0  0  0  0  0  0  0  0  0  0  0  0
    5.2580  -10.3933    4.7524 H   0  0  0  0  0  0  0  0  0  0  0  0
    2.4170  -11.3528    4.4805 H   0  0  0  0  0  0  0  0  0  0  0  0
    3.3459  -11.1226    5.9654 H   0  0  0  0  0  0  0  0  0  0  0  0
    3.2970   -8.8468    5.7265 H   0  0  0  0  0  0  0  0  0  0  0  0
    2.0150   -9.3598    7.9745 H   0  0  0  0  0  0  0  0  0  0  0  0
    0.8421   -8.0563    8.0273 H   0  0  0  0  0  0  0  0  0  0  0  0
    2.4976   -7.7150    7.5676 H   0  0  0  0  0  0  0  0  0  0  0  0
    0.3785  -10.6448    6.4193 H   0  0  0  0  0  0  0  0  0  0  0  0
   -0.1685   -9.9036    4.9292 H   0  0  0  0  0  0  0  0  0  0  0  0
   -0.7344   -9.2977    6.4714 H   0  0  0  0  0  0  0  0  0  0  0  0
    2.9790    0.7944    2.7408 H   0  0  0  0  0  0  0  0  0  0  0  0
    1.8363   -0.2504    3.5623 H   0  0  0  0  0  0  0  0  0  0  0  0
    2.2707   -0.5647    1.8921 H   0  0  0  0  0  0  0  0  0  0  0  0
    4.7443    0.4562    4.5258 H   0  0  0  0  0  0  0  0  0  0  0  0
    5.2397   -1.1427    5.0320 H   0  0  0  0  0  0  0  0  0  0  0  0
    3.6364   -0.5586    5.4568 H   0  0  0  0  0  0  0  0  0  0  0  0
    5.0158   -0.3595    1.6582 H   0  0  0  0  0  0  0  0  0  0  0  0
    5.9958   -1.1537    2.8720 H   0  0  0  0  0  0  0  0  0  0  0  0
    4.2594   -2.3335    0.7980 H   0  0  0  0  0  0  0  0  0  0  0  0
  1  2  1  0
  1 39  1  0
  1 40  1  0
  1 41  1  0
  2  3  2  0
  2  4  1  0
  4  5  1  0
  4 42  1  0
  4 43  1  0
  5 38  1  0
  5  6  1  0
  5 44  1  1
  6  7  2  0
  6  8  1  0
  9  8  1  1
  8 45  1  0
  8 46  1  0
  9 23  1  0
  9 38  1  0
  9 10  1  0
 10 11  1  0
 10 47  1  0
 10 48  1  0
 11 12  1  0
 11 34  1  0
 11 49  1  6
 12 13  2  0
 12 50  1  0
 13 22  1  0
 13 14  1  0
 14 15  1  0
 14 51  1  0
 14 52  1  0
 15 16  1  0
 16 31  1  0
 16 17  1  0
 16 53  1  6
 17 25  1  0
 17 18  1  0
 17 54  1  6
 18 19  1  0
 19 20  1  0
 19 25  1  0
 19 55  1  6
 20 21  1  0
 21 22  2  3
 21 56  1  0
 22 23  1  0
 23 24  2  0
 25 30  1  0
 25 26  1  6
 26 27  1  0
 26 28  1  0
 26 57  1  6
 27 58  1  0
 27 59  1  0
 27 60  1  0
 28 29  1  0
 28 61  1  0
 28 62  1  0
 29 30  1  0
 29 63  1  0
 29 64  1  0
 30 31  1  0
 30 65  1  1
 31 32  1  0
 31 33  1  0
 32 66  1  0
 32 67  1  0
 32 68  1  0
 33 69  1  0
 33 70  1  0
 33 71  1  0
 34 35  1  0
 34 36  1  0
 34 37  1  0
 35 72  1  0
 35 73  1  0
 35 74  1  0
 36 75  1  0
 36 76  1  0
 36 77  1  0
 37 38  1  0
 37 78  1  0
 37 79  1  0
 38 80  1  6
M  END
>  <i_m_ct_stereo_status>  (330) 
1

>  <s_m_source_file>  (330) 
/var/tmp/pbs.5076255.sched01/tmpp4327t_d/123x5hmlc3y.sdf

>  <i_m_source_file_index>  (330) 
14

>  <i_lp_mmshare_version>  (330) 
48012

>  <i_f3d_flags>  (330) 
0

>  <s_epik_input>  (330) 
W0NIM11DKD1PKVtDSDJdW0NASF0oQyg9TylbQ0gyXTEpW0NAQEhdKFtDQEBdMTIzKVtDSDJdQyhbQ0gzXSkoW0NIM10pW0NIXShbQ0gyXTIpW0NIXT1DNC9DKEMzPU8pPVtDSF1cT1tDQEhdNVtDQF02N1tDQEBIXShPNSlbQ0BIXShPW0NIMl00KUMoW0NIM10pKFtDSDNdKVtDQEhdN1tDSDJdW0NIMl1bQ0BASF02W0NIM10=

>  <s_epik_cmdline>  (330) 
J2VwaWtfcHl0aG9uJywgJy1waHQnLCAnMi4wJywgJy1waCcsICc3LjAnLCAnLXRuJywgJzgnLCAnLW1hJywgJzIwMCcsICctaW1hZScsICc8aW5maWxlLm1hZT4nLCAnLW9tYWUnLCAnPG91dGZpbGUubWFlPic=

>  <r_lp_tautomer_probability>  (330) 
1

>  <r_epik_Ionization_Penalty>  (330) 
3.38146e-11

>  <r_epik_Ionization_Penalty_Charging>  (330) 
0

>  <r_epik_Ionization_Penalty_Neutral>  (330) 
3.38146e-11

>  <r_epik_State_Penalty>  (330) 
-0

>  <r_epik_Charging_Adjusted_Penalty>  (330) 
0

>  <i_epik_Tot_Q>  (330) 
0

>  <i_epik_Tot_abs_Q>  (330) 
0

>  <s_epik_Chemistry_Notes>  (330) 
This compound contains an acetal/aminal-like group ( X-CH(R)-Y where X, Y are N, S, or O) that may be acid/base labile, releasing an aldehyde.

>  <s_lp_Force_Field>  (330) 
OPLS3e

>  <r_lp_Energy>  (330) 
254.223

>  <b_lp_Chiralities_Consistent>  (330) 
1

>  <s_lp_Variant>  (330) 
99:0-1

>  <s_i_glide_gridfile>  (330) 
pfpi4k_grid

>  <i_i_glide_lignum>  (330) 
14

>  <i_i_glide_rotatable_bonds>  (330) 
2

>  <r_i_docking_score>  (330) 
-2.08752

>  <r_i_glide_ligand_efficiency>  (330) 
-0.0549347

>  <r_i_glide_ligand_efficiency_sa>  (330) 
-0.184689

>  <r_i_glide_ligand_efficiency_ln>  (330) 
-0.450131

>  <r_i_glide_gscore>  (330) 
-2.08752

>  <r_i_glide_lipo>  (330) 
-0.338171

>  <r_i_glide_hbond>  (330) 
0

>  <r_i_glide_metal>  (330) 
-0

>  <r_i_glide_rewards>  (330) 
-0.216579

>  <r_i_glide_evdw>  (330) 
-28.3908

>  <r_i_glide_ecoul>  (330) 
-1.156

>  <r_i_glide_erotb>  (330) 
0.0752796

>  <r_i_glide_esite>  (330) 
-0.0151077

>  <r_i_glide_emodel>  (330) 
-27.8343

>  <r_i_glide_energy>  (330) 
-29.5468

>  <r_i_glide_einternal>  (330) 
3.63012

>  <r_i_glide_intrahb_reward>  (330) 
-0

>  <i_i_glide_confnum>  (330) 
1

>  <i_i_glide_posenum>  (330) 
2

>  <r_i_glide_eff_state_penalty>  (330) 
0

>  <ligand_id>  (330) 
99

>  <original_smiles>  (330) 
CC(=O)CC1C(=O)CC23CC(C=C4COC5C6OC(OC=C4C2=O)C62C(C)CCC2C5(C)C)C(C)(C)CC13

>  <smiles>  (330) 
[H]C1=C2C(=O)C34C([H])([H])C(=O)C([H])(C([H])([H])C(=O)C([H])([H])[H])C3([H])C([H])([H])C(C([H])([H])[H])(C([H])([H])[H])C([H])(C([H])=C2C([H])([H])OC2([H])C3([H])OC([H])(O1)C31C([H])(C([H])([H])[H])C([H])([H])C([H])([H])C1([H])C2(C([H])([H])[H])C([H])([H])[H])C4([H])[H]

$$$$
99:0:1
     RDKit          3D

 80 86  0  0  1  0  0  0  0  0999 V2000
    8.3074   -2.8481   -1.0089 C   0  0  0  0  0  0  0  0  0  0  0  0
    7.6074   -1.9891    0.0415 C   0  0  0  0  0  0  0  0  0  0  0  0
    8.2341   -1.0784    0.5854 O   0  0  0  0  0  0  0  0  0  0  0  0
    6.1150   -2.1361    0.2577 C   0  0  0  0  0  0  0  0  0  0  0  0
    5.6493   -3.5956    0.1750 C   0  0  2  0  0  0  0  0  0  0  0  0
    4.1705   -3.7606   -0.0036 C   0  0  0  0  0  0  0  0  0  0  0  0
    3.4564   -2.9616   -0.6359 O   0  0  0  0  0  0  0  0  0  0  0  0
    3.6424   -5.0081    0.6539 C   0  0  0  0  0  0  0  0  0  0  0  0
    4.6807   -5.3051    1.7673 C   0  0  2  0  0  0  0  0  0  0  0  0
    5.0494   -6.7600    1.7860 C   0  0  0  0  0  0  0  0  0  0  0  0
    6.2314   -6.7633    2.7625 C   0  0  1  0  0  0  0  0  0  0  0  0
    5.8620   -7.5035    3.9847 C   0  0  0  0  0  0  0  0  0  0  0  0
    4.8097   -7.0865    4.7231 C   0  0  0  0  0  0  0  0  0  0  0  0
    4.3248   -8.1400    5.7691 C   0  0  0  0  0  0  0  0  0  0  0  0
    3.3388   -9.1508    5.2982 O   0  0  0  0  0  0  0  0  0  0  0  0
    2.0020   -8.9206    5.7954 C   0  0  1  0  0  0  0  0  0  0  0  0
    1.7451   -7.6576    5.1021 C   0  0  2  0  0  0  0  0  0  0  0  0
    1.4856   -6.8894    6.2964 O   0  0  0  0  0  0  0  0  0  0  0  0
    0.8557   -5.9943    5.4646 C   0  0  1  0  0  0  0  0  0  0  0  0
    1.8551   -5.0207    4.9653 O   0  0  0  0  0  0  0  0  0  0  0  0
    3.1953   -5.2833    5.3624 C   0  0  0  0  0  0  0  0  0  0  0  0
    4.0849   -5.7398    4.4509 C   0  0  0  0  0  0  0  0  0  0  0  0
    4.0541   -4.9137    3.1544 C   0  0  0  0  0  0  0  0  0  0  0  0
    3.5754   -3.7781    3.1662 O   0  0  0  0  0  0  0  0  0  0  0  0
    0.4698   -7.2283    4.5165 C   0  0  1  0  0  0  0  0  0  0  0  0
   -0.0752   -6.8407    3.1485 C   0  0  1  0  0  0  0  0  0  0  0  0
    0.7860   -7.2601    1.9400 C   0  0  0  0  0  0  0  0  0  0  0  0
   -1.5005   -7.4543    3.1202 C   0  0  0  0  0  0  0  0  0  0  0  0
   -1.5970   -8.4718    4.2762 C   0  0  0  0  0  0  0  0  0  0  0  0
   -0.1353   -8.6266    4.6130 C   0  0  2  0  0  0  0  0  0  0  0  0
    0.6195   -9.6185    5.5744 C   0  0  0  0  0  0  0  0  0  0  0  0
    0.8184  -11.0244    4.9660 C   0  0  0  0  0  0  0  0  0  0  0  0
   -0.1236   -9.6959    6.9327 C   0  0  0  0  0  0  0  0  0  0  0  0
    7.5825   -6.5554    2.1002 C   0  0  0  0  0  0  0  0  0  0  0  0
    8.7003   -6.2190    3.1148 C   0  0  0  0  0  0  0  0  0  0  0  0
    8.0303   -7.7746    1.2889 C   0  0  0  0  0  0  0  0  0  0  0  0
    7.2836   -5.3708    1.1245 C   0  0  0  0  0  0  0  0  0  0  0  0
    5.9983   -4.4818    1.3919 C   0  0  1  0  0  0  0  0  0  0  0  0
    8.2098   -3.9194   -0.8635 H   0  0  0  0  0  0  0  0  0  0  0  0
    9.3533   -2.6087   -0.9416 H   0  0  0  0  0  0  0  0  0  0  0  0
    7.9513   -2.6099   -2.0144 H   0  0  0  0  0  0  0  0  0  0  0  0
    5.8268   -1.6997    1.2199 H   0  0  0  0  0  0  0  0  0  0  0  0
    5.6281   -1.5208   -0.5049 H   0  0  0  0  0  0  0  0  0  0  0  0
    6.0348   -4.0433   -0.7365 H   0  0  0  0  0  0  0  0  0  0  0  0
    2.6314   -4.8477    1.0219 H   0  0  0  0  0  0  0  0  0  0  0  0
    3.6120   -5.8035   -0.0958 H   0  0  0  0  0  0  0  0  0  0  0  0
    4.2124   -7.3801    2.1146 H   0  0  0  0  0  0  0  0  0  0  0  0
    5.3202   -7.1219    0.7927 H   0  0  0  0  0  0  0  0  0  0  0  0
    6.3334   -5.8451    3.3454 H   0  0  0  0  0  0  0  0  0  0  0  0
    6.3442   -8.4565    4.1443 H   0  0  0  0  0  0  0  0  0  0  0  0
    5.2040   -8.6949    6.1030 H   0  0  0  0  0  0  0  0  0  0  0  0
    3.9891   -7.6524    6.6840 H   0  0  0  0  0  0  0  0  0  0  0  0
    2.1339   -8.8344    6.8808 H   0  0  0  0  0  0  0  0  0  0  0  0
    2.4251   -7.3810    4.3072 H   0  0  0  0  0  0  0  0  0  0  0  0
   -0.0109   -5.5299    5.9378 H   0  0  0  0  0  0  0  0  0  0  0  0
    3.2273   -5.6248    6.3780 H   0  0  0  0  0  0  0  0  0  0  0  0
   -0.1764   -5.7546    3.1008 H   0  0  0  0  0  0  0  0  0  0  0  0
    0.8971   -8.3428    1.8527 H   0  0  0  0  0  0  0  0  0  0  0  0
    1.7794   -6.8225    2.0207 H   0  0  0  0  0  0  0  0  0  0  0  0
    0.3357   -6.9143    1.0059 H   0  0  0  0  0  0  0  0  0  0  0  0
   -2.2187   -6.6687    3.2896 H   0  0  0  0  0  0  0  0  0  0  0  0
   -1.7306   -7.9421    2.1724 H   0  0  0  0  0  0  0  0  0  0  0  0
   -2.1362   -8.0630    5.1156 H   0  0  0  0  0  0  0  0  0  0  0  0
   -2.0796   -9.3792    3.9268 H   0  0  0  0  0  0  0  0  0  0  0  0
    0.1583   -9.1310    3.6926 H   0  0  0  0  0  0  0  0  0  0  0  0
   -0.1301  -11.5260    4.7590 H   0  0  0  0  0  0  0  0  0  0  0  0
    1.3727  -11.6539    5.6600 H   0  0  0  0  0  0  0  0  0  0  0  0
    1.3899  -11.0079    4.0351 H   0  0  0  0  0  0  0  0  0  0  0  0
   -1.0899  -10.1967    6.8763 H   0  0  0  0  0  0  0  0  0  0  0  0
   -0.2774   -8.7064    7.3637 H   0  0  0  0  0  0  0  0  0  0  0  0
    0.4719  -10.2410    7.6675 H   0  0  0  0  0  0  0  0  0  0  0  0
    9.6555   -6.0380    2.6224 H   0  0  0  0  0  0  0  0  0  0  0  0
    8.8546   -7.0286    3.8236 H   0  0  0  0  0  0  0  0  0  0  0  0
    8.4881   -5.3332    3.7089 H   0  0  0  0  0  0  0  0  0  0  0  0
    8.9318   -7.5277    0.7232 H   0  0  0  0  0  0  0  0  0  0  0  0
    7.3221   -8.0853    0.5348 H   0  0  0  0  0  0  0  0  0  0  0  0
    8.1853   -8.6133    1.9647 H   0  0  0  0  0  0  0  0  0  0  0  0
    8.1602   -4.7360    1.2087 H   0  0  0  0  0  0  0  0  0  0  0  0
    7.2485   -5.7427    0.0954 H   0  0  0  0  0  0  0  0  0  0  0  0
    6.2296   -3.8076    2.2194 H   0  0  0  0  0  0  0  0  0  0  0  0
  1  2  1  0
  1 39  1  0
  1 40  1  0
  1 41  1  0
  2  3  2  0
  2  4  1  0
  4  5  1  0
  4 42  1  0
  4 43  1  0
  5 38  1  0
  5  6  1  0
  5 44  1  6
  6  7  2  0
  6  8  1  0
  9  8  1  6
  8 45  1  0
  8 46  1  0
  9 23  1  0
  9 38  1  0
  9 10  1  0
 10 11  1  0
 10 47  1  0
 10 48  1  0
 11 12  1  0
 11 34  1  0
 11 49  1  1
 12 13  2  0
 12 50  1  0
 13 22  1  0
 13 14  1  0
 14 15  1  0
 14 51  1  0
 14 52  1  0
 15 16  1  0
 16 31  1  0
 16 17  1  0
 16 53  1  1
 17 25  1  0
 17 18  1  0
 17 54  1  6
 18 19  1  0
 19 20  1  0
 19 25  1  0
 19 55  1  1
 20 21  1  0
 21 22  2  3
 21 56  1  0
 22 23  1  0
 23 24  2  0
 25 30  1  0
 25 26  1  6
 26 27  1  0
 26 28  1  0
 26 57  1  1
 27 58  1  0
 27 59  1  0
 27 60  1  0
 28 29  1  0
 28 61  1  0
 28 62  1  0
 29 30  1  0
 29 63  1  0
 29 64  1  0
 30 31  1  0
 30 65  1  6
 31 32  1  0
 31 33  1  0
 32 66  1  0
 32 67  1  0
 32 68  1  0
 33 69  1  0
 33 70  1  0
 33 71  1  0
 34 35  1  0
 34 36  1  0
 34 37  1  0
 35 72  1  0
 35 73  1  0
 35 74  1  0
 36 75  1  0
 36 76  1  0
 36 77  1  0
 37 38  1  0
 37 78  1  0
 37 79  1  0
 38 80  1  1
M  END
>  <i_m_ct_stereo_status>  (331) 
1

>  <s_m_source_file>  (331) 
/var/tmp/pbs.5076255.sched01/tmpp4327t_d/123x5hmlc3y.sdf

>  <i_m_source_file_index>  (331) 
14

>  <i_lp_mmshare_version>  (331) 
48012

>  <i_f3d_flags>  (331) 
0

>  <s_epik_input>  (331) 
W0NIM11DKD1PKVtDSDJdW0NASF0oQyg9TylbQ0gyXTEpW0NAQEhdKFtDQEBdMTIzKVtDSDJdQyhbQ0gzXSkoW0NIM10pW0NIXShbQ0gyXTIpW0NIXT1DNC9DKEMzPU8pPVtDSF1cT1tDQEhdNVtDQF02N1tDQEBIXShPNSlbQ0BIXShPW0NIMl00KUMoW0NIM10pKFtDSDNdKVtDQEhdN1tDSDJdW0NIMl1bQ0BASF02W0NIM10=

>  <s_epik_cmdline>  (331) 
J2VwaWtfcHl0aG9uJywgJy1waHQnLCAnMi4wJywgJy1waCcsICc3LjAnLCAnLXRuJywgJzgnLCAnLW1hJywgJzIwMCcsICctaW1hZScsICc8aW5maWxlLm1hZT4nLCAnLW9tYWUnLCAnPG91dGZpbGUubWFlPic=

>  <r_lp_tautomer_probability>  (331) 
1

>  <r_epik_Ionization_Penalty>  (331) 
3.38146e-11

>  <r_epik_Ionization_Penalty_Charging>  (331) 
0

>  <r_epik_Ionization_Penalty_Neutral>  (331) 
3.38146e-11

>  <r_epik_State_Penalty>  (331) 
-0

>  <r_epik_Charging_Adjusted_Penalty>  (331) 
0

>  <i_epik_Tot_Q>  (331) 
0

>  <i_epik_Tot_abs_Q>  (331) 
0

>  <s_epik_Chemistry_Notes>  (331) 
This compound contains an acetal/aminal-like group ( X-CH(R)-Y where X, Y are N, S, or O) that may be acid/base labile, releasing an aldehyde.

>  <s_lp_Force_Field>  (331) 
OPLS3e

>  <r_lp_Energy>  (331) 
254.223

>  <b_lp_Chiralities_Consistent>  (331) 
1

>  <s_lp_Variant>  (331) 
99:0-1

>  <s_i_glide_gridfile>  (331) 
pfpi4k_grid

>  <i_i_glide_lignum>  (331) 
14

>  <i_i_glide_rotatable_bonds>  (331) 
2

>  <r_i_docking_score>  (331) 
-0.99696

>  <r_i_glide_ligand_efficiency>  (331) 
-0.0262358

>  <r_i_glide_ligand_efficiency_sa>  (331) 
-0.0882041

>  <r_i_glide_ligand_efficiency_ln>  (331) 
-0.214974

>  <r_i_glide_gscore>  (331) 
-0.99696

>  <r_i_glide_lipo>  (331) 
-0.372381

>  <r_i_glide_hbond>  (331) 
-0.00943596

>  <r_i_glide_metal>  (331) 
-0

>  <r_i_glide_rewards>  (331) 
-0.0162979

>  <r_i_glide_evdw>  (331) 
-20.1909

>  <r_i_glide_ecoul>  (331) 
2.37019

>  <r_i_glide_erotb>  (331) 
0.0752796

>  <r_i_glide_esite>  (331) 
-0.0201081

>  <r_i_glide_emodel>  (331) 
-17.907

>  <r_i_glide_energy>  (331) 
-17.8207

>  <r_i_glide_einternal>  (331) 
1.64849

>  <r_i_glide_intrahb_reward>  (331) 
-0

>  <i_i_glide_confnum>  (331) 
1

>  <i_i_glide_posenum>  (331) 
1

>  <r_i_glide_eff_state_penalty>  (331) 
0

>  <ligand_id>  (331) 
99

>  <original_smiles>  (331) 
CC(=O)CC1C(=O)CC23CC(C=C4COC5C6OC(OC=C4C2=O)C62C(C)CCC2C5(C)C)C(C)(C)CC13

>  <smiles>  (331) 
[H]C1=C2C(=O)C34C([H])([H])C(=O)C([H])(C([H])([H])C(=O)C([H])([H])[H])C3([H])C([H])([H])C(C([H])([H])[H])(C([H])([H])[H])C([H])(C([H])=C2C([H])([H])OC2([H])C3([H])OC([H])(O1)C31C([H])(C([H])([H])[H])C([H])([H])C([H])([H])C1([H])C2(C([H])([H])[H])C([H])([H])[H])C4([H])[H]

$$$$
100:0:0
     RDKit          3D

 51 56  0  0  1  0  0  0  0  0999 V2000
    2.2742   -2.3655    1.7566 C   0  0  0  0  0  0  0  0  0  0  0  0
    2.6908   -3.5287    2.2848 C   0  0  0  0  0  0  0  0  0  0  0  0
    3.2693   -3.8635    3.6551 C   0  0  0  0  0  0  0  0  0  0  0  0
    2.8416   -5.3092    3.3128 C   0  0  2  0  0  0  0  0  0  0  0  0
    1.6083   -5.5973    4.2223 C   0  0  0  0  0  0  0  0  0  0  0  0
    3.7158   -6.5939    3.3001 C   0  0  2  0  0  0  0  0  0  0  0  0
    5.3103   -6.3790    3.3982 C   0  0  0  0  0  0  0  0  0  0  0  0
    6.3857   -5.8692    2.3015 C   0  0  1  0  0  0  0  0  0  0  0  0
    7.1120   -7.0312    1.5803 C   0  0  0  0  0  0  0  0  0  0  0  0
    6.0863   -4.6174    1.3813 C   0  0  1  0  0  0  0  0  0  0  0  0
    5.7936   -3.5548    2.2454 O   0  0  0  0  0  0  0  0  0  0  0  0
    7.1583   -3.9742    0.4503 C   0  0  0  0  0  0  0  0  0  0  0  0
    8.3835   -3.9773    0.5958 O   0  0  0  0  0  0  0  0  0  0  0  0
    6.3622   -3.3068   -0.5694 C   0  0  0  0  0  0  0  0  0  0  0  0
    6.6226   -2.2971   -1.4263 O   0  0  0  0  0  0  0  0  0  0  0  0
    5.4007   -2.1052   -2.0423 C   0  0  0  0  0  0  0  0  0  0  0  0
    4.4060   -2.9392   -1.5712 C   0  0  0  0  0  0  0  0  0  0  0  0
    2.9649   -3.0166   -1.9918 C   0  0  0  0  0  0  0  0  0  0  0  0
    5.0902   -3.7205   -0.6072 C   0  0  0  0  0  0  0  0  0  0  0  0
    4.9515   -4.8526    0.3376 C   0  0  2  0  0  0  0  0  0  0  0  0
    3.6988   -5.5236    0.8387 C   0  0  0  0  0  0  0  0  0  0  0  0
    3.7742   -6.8608    0.8831 C   0  0  0  0  0  0  0  0  0  0  0  0
    3.1372   -7.4489    2.0845 C   0  0  1  0  0  0  0  0  0  0  0  0
    3.4008   -8.9605    2.2039 C   0  0  0  0  0  0  0  0  0  0  0  0
    1.7174   -7.1961    1.9002 O   0  0  0  0  0  0  0  0  0  0  0  0
    1.4344   -5.6811    1.5801 O   0  0  0  0  0  0  0  0  0  0  0  0
    2.6382   -4.9567    1.8005 C   0  0  2  0  0  0  0  0  0  0  0  0
    1.8252   -2.3163    0.7731 H   0  0  0  0  0  0  0  0  0  0  0  0
    2.3597   -1.4416    2.3136 H   0  0  0  0  0  0  0  0  0  0  0  0
    4.3090   -3.7884    3.9225 H   0  0  0  0  0  0  0  0  0  0  0  0
    2.7206   -3.4295    4.4905 H   0  0  0  0  0  0  0  0  0  0  0  0
    1.1460   -6.5740    4.0726 H   0  0  0  0  0  0  0  0  0  0  0  0
    0.8236   -4.8498    4.0832 H   0  0  0  0  0  0  0  0  0  0  0  0
    1.8931   -5.5552    5.2742 H   0  0  0  0  0  0  0  0  0  0  0  0
    3.4671   -7.1614    4.1986 H   0  0  0  0  0  0  0  0  0  0  0  0
    5.4554   -5.7433    4.2727 H   0  0  0  0  0  0  0  0  0  0  0  0
    5.6883   -7.3452    3.7338 H   0  0  0  0  0  0  0  0  0  0  0  0
    7.1912   -5.5000    2.9407 H   0  0  0  0  0  0  0  0  0  0  0  0
    6.4885   -7.5769    0.8821 H   0  0  0  0  0  0  0  0  0  0  0  0
    7.4942   -7.7572    2.2984 H   0  0  0  0  0  0  0  0  0  0  0  0
    7.9782   -6.6756    1.0238 H   0  0  0  0  0  0  0  0  0  0  0  0
    5.4684   -2.8346    1.7239 H   0  0  0  0  0  0  0  0  0  0  0  0
    5.3950   -1.3309   -2.7893 H   0  0  0  0  0  0  0  0  0  0  0  0
    2.5409   -3.9829   -1.7266 H   0  0  0  0  0  0  0  0  0  0  0  0
    2.8681   -2.8671   -3.0655 H   0  0  0  0  0  0  0  0  0  0  0  0
    2.3783   -2.2522   -1.4919 H   0  0  0  0  0  0  0  0  0  0  0  0
    5.3469   -5.6170   -0.3332 H   0  0  0  0  0  0  0  0  0  0  0  0
    4.5044   -7.4508    0.3573 H   0  0  0  0  0  0  0  0  0  0  0  0
    4.4654   -9.1727    2.3082 H   0  0  0  0  0  0  0  0  0  0  0  0
    3.0423   -9.5000    1.3254 H   0  0  0  0  0  0  0  0  0  0  0  0
    2.8913   -9.3753    3.0731 H   0  0  0  0  0  0  0  0  0  0  0  0
  1  2  2  0
  1 28  1  0
  1 29  1  0
 27  2  1  1
  2  3  1  0
  3  4  1  0
  3 30  1  0
  3 31  1  0
  4 27  1  0
  4  5  1  1
  4  6  1  0
  5 32  1  0
  5 33  1  0
  5 34  1  0
  6 23  1  0
  6  7  1  0
  6 35  1  1
  7  8  1  0
  7 36  1  0
  7 37  1  0
  8  9  1  0
  8 10  1  0
  8 38  1  1
  9 39  1  0
  9 40  1  0
  9 41  1  0
 10 20  1  0
 10 11  1  1
 10 12  1  0
 11 42  1  0
 12 13  2  0
 12 14  1  0
 14 19  2  0
 14 15  1  0
 15 16  1  0
 16 17  2  0
 16 43  1  0
 17 18  1  0
 17 19  1  0
 18 44  1  0
 18 45  1  0
 18 46  1  0
 19 20  1  0
 20 21  1  0
 20 47  1  6
 21 27  1  0
 21 22  2  0
 22 23  1  0
 22 48  1  0
 23 24  1  1
 23 25  1  0
 24 49  1  0
 24 50  1  0
 24 51  1  0
 25 26  1  0
 26 27  1  0
M  END
>  <i_m_ct_stereo_status>  (332) 
1

>  <s_m_source_file>  (332) 
/var/tmp/pbs.5076255.sched01/tmpp4327t_d/123x5hmlc3y.sdf

>  <i_m_source_file_index>  (332) 
15

>  <i_lp_mmshare_version>  (332) 
48012

>  <i_f3d_flags>  (332) 
0

>  <s_epik_input>  (332) 
W0NIMl09QzFbQ0gyXVtDQF0oW0NAQF0xMjMpKFtDSDNdKVtDQEhdNFtDQEBdKFtDSDNdKShPTzMpW0NIXT1DMltDQEBIXTVbQ0BAXShbT0hdKShbQ0BASF0oW0NIMl00KVtDSDNdKUMoPU8pYzZjNWMoW2NIXW82KVtDSDNd

>  <s_epik_cmdline>  (332) 
J2VwaWtfcHl0aG9uJywgJy1waHQnLCAnMi4wJywgJy1waCcsICc3LjAnLCAnLXRuJywgJzgnLCAnLW1hJywgJzIwMCcsICctaW1hZScsICc8aW5maWxlLm1hZT4nLCAnLW9tYWUnLCAnPG91dGZpbGUubWFlPic=

>  <r_lp_tautomer_probability>  (332) 
1

>  <r_epik_Ionization_Penalty>  (332) 
1.90723e-08

>  <r_epik_Ionization_Penalty_Charging>  (332) 
0

>  <r_epik_Ionization_Penalty_Neutral>  (332) 
1.90723e-08

>  <r_epik_State_Penalty>  (332) 
-0

>  <r_epik_Charging_Adjusted_Penalty>  (332) 
0

>  <i_epik_Tot_Q>  (332) 
0

>  <i_epik_Tot_abs_Q>  (332) 
0

>  <s_lp_Force_Field>  (332) 
OPLS3e

>  <r_lp_Energy>  (332) 
124.71

>  <b_lp_Chiralities_Consistent>  (332) 
1

>  <s_lp_Variant>  (332) 
100:0-1

>  <s_i_glide_gridfile>  (332) 
pfpi4k_grid

>  <i_i_glide_lignum>  (332) 
15

>  <i_i_glide_rotatable_bonds>  (332) 
1

>  <r_i_docking_score>  (332) 
-3.39826

>  <r_i_glide_ligand_efficiency>  (332) 
-0.125862

>  <r_i_glide_ligand_efficiency_sa>  (332) 
-0.377585

>  <r_i_glide_ligand_efficiency_ln>  (332) 
-0.791059

>  <r_i_glide_gscore>  (332) 
-3.39826

>  <r_i_glide_lipo>  (332) 
-0.527087

>  <r_i_glide_hbond>  (332) 
-0.270799

>  <r_i_glide_metal>  (332) 
-0

>  <r_i_glide_rewards>  (332) 
-1.08901

>  <r_i_glide_evdw>  (332) 
-22.6553

>  <r_i_glide_ecoul>  (332) 
-2.52401

>  <r_i_glide_erotb>  (332) 
0

>  <r_i_glide_esite>  (332) 
0

>  <r_i_glide_emodel>  (332) 
-30.1715

>  <r_i_glide_energy>  (332) 
-25.1793

>  <r_i_glide_einternal>  (332) 
1.73605

>  <r_i_glide_intrahb_reward>  (332) 
-0

>  <i_i_glide_confnum>  (332) 
1

>  <i_i_glide_posenum>  (332) 
1

>  <r_i_glide_eff_state_penalty>  (332) 
0

>  <ligand_id>  (332) 
100

>  <original_smiles>  (332) 
C=C1CC2(C)C3CC(C)C4(O)C(=O)c5occ(C)c5C4C4=CC3(C)OOC142

>  <smiles>  (332) 
[H]OC12C(=O)c3oc([H])c(C([H])([H])[H])c3C1([H])C1=C([H])C3(C([H])([H])[H])OOC14C(=C([H])[H])C([H])([H])C4(C([H])([H])[H])C3([H])C([H])([H])C2([H])C([H])([H])[H]

$$$$
100:0:1
     RDKit          3D

 51 56  0  0  1  0  0  0  0  0999 V2000
    2.2698   -2.4504    1.8424 C   0  0  0  0  0  0  0  0  0  0  0  0
    2.6963   -3.6201    2.3470 C   0  0  0  0  0  0  0  0  0  0  0  0
    3.2696   -3.9767    3.7146 C   0  0  0  0  0  0  0  0  0  0  0  0
    2.8494   -5.4182    3.3404 C   0  0  2  0  0  0  0  0  0  0  0  0
    1.6129   -5.7311    4.2400 C   0  0  0  0  0  0  0  0  0  0  0  0
    3.7273   -6.6987    3.3071 C   0  0  2  0  0  0  0  0  0  0  0  0
    5.3213   -6.4774    3.4157 C   0  0  0  0  0  0  0  0  0  0  0  0
    6.3985   -5.9406    2.3338 C   0  0  1  0  0  0  0  0  0  0  0  0
    7.1319   -7.0871    1.5950 C   0  0  0  0  0  0  0  0  0  0  0  0
    6.0959   -4.6725    1.4333 C   0  0  1  0  0  0  0  0  0  0  0  0
    5.7892   -3.6287    2.3159 O   0  0  0  0  0  0  0  0  0  0  0  0
    7.1669   -4.0083    0.5168 C   0  0  0  0  0  0  0  0  0  0  0  0
    8.3919   -4.0166    0.6663 O   0  0  0  0  0  0  0  0  0  0  0  0
    6.3726   -3.3258   -0.4935 C   0  0  0  0  0  0  0  0  0  0  0  0
    6.6325   -2.2970   -1.3274 O   0  0  0  0  0  0  0  0  0  0  0  0
    5.4129   -2.0976   -1.9446 C   0  0  0  0  0  0  0  0  0  0  0  0
    4.4191   -2.9446   -1.4927 C   0  0  0  0  0  0  0  0  0  0  0  0
    2.9809   -3.0202   -1.9186 C   0  0  0  0  0  0  0  0  0  0  0  0
    5.1020   -3.7429   -0.5438 C   0  0  0  0  0  0  0  0  0  0  0  0
    4.9647   -4.8948    0.3812 C   0  0  2  0  0  0  0  0  0  0  0  0
    3.7174   -5.5827    0.8644 C   0  0  0  0  0  0  0  0  0  0  0  0
    3.7970   -6.9199    0.8821 C   0  0  0  0  0  0  0  0  0  0  0  0
    3.1581   -7.5334    2.0720 C   0  0  1  0  0  0  0  0  0  0  0  0
    3.4269   -9.0449    2.1638 C   0  0  0  0  0  0  0  0  0  0  0  0
    1.7375   -7.2838    1.8883 O   0  0  0  0  0  0  0  0  0  0  0  0
    1.4491   -5.7636    1.5947 O   0  0  0  0  0  0  0  0  0  0  0  0
    2.6479   -5.0384    1.8346 C   0  0  2  0  0  0  0  0  0  0  0  0
    1.8243   -2.3825    0.8584 H   0  0  0  0  0  0  0  0  0  0  0  0
    2.3481   -1.5361    2.4147 H   0  0  0  0  0  0  0  0  0  0  0  0
    4.3053   -3.9007    4.0001 H   0  0  0  0  0  0  0  0  0  0  0  0
    2.7080   -3.5639    4.5519 H   0  0  0  0  0  0  0  0  0  0  0  0
    1.1544   -6.7060    4.0707 H   0  0  0  0  0  0  0  0  0  0  0  0
    0.8260   -4.9842    4.1152 H   0  0  0  0  0  0  0  0  0  0  0  0
    1.8926   -5.7089    5.2940 H   0  0  0  0  0  0  0  0  0  0  0  0
    3.4781   -7.2854    4.1933 H   0  0  0  0  0  0  0  0  0  0  0  0
    5.4626   -5.8651    4.3078 H   0  0  0  0  0  0  0  0  0  0  0  0
    5.7009   -7.4506    3.7318 H   0  0  0  0  0  0  0  0  0  0  0  0
    7.2011   -5.5822    2.9833 H   0  0  0  0  0  0  0  0  0  0  0  0
    6.5149   -7.6208    0.8816 H   0  0  0  0  0  0  0  0  0  0  0  0
    7.5143   -7.8271    2.2999 H   0  0  0  0  0  0  0  0  0  0  0  0
    8.0011   -6.7185    1.0505 H   0  0  0  0  0  0  0  0  0  0  0  0
    5.0408   -3.8932    2.8307 H   0  0  0  0  0  0  0  0  0  0  0  0
    5.4079   -1.3126   -2.6816 H   0  0  0  0  0  0  0  0  0  0  0  0
    2.5577   -3.9921   -1.6719 H   0  0  0  0  0  0  0  0  0  0  0  0
    2.8867   -2.8502   -2.9894 H   0  0  0  0  0  0  0  0  0  0  0  0
    2.3920   -2.2667   -1.4056 H   0  0  0  0  0  0  0  0  0  0  0  0
    5.3682   -5.6447   -0.3011 H   0  0  0  0  0  0  0  0  0  0  0  0
    4.5319   -7.4969    0.3498 H   0  0  0  0  0  0  0  0  0  0  0  0
    4.4922   -9.2563    2.2687 H   0  0  0  0  0  0  0  0  0  0  0  0
    3.0730   -9.5706    1.2749 H   0  0  0  0  0  0  0  0  0  0  0  0
    2.9169   -9.4800    3.0233 H   0  0  0  0  0  0  0  0  0  0  0  0
  1  2  2  0
  1 28  1  0
  1 29  1  0
 27  2  1  1
  2  3  1  0
  3  4  1  0
  3 30  1  0
  3 31  1  0
  4 27  1  0
  4  5  1  1
  4  6  1  0
  5 32  1  0
  5 33  1  0
  5 34  1  0
  6 23  1  0
  6  7  1  0
  6 35  1  1
  7  8  1  0
  7 36  1  0
  7 37  1  0
  8  9  1  0
  8 10  1  0
  8 38  1  1
  9 39  1  0
  9 40  1  0
  9 41  1  0
 10 20  1  0
 10 11  1  1
 10 12  1  0
 11 42  1  0
 12 13  2  0
 12 14  1  0
 14 19  2  0
 14 15  1  0
 15 16  1  0
 16 17  2  0
 16 43  1  0
 17 18  1  0
 17 19  1  0
 18 44  1  0
 18 45  1  0
 18 46  1  0
 19 20  1  0
 20 21  1  0
 20 47  1  6
 21 27  1  0
 21 22  2  0
 22 23  1  0
 22 48  1  0
 23 24  1  1
 23 25  1  0
 24 49  1  0
 24 50  1  0
 24 51  1  0
 25 26  1  0
 26 27  1  0
M  END
>  <i_m_ct_stereo_status>  (333) 
1

>  <s_m_source_file>  (333) 
/var/tmp/pbs.5076255.sched01/tmpp4327t_d/123x5hmlc3y.sdf

>  <i_m_source_file_index>  (333) 
15

>  <i_lp_mmshare_version>  (333) 
48012

>  <i_f3d_flags>  (333) 
0

>  <s_epik_input>  (333) 
W0NIMl09QzFbQ0gyXVtDQF0oW0NAQF0xMjMpKFtDSDNdKVtDQEhdNFtDQEBdKFtDSDNdKShPTzMpW0NIXT1DMltDQEBIXTVbQ0BAXShbT0hdKShbQ0BASF0oW0NIMl00KVtDSDNdKUMoPU8pYzZjNWMoW2NIXW82KVtDSDNd

>  <s_epik_cmdline>  (333) 
J2VwaWtfcHl0aG9uJywgJy1waHQnLCAnMi4wJywgJy1waCcsICc3LjAnLCAnLXRuJywgJzgnLCAnLW1hJywgJzIwMCcsICctaW1hZScsICc8aW5maWxlLm1hZT4nLCAnLW9tYWUnLCAnPG91dGZpbGUubWFlPic=

>  <r_lp_tautomer_probability>  (333) 
1

>  <r_epik_Ionization_Penalty>  (333) 
1.90723e-08

>  <r_epik_Ionization_Penalty_Charging>  (333) 
0

>  <r_epik_Ionization_Penalty_Neutral>  (333) 
1.90723e-08

>  <r_epik_State_Penalty>  (333) 
-0

>  <r_epik_Charging_Adjusted_Penalty>  (333) 
0

>  <i_epik_Tot_Q>  (333) 
0

>  <i_epik_Tot_abs_Q>  (333) 
0

>  <s_lp_Force_Field>  (333) 
OPLS3e

>  <r_lp_Energy>  (333) 
124.71

>  <b_lp_Chiralities_Consistent>  (333) 
1

>  <s_lp_Variant>  (333) 
100:0-1

>  <s_i_glide_gridfile>  (333) 
pfpi4k_grid

>  <i_i_glide_lignum>  (333) 
15

>  <i_i_glide_rotatable_bonds>  (333) 
1

>  <r_i_docking_score>  (333) 
-3.37258

>  <r_i_glide_ligand_efficiency>  (333) 
-0.12491

>  <r_i_glide_ligand_efficiency_sa>  (333) 
-0.374731

>  <r_i_glide_ligand_efficiency_ln>  (333) 
-0.78508

>  <r_i_glide_gscore>  (333) 
-3.37258

>  <r_i_glide_lipo>  (333) 
-0.531677

>  <r_i_glide_hbond>  (333) 
-0.259056

>  <r_i_glide_metal>  (333) 
-0

>  <r_i_glide_rewards>  (333) 
-1.08477

>  <r_i_glide_evdw>  (333) 
-22.9656

>  <r_i_glide_ecoul>  (333) 
-2.32525

>  <r_i_glide_erotb>  (333) 
0

>  <r_i_glide_esite>  (333) 
0

>  <r_i_glide_emodel>  (333) 
-31.1364

>  <r_i_glide_energy>  (333) 
-25.2909

>  <r_i_glide_einternal>  (333) 
0.0133118

>  <r_i_glide_intrahb_reward>  (333) 
-0

>  <i_i_glide_confnum>  (333) 
2

>  <i_i_glide_posenum>  (333) 
17

>  <r_i_glide_eff_state_penalty>  (333) 
0

>  <ligand_id>  (333) 
100

>  <original_smiles>  (333) 
C=C1CC2(C)C3CC(C)C4(O)C(=O)c5occ(C)c5C4C4=CC3(C)OOC142

>  <smiles>  (333) 
[H]OC12C(=O)c3oc([H])c(C([H])([H])[H])c3C1([H])C1=C([H])C3(C([H])([H])[H])OOC14C(=C([H])[H])C([H])([H])C4(C([H])([H])[H])C3([H])C([H])([H])C2([H])C([H])([H])[H]

$$$$
100:0:2
     RDKit          3D

 51 56  0  0  1  0  0  0  0  0999 V2000
    5.6974   -6.0945    1.6172 C   0  0  0  0  0  0  0  0  0  0  0  0
    5.8196   -4.8328    1.1749 C   0  0  0  0  0  0  0  0  0  0  0  0
    6.7713   -3.7118    1.5692 C   0  0  0  0  0  0  0  0  0  0  0  0
    6.3971   -3.1131    0.1974 C   0  0  2  0  0  0  0  0  0  0  0  0
    7.6684   -3.3005   -0.6906 C   0  0  0  0  0  0  0  0  0  0  0  0
    5.8194   -1.7063   -0.1148 C   0  0  2  0  0  0  0  0  0  0  0  0
    5.3216   -0.8366    1.1424 C   0  0  0  0  0  0  0  0  0  0  0  0
    3.9886   -0.9593    2.0495 C   0  0  1  0  0  0  0  0  0  0  0  0
    2.8634    0.0007    1.5924 C   0  0  0  0  0  0  0  0  0  0  0  0
    3.4828   -2.3654    2.5757 C   0  0  1  0  0  0  0  0  0  0  0  0
    4.5605   -2.9190    3.2841 O   0  0  0  0  0  0  0  0  0  0  0  0
    2.3158   -2.5155    3.5966 C   0  0  0  0  0  0  0  0  0  0  0  0
    1.9651   -1.7051    4.4569 O   0  0  0  0  0  0  0  0  0  0  0  0
    1.8179   -3.8600    3.3498 C   0  0  0  0  0  0  0  0  0  0  0  0
    1.0951   -4.7239    4.0925 O   0  0  0  0  0  0  0  0  0  0  0  0
    1.0616   -5.8559    3.3023 C   0  0  0  0  0  0  0  0  0  0  0  0
    1.7578   -5.7125    2.1143 C   0  0  0  0  0  0  0  0  0  0  0  0
    1.9407   -6.7035    1.0048 C   0  0  0  0  0  0  0  0  0  0  0  0
    2.2290   -4.3794    2.1886 C   0  0  0  0  0  0  0  0  0  0  0  0
    2.9568   -3.3147    1.4538 C   0  0  2  0  0  0  0  0  0  0  0  0
    3.7871   -3.4285    0.2023 C   0  0  0  0  0  0  0  0  0  0  0  0
    3.5723   -2.4565   -0.6945 C   0  0  0  0  0  0  0  0  0  0  0  0
    4.8127   -1.9540   -1.3278 C   0  0  1  0  0  0  0  0  0  0  0  0
    4.5564   -0.7201   -2.2011 C   0  0  0  0  0  0  0  0  0  0  0  0
    5.2752   -3.0579   -2.1489 O   0  0  0  0  0  0  0  0  0  0  0  0
    5.3356   -4.3984   -1.3236 O   0  0  0  0  0  0  0  0  0  0  0  0
    5.1740   -4.0778    0.0460 C   0  0  2  0  0  0  0  0  0  0  0  0
    4.9955   -6.7888    1.1709 H   0  0  0  0  0  0  0  0  0  0  0  0
    6.3204   -6.4543    2.4289 H   0  0  0  0  0  0  0  0  0  0  0  0
    6.6163   -3.0083    2.3664 H   0  0  0  0  0  0  0  0  0  0  0  0
    7.8153   -4.0209    1.6417 H   0  0  0  0  0  0  0  0  0  0  0  0
    7.5574   -2.9943   -1.7325 H   0  0  0  0  0  0  0  0  0  0  0  0
    7.9947   -4.3402   -0.7047 H   0  0  0  0  0  0  0  0  0  0  0  0
    8.5104   -2.7355   -0.2876 H   0  0  0  0  0  0  0  0  0  0  0  0
    6.6328   -1.1152   -0.5296 H   0  0  0  0  0  0  0  0  0  0  0  0
    6.1635   -0.8331    1.8381 H   0  0  0  0  0  0  0  0  0  0  0  0
    5.3151    0.1866    0.7640 H   0  0  0  0  0  0  0  0  0  0  0  0
    4.3074   -0.4604    2.9675 H   0  0  0  0  0  0  0  0  0  0  0  0
    2.3902   -0.2809    0.6590 H   0  0  0  0  0  0  0  0  0  0  0  0
    3.2405    1.0153    1.4605 H   0  0  0  0  0  0  0  0  0  0  0  0
    2.0731    0.0654    2.3385 H   0  0  0  0  0  0  0  0  0  0  0  0
    5.2820   -3.0092    2.6813 H   0  0  0  0  0  0  0  0  0  0  0  0
    0.5128   -6.6772    3.7314 H   0  0  0  0  0  0  0  0  0  0  0  0
    2.1794   -6.1864    0.0769 H   0  0  0  0  0  0  0  0  0  0  0  0
    1.0367   -7.2920    0.8617 H   0  0  0  0  0  0  0  0  0  0  0  0
    2.7577   -7.3854    1.2287 H   0  0  0  0  0  0  0  0  0  0  0  0
    2.0740   -2.8011    1.0679 H   0  0  0  0  0  0  0  0  0  0  0  0
    2.7091   -1.8135   -0.7001 H   0  0  0  0  0  0  0  0  0  0  0  0
    4.2227    0.1227   -1.6017 H   0  0  0  0  0  0  0  0  0  0  0  0
    3.8142   -0.9186   -2.9769 H   0  0  0  0  0  0  0  0  0  0  0  0
    5.4586   -0.3997   -2.7002 H   0  0  0  0  0  0  0  0  0  0  0  0
  1  2  2  0
  1 28  1  0
  1 29  1  0
 27  2  1  1
  2  3  1  0
  3  4  1  0
  3 30  1  0
  3 31  1  0
  4 27  1  0
  4  5  1  6
  4  6  1  0
  5 32  1  0
  5 33  1  0
  5 34  1  0
  6 23  1  0
  6  7  1  0
  6 35  1  6
  7  8  1  0
  7 36  1  0
  7 37  1  0
  8  9  1  0
  8 10  1  0
  8 38  1  1
  9 39  1  0
  9 40  1  0
  9 41  1  0
 10 20  1  0
 10 11  1  1
 10 12  1  0
 11 42  1  0
 12 13  2  0
 12 14  1  0
 14 19  2  0
 14 15  1  0
 15 16  1  0
 16 17  2  0
 16 43  1  0
 17 18  1  0
 17 19  1  0
 18 44  1  0
 18 45  1  0
 18 46  1  0
 19 20  1  0
 20 21  1  0
 20 47  1  6
 21 27  1  0
 21 22  2  0
 22 23  1  0
 22 48  1  0
 23 24  1  6
 23 25  1  0
 24 49  1  0
 24 50  1  0
 24 51  1  0
 25 26  1  0
 26 27  1  0
M  END
>  <i_m_ct_stereo_status>  (334) 
1

>  <s_m_source_file>  (334) 
/var/tmp/pbs.5076255.sched01/tmpp4327t_d/123x5hmlc3y.sdf

>  <i_m_source_file_index>  (334) 
15

>  <i_lp_mmshare_version>  (334) 
48012

>  <i_f3d_flags>  (334) 
0

>  <s_epik_input>  (334) 
W0NIMl09QzFbQ0gyXVtDQF0oW0NAQF0xMjMpKFtDSDNdKVtDQEhdNFtDQEBdKFtDSDNdKShPTzMpW0NIXT1DMltDQEBIXTVbQ0BAXShbT0hdKShbQ0BASF0oW0NIMl00KVtDSDNdKUMoPU8pYzZjNWMoW2NIXW82KVtDSDNd

>  <s_epik_cmdline>  (334) 
J2VwaWtfcHl0aG9uJywgJy1waHQnLCAnMi4wJywgJy1waCcsICc3LjAnLCAnLXRuJywgJzgnLCAnLW1hJywgJzIwMCcsICctaW1hZScsICc8aW5maWxlLm1hZT4nLCAnLW9tYWUnLCAnPG91dGZpbGUubWFlPic=

>  <r_lp_tautomer_probability>  (334) 
1

>  <r_epik_Ionization_Penalty>  (334) 
1.90723e-08

>  <r_epik_Ionization_Penalty_Charging>  (334) 
0

>  <r_epik_Ionization_Penalty_Neutral>  (334) 
1.90723e-08

>  <r_epik_State_Penalty>  (334) 
-0

>  <r_epik_Charging_Adjusted_Penalty>  (334) 
0

>  <i_epik_Tot_Q>  (334) 
0

>  <i_epik_Tot_abs_Q>  (334) 
0

>  <s_lp_Force_Field>  (334) 
OPLS3e

>  <r_lp_Energy>  (334) 
124.71

>  <b_lp_Chiralities_Consistent>  (334) 
1

>  <s_lp_Variant>  (334) 
100:0-1

>  <s_i_glide_gridfile>  (334) 
pfpi4k_grid

>  <i_i_glide_lignum>  (334) 
15

>  <i_i_glide_rotatable_bonds>  (334) 
1

>  <r_i_docking_score>  (334) 
-2.76349

>  <r_i_glide_ligand_efficiency>  (334) 
-0.102351

>  <r_i_glide_ligand_efficiency_sa>  (334) 
-0.307054

>  <r_i_glide_ligand_efficiency_ln>  (334) 
-0.643294

>  <r_i_glide_gscore>  (334) 
-2.76349

>  <r_i_glide_lipo>  (334) 
-0.659208

>  <r_i_glide_hbond>  (334) 
0

>  <r_i_glide_metal>  (334) 
-0

>  <r_i_glide_rewards>  (334) 
-0.897687

>  <r_i_glide_evdw>  (334) 
-21.3257

>  <r_i_glide_ecoul>  (334) 
-0.935403

>  <r_i_glide_erotb>  (334) 
0

>  <r_i_glide_esite>  (334) 
0

>  <r_i_glide_emodel>  (334) 
-27.0175

>  <r_i_glide_energy>  (334) 
-22.2611

>  <r_i_glide_einternal>  (334) 
0.0074359

>  <r_i_glide_intrahb_reward>  (334) 
-0

>  <i_i_glide_confnum>  (334) 
1

>  <i_i_glide_posenum>  (334) 
20

>  <r_i_glide_eff_state_penalty>  (334) 
0

>  <ligand_id>  (334) 
100

>  <original_smiles>  (334) 
C=C1CC2(C)C3CC(C)C4(O)C(=O)c5occ(C)c5C4C4=CC3(C)OOC142

>  <smiles>  (334) 
[H]OC12C(=O)c3oc([H])c(C([H])([H])[H])c3C1([H])C1=C([H])C3(C([H])([H])[H])OOC14C(=C([H])[H])C([H])([H])C4(C([H])([H])[H])C3([H])C([H])([H])C2([H])C([H])([H])[H]

$$$$
101:0:0
     RDKit          3D

 51 55  0  0  1  0  0  0  0  0999 V2000
    3.6821   -9.3890    2.7837 C   0  0  0  0  0  0  0  0  0  0  0  0
    4.3195   -7.9930    2.9959 C   0  0  1  0  0  0  0  0  0  0  0  0
    3.7320   -7.4616    4.3240 C   0  0  0  0  0  0  0  0  0  0  0  0
    4.2359   -6.0559    4.6449 C   0  0  0  0  0  0  0  0  0  0  0  0
    5.7632   -6.0336    4.7727 C   0  0  0  0  0  0  0  0  0  0  0  0
    6.5767   -6.9044    3.7589 C   0  0  2  0  0  0  0  0  0  0  0  0
    7.8465   -7.3406    4.5428 C   0  0  0  0  0  0  0  0  0  0  0  0
    7.0139   -6.1943    2.4597 C   0  0  1  0  0  0  0  0  0  0  0  0
    7.5071   -7.3452    1.5588 C   0  0  0  0  0  0  0  0  0  0  0  0
    6.6389   -8.5587    1.9346 C   0  0  0  0  0  0  0  0  0  0  0  0
    5.8560   -8.1609    3.2079 C   0  0  2  0  0  0  0  0  0  0  0  0
    5.9070   -5.3437    1.7671 C   0  0  1  0  0  0  0  0  0  0  0  0
    6.4937   -4.3332    0.7749 C   0  0  0  0  0  0  0  0  0  0  0  0
    7.7154   -4.1896    0.6572 O   0  0  0  0  0  0  0  0  0  0  0  0
    5.4916   -3.5439    0.0334 C   0  0  0  0  0  0  0  0  0  0  0  0
    4.2498   -4.0707   -0.1346 C   0  0  0  0  0  0  0  0  0  0  0  0
    3.8732   -5.3146    0.3310 O   0  0  0  0  0  0  0  0  0  0  0  0
    4.8171   -6.1545    1.0076 C   0  0  2  0  0  0  0  0  0  0  0  0
    3.8548   -7.0671    1.8184 C   0  0  0  0  0  0  0  0  0  0  0  0
    3.1689   -3.3253   -0.8195 C   0  0  0  0  0  0  0  0  0  0  0  0
    2.0835   -3.8313   -1.0941 O   0  0  0  0  0  0  0  0  0  0  0  0
    3.4197   -1.8516   -1.1552 C   0  0  0  0  0  0  0  0  0  0  0  0
    4.8897   -1.5415   -1.4785 C   0  0  0  0  0  0  0  0  0  0  0  0
    5.8561   -2.1992   -0.4914 C   0  0  0  0  0  0  0  0  0  0  0  0
    6.8729   -1.5763   -0.1883 O   0  0  0  0  0  0  0  0  0  0  0  0
    2.5931   -9.3202    2.7242 H   0  0  0  0  0  0  0  0  0  0  0  0
    3.9104  -10.0679    3.6082 H   0  0  0  0  0  0  0  0  0  0  0  0
    4.0232   -9.8655    1.8631 H   0  0  0  0  0  0  0  0  0  0  0  0
    2.6397   -7.4713    4.3059 H   0  0  0  0  0  0  0  0  0  0  0  0
    4.0196   -8.1249    5.1415 H   0  0  0  0  0  0  0  0  0  0  0  0
    3.8880   -5.3360    3.9073 H   0  0  0  0  0  0  0  0  0  0  0  0
    3.8025   -5.7271    5.5896 H   0  0  0  0  0  0  0  0  0  0  0  0
    6.1141   -5.0025    4.7415 H   0  0  0  0  0  0  0  0  0  0  0  0
    5.9820   -6.3698    5.7877 H   0  0  0  0  0  0  0  0  0  0  0  0
    8.5062   -7.9916    3.9695 H   0  0  0  0  0  0  0  0  0  0  0  0
    7.5740   -7.8961    5.4420 H   0  0  0  0  0  0  0  0  0  0  0  0
    8.4318   -6.4751    4.8600 H   0  0  0  0  0  0  0  0  0  0  0  0
    7.8577   -5.5430    2.6982 H   0  0  0  0  0  0  0  0  0  0  0  0
    7.4763   -7.1080    0.4960 H   0  0  0  0  0  0  0  0  0  0  0  0
    8.5538   -7.5653    1.7699 H   0  0  0  0  0  0  0  0  0  0  0  0
    5.9816   -8.8565    1.1190 H   0  0  0  0  0  0  0  0  0  0  0  0
    7.2775   -9.4167    2.1440 H   0  0  0  0  0  0  0  0  0  0  0  0
    5.9793   -8.9580    3.9426 H   0  0  0  0  0  0  0  0  0  0  0  0
    5.4253   -4.7245    2.5192 H   0  0  0  0  0  0  0  0  0  0  0  0
    5.2873   -6.7629    0.2329 H   0  0  0  0  0  0  0  0  0  0  0  0
    3.3625   -7.6895    1.0681 H   0  0  0  0  0  0  0  0  0  0  0  0
    3.0280   -6.4509    2.1760 H   0  0  0  0  0  0  0  0  0  0  0  0
    2.7803   -1.5599   -1.9893 H   0  0  0  0  0  0  0  0  0  0  0  0
    3.0929   -1.2646   -0.2951 H   0  0  0  0  0  0  0  0  0  0  0  0
    5.1379   -1.9040   -2.4754 H   0  0  0  0  0  0  0  0  0  0  0  0
    5.0393   -0.4613   -1.4900 H   0  0  0  0  0  0  0  0  0  0  0  0
  2  1  1  6
  1 26  1  0
  1 27  1  0
  1 28  1  0
  2 11  1  0
  2 19  1  0
  2  3  1  0
  3  4  1  0
  3 29  1  0
  3 30  1  0
  4  5  1  0
  4 31  1  0
  4 32  1  0
  5  6  1  0
  5 33  1  0
  5 34  1  0
  6 11  1  0
  6  7  1  1
  6  8  1  0
  7 35  1  0
  7 36  1  0
  7 37  1  0
  8  9  1  0
  8 12  1  0
  8 38  1  1
  9 10  1  0
  9 39  1  0
  9 40  1  0
 10 11  1  0
 10 41  1  0
 10 42  1  0
 11 43  1  1
 12 18  1  0
 12 13  1  0
 12 44  1  1
 13 14  2  0
 13 15  1  0
 15 24  1  0
 15 16  2  0
 16 17  1  0
 16 20  1  0
 17 18  1  0
 18 19  1  0
 18 45  1  6
 19 46  1  0
 19 47  1  0
 20 21  2  0
 20 22  1  0
 22 23  1  0
 22 48  1  0
 22 49  1  0
 23 24  1  0
 23 50  1  0
 23 51  1  0
 24 25  2  0
M  END
>  <i_m_ct_stereo_status>  (335) 
1

>  <s_m_source_file>  (335) 
/var/tmp/pbs.5076255.sched01/tmpp4327t_d/123x5hmlc3y.sdf

>  <i_m_source_file_index>  (335) 
16

>  <i_lp_mmshare_version>  (335) 
48012

>  <i_f3d_flags>  (335) 
0

>  <s_epik_input>  (335) 
W0NIM11bQ0BdMTJbQ0BASF0zW0NAXShbQ0gzXSkoW0NIMl1bQ0gyXVtDSDJdMSlbQ0BASF0oW0NIMl1bQ0gyXTMpW0NAQEhdNFtDQEBIXShbQ0gyXTIpT0M1PUMoQzQ9TylDKD1PKVtDSDJdW0NIMl1DNT1P

>  <s_epik_cmdline>  (335) 
J2VwaWtfcHl0aG9uJywgJy1waHQnLCAnMi4wJywgJy1waCcsICc3LjAnLCAnLXRuJywgJzgnLCAnLW1hJywgJzIwMCcsICctaW1hZScsICc8aW5maWxlLm1hZT4nLCAnLW9tYWUnLCAnPG91dGZpbGUubWFlPic=

>  <r_lp_tautomer_probability>  (335) 
1

>  <r_epik_Ionization_Penalty>  (335) 
0

>  <r_epik_Ionization_Penalty_Charging>  (335) 
0

>  <r_epik_Ionization_Penalty_Neutral>  (335) 
0

>  <r_epik_State_Penalty>  (335) 
-0

>  <r_epik_Charging_Adjusted_Penalty>  (335) 
0

>  <i_epik_Tot_Q>  (335) 
0

>  <i_epik_Tot_abs_Q>  (335) 
0

>  <s_lp_Force_Field>  (335) 
OPLS3e

>  <r_lp_Energy>  (335) 
66.6416

>  <b_lp_Chiralities_Consistent>  (335) 
1

>  <s_lp_Variant>  (335) 
101:0-1

>  <s_i_glide_gridfile>  (335) 
pfpi4k_grid

>  <i_i_glide_lignum>  (335) 
16

>  <i_i_glide_rotatable_bonds>  (335) 
0

>  <r_i_docking_score>  (335) 
-3.34048

>  <r_i_glide_ligand_efficiency>  (335) 
-0.133619

>  <r_i_glide_ligand_efficiency_sa>  (335) 
-0.390705

>  <r_i_glide_ligand_efficiency_ln>  (335) 
-0.791793

>  <r_i_glide_gscore>  (335) 
-3.34048

>  <r_i_glide_lipo>  (335) 
-0.372009

>  <r_i_glide_hbond>  (335) 
-0.122215

>  <r_i_glide_metal>  (335) 
-0

>  <r_i_glide_rewards>  (335) 
-1.32772

>  <r_i_glide_evdw>  (335) 
-25.3178

>  <r_i_glide_ecoul>  (335) 
-1.53752

>  <r_i_glide_erotb>  (335) 
0

>  <r_i_glide_esite>  (335) 
-0.0220171

>  <r_i_glide_emodel>  (335) 
-32.7201

>  <r_i_glide_energy>  (335) 
-26.8553

>  <r_i_glide_einternal>  (335) 
0

>  <r_i_glide_intrahb_reward>  (335) 
-0

>  <i_i_glide_confnum>  (335) 
2

>  <i_i_glide_posenum>  (335) 
21

>  <r_i_glide_eff_state_penalty>  (335) 
0

>  <ligand_id>  (335) 
101

>  <original_smiles>  (335) 
CC12CCCC3(C)C(CCC13)C1C(=O)C3=C(OC1C2)C(=O)CCC3=O

>  <smiles>  (335) 
[H]C([H])([H])C12C([H])([H])C([H])([H])C([H])([H])C3(C([H])([H])[H])C([H])(C([H])([H])C([H])([H])C13[H])C1([H])C(=O)C3=C(OC1([H])C2([H])[H])C(=O)C([H])([H])C([H])([H])C3=O

$$$$
101:0:1
     RDKit          3D

 51 55  0  0  1  0  0  0  0  0999 V2000
    3.4854   -1.0618   -1.6017 C   0  0  0  0  0  0  0  0  0  0  0  0
    4.3258   -2.1291   -1.0436 C   0  0  1  0  0  0  0  0  0  0  0  0
    4.9931   -2.6396   -2.2967 C   0  0  0  0  0  0  0  0  0  0  0  0
    5.8329   -3.7928   -1.9232 C   0  0  0  0  0  0  0  0  0  0  0  0
    6.9370   -3.4275   -0.9247 C   0  0  0  0  0  0  0  0  0  0  0  0
    6.5374   -2.4843    0.2258 C   0  0  2  0  0  0  0  0  0  0  0  0
    7.8434   -1.7119    0.5218 C   0  0  0  0  0  0  0  0  0  0  0  0
    6.0204   -3.1446    1.5199 C   0  0  1  0  0  0  0  0  0  0  0  0
    5.4150   -1.9729    2.3242 C   0  0  0  0  0  0  0  0  0  0  0  0
    4.8812   -0.9964    1.2663 C   0  0  0  0  0  0  0  0  0  0  0  0
    5.4001   -1.4986   -0.0990 C   0  0  2  0  0  0  0  0  0  0  0  0
    4.9903   -4.3024    1.3192 C   0  0  1  0  0  0  0  0  0  0  0  0
    4.8677   -5.1985    2.5636 C   0  0  0  0  0  0  0  0  0  0  0  0
    5.6006   -5.0270    3.5425 O   0  0  0  0  0  0  0  0  0  0  0  0
    3.8510   -6.2603    2.4516 C   0  0  0  0  0  0  0  0  0  0  0  0
    2.8050   -6.0742    1.6142 C   0  0  0  0  0  0  0  0  0  0  0  0
    2.6278   -4.9339    0.8524 O   0  0  0  0  0  0  0  0  0  0  0  0
    3.5515   -3.8522    0.9454 C   0  0  2  0  0  0  0  0  0  0  0  0
    3.3304   -3.1838   -0.4353 C   0  0  0  0  0  0  0  0  0  0  0  0
    1.7547   -7.0906    1.4341 C   0  0  0  0  0  0  0  0  0  0  0  0
    0.7045   -6.8447    0.8352 O   0  0  0  0  0  0  0  0  0  0  0  0
    1.9986   -8.4823    2.0115 C   0  0  0  0  0  0  0  0  0  0  0  0
    2.7877   -8.4392    3.3392 C   0  0  0  0  0  0  0  0  0  0  0  0
    3.9936   -7.4970    3.2753 C   0  0  0  0  0  0  0  0  0  0  0  0
    5.0089   -7.8236    3.8915 O   0  0  0  0  0  0  0  0  0  0  0  0
    2.7144   -1.3572   -2.3247 H   0  0  0  0  0  0  0  0  0  0  0  0
    4.0655   -0.2405   -2.0411 H   0  0  0  0  0  0  0  0  0  0  0  0
    2.9453   -0.6603   -0.7274 H   0  0  0  0  0  0  0  0  0  0  0  0
    4.2752   -2.9197   -3.0627 H   0  0  0  0  0  0  0  0  0  0  0  0
    5.6287   -1.8618   -2.7306 H   0  0  0  0  0  0  0  0  0  0  0  0
    5.2329   -4.6418   -1.5664 H   0  0  0  0  0  0  0  0  0  0  0  0
    6.3046   -4.1498   -2.8490 H   0  0  0  0  0  0  0  0  0  0  0  0
    7.3598   -4.3387   -0.4667 H   0  0  0  0  0  0  0  0  0  0  0  0
    7.7508   -3.0127   -1.4997 H   0  0  0  0  0  0  0  0  0  0  0  0
    7.6990   -0.9624    1.2971 H   0  0  0  0  0  0  0  0  0  0  0  0
    8.2567   -1.1945   -0.3204 H   0  0  0  0  0  0  0  0  0  0  0  0
    8.6273   -2.3931    0.8704 H   0  0  0  0  0  0  0  0  0  0  0  0
    6.8733   -3.5536    2.0570 H   0  0  0  0  0  0  0  0  0  0  0  0
    4.6620   -2.2668    3.0555 H   0  0  0  0  0  0  0  0  0  0  0  0
    6.1968   -1.4762    2.9003 H   0  0  0  0  0  0  0  0  0  0  0  0
    3.7935   -0.9254    1.3071 H   0  0  0  0  0  0  0  0  0  0  0  0
    5.2624    0.0071    1.4686 H   0  0  0  0  0  0  0  0  0  0  0  0
    5.8311   -0.6494   -0.6256 H   0  0  0  0  0  0  0  0  0  0  0  0
    5.3657   -4.9748    0.5528 H   0  0  0  0  0  0  0  0  0  0  0  0
    3.1617   -3.1849    1.7108 H   0  0  0  0  0  0  0  0  0  0  0  0
    2.3388   -2.7439   -0.3695 H   0  0  0  0  0  0  0  0  0  0  0  0
    3.1799   -3.9628   -1.1844 H   0  0  0  0  0  0  0  0  0  0  0  0
    1.0468   -8.9853    2.1602 H   0  0  0  0  0  0  0  0  0  0  0  0
    2.5494   -9.0756    1.2776 H   0  0  0  0  0  0  0  0  0  0  0  0
    2.1363   -8.0870    4.1410 H   0  0  0  0  0  0  0  0  0  0  0  0
    3.1066   -9.4421    3.6161 H   0  0  0  0  0  0  0  0  0  0  0  0
  2  1  1  6
  1 26  1  0
  1 27  1  0
  1 28  1  0
  2 11  1  0
  2 19  1  0
  2  3  1  0
  3  4  1  0
  3 29  1  0
  3 30  1  0
  4  5  1  0
  4 31  1  0
  4 32  1  0
  5  6  1  0
  5 33  1  0
  5 34  1  0
  6 11  1  0
  6  7  1  1
  6  8  1  0
  7 35  1  0
  7 36  1  0
  7 37  1  0
  8  9  1  0
  8 12  1  0
  8 38  1  1
  9 10  1  0
  9 39  1  0
  9 40  1  0
 10 11  1  0
 10 41  1  0
 10 42  1  0
 11 43  1  6
 12 18  1  0
 12 13  1  0
 12 44  1  6
 13 14  2  0
 13 15  1  0
 15 24  1  0
 15 16  2  0
 16 17  1  0
 16 20  1  0
 17 18  1  0
 18 19  1  0
 18 45  1  1
 19 46  1  0
 19 47  1  0
 20 21  2  0
 20 22  1  0
 22 23  1  0
 22 48  1  0
 22 49  1  0
 23 24  1  0
 23 50  1  0
 23 51  1  0
 24 25  2  0
M  END
>  <i_m_ct_stereo_status>  (336) 
1

>  <s_m_source_file>  (336) 
/var/tmp/pbs.5076255.sched01/tmpp4327t_d/123x5hmlc3y.sdf

>  <i_m_source_file_index>  (336) 
16

>  <i_lp_mmshare_version>  (336) 
48012

>  <i_f3d_flags>  (336) 
0

>  <s_epik_input>  (336) 
W0NIM11bQ0BdMTJbQ0BASF0zW0NAXShbQ0gzXSkoW0NIMl1bQ0gyXVtDSDJdMSlbQ0BASF0oW0NIMl1bQ0gyXTMpW0NAQEhdNFtDQEBIXShbQ0gyXTIpT0M1PUMoQzQ9TylDKD1PKVtDSDJdW0NIMl1DNT1P

>  <s_epik_cmdline>  (336) 
J2VwaWtfcHl0aG9uJywgJy1waHQnLCAnMi4wJywgJy1waCcsICc3LjAnLCAnLXRuJywgJzgnLCAnLW1hJywgJzIwMCcsICctaW1hZScsICc8aW5maWxlLm1hZT4nLCAnLW9tYWUnLCAnPG91dGZpbGUubWFlPic=

>  <r_lp_tautomer_probability>  (336) 
1

>  <r_epik_Ionization_Penalty>  (336) 
0

>  <r_epik_Ionization_Penalty_Charging>  (336) 
0

>  <r_epik_Ionization_Penalty_Neutral>  (336) 
0

>  <r_epik_State_Penalty>  (336) 
-0

>  <r_epik_Charging_Adjusted_Penalty>  (336) 
0

>  <i_epik_Tot_Q>  (336) 
0

>  <i_epik_Tot_abs_Q>  (336) 
0

>  <s_lp_Force_Field>  (336) 
OPLS3e

>  <r_lp_Energy>  (336) 
66.6416

>  <b_lp_Chiralities_Consistent>  (336) 
1

>  <s_lp_Variant>  (336) 
101:0-1

>  <s_i_glide_gridfile>  (336) 
pfpi4k_grid

>  <i_i_glide_lignum>  (336) 
16

>  <i_i_glide_rotatable_bonds>  (336) 
0

>  <r_i_docking_score>  (336) 
-3.31852

>  <r_i_glide_ligand_efficiency>  (336) 
-0.132741

>  <r_i_glide_ligand_efficiency_sa>  (336) 
-0.388136

>  <r_i_glide_ligand_efficiency_ln>  (336) 
-0.786589

>  <r_i_glide_gscore>  (336) 
-3.31852

>  <r_i_glide_lipo>  (336) 
-0.709422

>  <r_i_glide_hbond>  (336) 
-0.0408459

>  <r_i_glide_metal>  (336) 
-0

>  <r_i_glide_rewards>  (336) 
-1.07833

>  <r_i_glide_evdw>  (336) 
-21.4966

>  <r_i_glide_ecoul>  (336) 
-2.54099

>  <r_i_glide_erotb>  (336) 
0

>  <r_i_glide_esite>  (336) 
-0.0339447

>  <r_i_glide_emodel>  (336) 
-28.6931

>  <r_i_glide_energy>  (336) 
-24.0376

>  <r_i_glide_einternal>  (336) 
0

>  <r_i_glide_intrahb_reward>  (336) 
-0

>  <i_i_glide_confnum>  (336) 
1

>  <i_i_glide_posenum>  (336) 
20

>  <r_i_glide_eff_state_penalty>  (336) 
0

>  <ligand_id>  (336) 
101

>  <original_smiles>  (336) 
CC12CCCC3(C)C(CCC13)C1C(=O)C3=C(OC1C2)C(=O)CCC3=O

>  <smiles>  (336) 
[H]C([H])([H])C12C([H])([H])C([H])([H])C([H])([H])C3(C([H])([H])[H])C([H])(C([H])([H])C([H])([H])C13[H])C1([H])C(=O)C3=C(OC1([H])C2([H])[H])C(=O)C([H])([H])C([H])([H])C3=O

$$$$
101:0:2
     RDKit          3D

 51 55  0  0  1  0  0  0  0  0999 V2000
    1.7233   -8.1041    3.1941 C   0  0  0  0  0  0  0  0  0  0  0  0
    2.6142   -6.8389    3.1668 C   0  0  1  0  0  0  0  0  0  0  0  0
    2.0632   -5.9166    4.2796 C   0  0  0  0  0  0  0  0  0  0  0  0
    2.8179   -4.5898    4.3438 C   0  0  0  0  0  0  0  0  0  0  0  0
    4.3084   -4.8165    4.6226 C   0  0  0  0  0  0  0  0  0  0  0  0
    4.9920   -6.0305    3.9126 C   0  0  2  0  0  0  0  0  0  0  0  0
    6.0994   -6.4968    4.8981 C   0  0  0  0  0  0  0  0  0  0  0  0
    5.6417   -5.7328    2.5454 C   0  0  1  0  0  0  0  0  0  0  0  0
    5.9466   -7.1312    1.9659 C   0  0  0  0  0  0  0  0  0  0  0  0
    4.8343   -8.0459    2.5019 C   0  0  0  0  0  0  0  0  0  0  0  0
    4.0702   -7.2283    3.5700 C   0  0  2  0  0  0  0  0  0  0  0  0
    4.7733   -4.8785    1.5769 C   0  0  1  0  0  0  0  0  0  0  0  0
    5.6144   -4.2395    0.4624 C   0  0  0  0  0  0  0  0  0  0  0  0
    6.8453   -4.3430    0.4467 O   0  0  0  0  0  0  0  0  0  0  0  0
    4.8407   -3.4707   -0.5338 C   0  0  0  0  0  0  0  0  0  0  0  0
    3.5289   -3.7863   -0.6955 C   0  0  0  0  0  0  0  0  0  0  0  0
    2.8748   -4.7780   -0.0029 O   0  0  0  0  0  0  0  0  0  0  0  0
    3.5923   -5.6276    0.8998 C   0  0  2  0  0  0  0  0  0  0  0  0
    2.4179   -6.1421    1.7771 C   0  0  0  0  0  0  0  0  0  0  0  0
    2.6726   -3.0677   -1.6586 C   0  0  0  0  0  0  0  0  0  0  0  0
    1.5472   -3.4614   -1.9440 O   0  0  0  0  0  0  0  0  0  0  0  0
    3.2104   -1.7792   -2.2807 C   0  0  0  0  0  0  0  0  0  0  0  0
    4.7304   -1.8115   -2.5063 C   0  0  0  0  0  0  0  0  0  0  0  0
    5.4963   -2.3797   -1.3080 C   0  0  0  0  0  0  0  0  0  0  0  0
    6.5974   -1.8802   -1.0515 O   0  0  0  0  0  0  0  0  0  0  0  0
    0.6756   -7.8540    3.0067 H   0  0  0  0  0  0  0  0  0  0  0  0
    1.7633   -8.6039    4.1644 H   0  0  0  0  0  0  0  0  0  0  0  0
    2.0212   -8.8306    2.4362 H   0  0  0  0  0  0  0  0  0  0  0  0
    0.9952   -5.7280    4.1506 H   0  0  0  0  0  0  0  0  0  0  0  0
    2.1635   -6.4111    5.2464 H   0  0  0  0  0  0  0  0  0  0  0  0
    2.6735   -4.0070    3.4355 H   0  0  0  0  0  0  0  0  0  0  0  0
    2.4049   -3.9761    5.1449 H   0  0  0  0  0  0  0  0  0  0  0  0
    4.8611   -3.9025    4.4070 H   0  0  0  0  0  0  0  0  0  0  0  0
    4.3964   -4.9436    5.7031 H   0  0  0  0  0  0  0  0  0  0  0  0
    6.6477   -7.3723    4.5480 H   0  0  0  0  0  0  0  0  0  0  0  0
    5.6646   -6.7706    5.8606 H   0  0  0  0  0  0  0  0  0  0  0  0
    6.8251   -5.7008    5.0801 H   0  0  0  0  0  0  0  0  0  0  0  0
    6.5825   -5.2062    2.7217 H   0  0  0  0  0  0  0  0  0  0  0  0
    6.0150   -7.1535    0.8802 H   0  0  0  0  0  0  0  0  0  0  0  0
    6.9149   -7.4816    2.3230 H   0  0  0  0  0  0  0  0  0  0  0  0
    4.1812   -8.3976    1.7033 H   0  0  0  0  0  0  0  0  0  0  0  0
    5.2758   -8.9345    2.9520 H   0  0  0  0  0  0  0  0  0  0  0  0
    3.9860   -7.8421    4.4676 H   0  0  0  0  0  0  0  0  0  0  0  0
    4.3785   -4.0249    2.1211 H   0  0  0  0  0  0  0  0  0  0  0  0
    3.9719   -6.4680    0.3134 H   0  0  0  0  0  0  0  0  0  0  0  0
    1.8561   -6.8181    1.1289 H   0  0  0  0  0  0  0  0  0  0  0  0
    1.7160   -5.3173    1.9095 H   0  0  0  0  0  0  0  0  0  0  0  0
    2.6925   -1.5658   -3.2167 H   0  0  0  0  0  0  0  0  0  0  0  0
    2.9679   -0.9572   -1.6061 H   0  0  0  0  0  0  0  0  0  0  0  0
    4.9663   -2.4273   -3.3746 H   0  0  0  0  0  0  0  0  0  0  0  0
    5.0864   -0.8027   -2.7216 H   0  0  0  0  0  0  0  0  0  0  0  0
  2  1  1  6
  1 26  1  0
  1 27  1  0
  1 28  1  0
  2 11  1  0
  2 19  1  0
  2  3  1  0
  3  4  1  0
  3 29  1  0
  3 30  1  0
  4  5  1  0
  4 31  1  0
  4 32  1  0
  5  6  1  0
  5 33  1  0
  5 34  1  0
  6 11  1  0
  6  7  1  1
  6  8  1  0
  7 35  1  0
  7 36  1  0
  7 37  1  0
  8  9  1  0
  8 12  1  0
  8 38  1  1
  9 10  1  0
  9 39  1  0
  9 40  1  0
 10 11  1  0
 10 41  1  0
 10 42  1  0
 11 43  1  1
 12 18  1  0
 12 13  1  0
 12 44  1  1
 13 14  2  0
 13 15  1  0
 15 24  1  0
 15 16  2  0
 16 17  1  0
 16 20  1  0
 17 18  1  0
 18 19  1  0
 18 45  1  6
 19 46  1  0
 19 47  1  0
 20 21  2  0
 20 22  1  0
 22 23  1  0
 22 48  1  0
 22 49  1  0
 23 24  1  0
 23 50  1  0
 23 51  1  0
 24 25  2  0
M  END
>  <i_m_ct_stereo_status>  (337) 
1

>  <s_m_source_file>  (337) 
/var/tmp/pbs.5076255.sched01/tmpp4327t_d/123x5hmlc3y.sdf

>  <i_m_source_file_index>  (337) 
16

>  <i_lp_mmshare_version>  (337) 
48012

>  <i_f3d_flags>  (337) 
0

>  <s_epik_input>  (337) 
W0NIM11bQ0BdMTJbQ0BASF0zW0NAXShbQ0gzXSkoW0NIMl1bQ0gyXVtDSDJdMSlbQ0BASF0oW0NIMl1bQ0gyXTMpW0NAQEhdNFtDQEBIXShbQ0gyXTIpT0M1PUMoQzQ9TylDKD1PKVtDSDJdW0NIMl1DNT1P

>  <s_epik_cmdline>  (337) 
J2VwaWtfcHl0aG9uJywgJy1waHQnLCAnMi4wJywgJy1waCcsICc3LjAnLCAnLXRuJywgJzgnLCAnLW1hJywgJzIwMCcsICctaW1hZScsICc8aW5maWxlLm1hZT4nLCAnLW9tYWUnLCAnPG91dGZpbGUubWFlPic=

>  <r_lp_tautomer_probability>  (337) 
1

>  <r_epik_Ionization_Penalty>  (337) 
0

>  <r_epik_Ionization_Penalty_Charging>  (337) 
0

>  <r_epik_Ionization_Penalty_Neutral>  (337) 
0

>  <r_epik_State_Penalty>  (337) 
-0

>  <r_epik_Charging_Adjusted_Penalty>  (337) 
0

>  <i_epik_Tot_Q>  (337) 
0

>  <i_epik_Tot_abs_Q>  (337) 
0

>  <s_lp_Force_Field>  (337) 
OPLS3e

>  <r_lp_Energy>  (337) 
66.6416

>  <b_lp_Chiralities_Consistent>  (337) 
1

>  <s_lp_Variant>  (337) 
101:0-1

>  <s_i_glide_gridfile>  (337) 
pfpi4k_grid

>  <i_i_glide_lignum>  (337) 
16

>  <i_i_glide_rotatable_bonds>  (337) 
0

>  <r_i_docking_score>  (337) 
-3.06399

>  <r_i_glide_ligand_efficiency>  (337) 
-0.12256

>  <r_i_glide_ligand_efficiency_sa>  (337) 
-0.358366

>  <r_i_glide_ligand_efficiency_ln>  (337) 
-0.726257

>  <r_i_glide_gscore>  (337) 
-3.06399

>  <r_i_glide_lipo>  (337) 
-0.152478

>  <r_i_glide_hbond>  (337) 
-0.16

>  <r_i_glide_metal>  (337) 
-0

>  <r_i_glide_rewards>  (337) 
-1.20397

>  <r_i_glide_evdw>  (337) 
-24.3081

>  <r_i_glide_ecoul>  (337) 
-2.04758

>  <r_i_glide_erotb>  (337) 
0

>  <r_i_glide_esite>  (337) 
-0.0250032

>  <r_i_glide_emodel>  (337) 
-31.6858

>  <r_i_glide_energy>  (337) 
-26.3557

>  <r_i_glide_einternal>  (337) 
0

>  <r_i_glide_intrahb_reward>  (337) 
-0

>  <i_i_glide_confnum>  (337) 
2

>  <i_i_glide_posenum>  (337) 
1

>  <r_i_glide_eff_state_penalty>  (337) 
0

>  <ligand_id>  (337) 
101

>  <original_smiles>  (337) 
CC12CCCC3(C)C(CCC13)C1C(=O)C3=C(OC1C2)C(=O)CCC3=O

>  <smiles>  (337) 
[H]C([H])([H])C12C([H])([H])C([H])([H])C([H])([H])C3(C([H])([H])[H])C([H])(C([H])([H])C([H])([H])C13[H])C1([H])C(=O)C3=C(OC1([H])C2([H])[H])C(=O)C([H])([H])C([H])([H])C3=O

$$$$
102:0:0
     RDKit          3D

 60 63  0  0  1  0  0  0  0  0999 V2000
    5.7520   -5.5833    2.1312 C   0  0  0  0  0  0  0  0  0  0  0  0
    4.2241   -5.4254    1.9662 C   0  0  0  0  0  0  0  0  0  0  0  0
    3.6529   -6.7703    1.4633 C   0  0  0  0  0  0  0  0  0  0  0  0
    3.7231   -4.2066    1.0979 C   0  0  2  0  0  0  0  0  0  0  0  0
    4.4312   -4.2204   -0.2761 C   0  0  0  0  0  0  0  0  0  0  0  0
    3.8611   -3.2973   -1.3498 C   0  0  0  0  0  0  0  0  0  0  0  0
    4.1486   -1.7892   -1.1883 C   0  0  1  0  0  0  0  0  0  0  0  0
    3.5551   -1.0790   -2.4273 C   0  0  0  0  0  0  0  0  0  0  0  0
    3.5346   -1.1859   -0.0641 O   0  0  0  0  0  0  0  0  0  0  0  0
    2.7154   -1.8596    0.8283 C   0  0  2  0  0  0  0  0  0  0  0  0
    2.2220   -0.6275    1.7296 N   0  0  1  0  0  0  0  0  0  0  0  0
    1.0967   -0.9795    2.6034 C   0  0  0  0  0  0  0  0  0  0  0  0
    1.4815   -2.0803    3.5837 C   0  0  0  0  0  0  0  0  0  0  0  0
    2.3418   -3.1856    2.9349 C   0  0  0  0  0  0  0  0  0  0  0  0
    3.4459   -2.8085    1.8471 C   0  0  1  0  0  0  0  0  0  0  0  0
    4.7025   -2.0450    2.4443 C   0  0  1  0  0  0  0  0  0  0  0  0
    5.1240   -2.8378    3.5379 O   0  0  0  0  0  0  0  0  0  0  0  0
    5.9921   -1.9580    1.5467 C   0  0  0  0  0  0  0  0  0  0  0  0
    6.0941   -0.9436    0.3830 C   0  0  0  0  0  0  0  0  0  0  0  0
    5.6421   -1.3683   -1.0327 C   0  0  1  0  0  0  0  0  0  0  0  0
    6.5710   -2.2880   -1.5656 O   0  0  0  0  0  0  0  0  0  0  0  0
    4.3216   -0.7043    3.1588 C   0  0  1  0  0  0  0  0  0  0  0  0
    5.5107    0.1257    3.6803 C   0  0  0  0  0  0  0  0  0  0  0  0
    3.3136    0.1560    2.3682 C   0  0  0  0  0  0  0  0  0  0  0  0
    6.2503   -5.8125    1.1931 H   0  0  0  0  0  0  0  0  0  0  0  0
    5.9705   -6.4112    2.8036 H   0  0  0  0  0  0  0  0  0  0  0  0
    6.2436   -4.7172    2.5648 H   0  0  0  0  0  0  0  0  0  0  0  0
    3.8303   -5.3362    2.9733 H   0  0  0  0  0  0  0  0  0  0  0  0
    4.0202   -7.0357    0.4727 H   0  0  0  0  0  0  0  0  0  0  0  0
    2.5648   -6.7587    1.4243 H   0  0  0  0  0  0  0  0  0  0  0  0
    3.9384   -7.5850    2.1300 H   0  0  0  0  0  0  0  0  0  0  0  0
    2.7216   -4.5175    0.7992 H   0  0  0  0  0  0  0  0  0  0  0  0
    5.5065   -4.1332   -0.2029 H   0  0  0  0  0  0  0  0  0  0  0  0
    4.2986   -5.2135   -0.7010 H   0  0  0  0  0  0  0  0  0  0  0  0
    4.2702   -3.6184   -2.3087 H   0  0  0  0  0  0  0  0  0  0  0  0
    2.7875   -3.4652   -1.4475 H   0  0  0  0  0  0  0  0  0  0  0  0
    4.0211   -1.4313   -3.3483 H   0  0  0  0  0  0  0  0  0  0  0  0
    3.7176   -0.0036   -2.3970 H   0  0  0  0  0  0  0  0  0  0  0  0
    2.4843   -1.2576   -2.5155 H   0  0  0  0  0  0  0  0  0  0  0  0
    1.8694   -2.3386    0.3460 H   0  0  0  0  0  0  0  0  0  0  0  0
    0.7107   -0.1021    3.1293 H   0  0  0  0  0  0  0  0  0  0  0  0
    0.3079   -1.3299    1.9474 H   0  0  0  0  0  0  0  0  0  0  0  0
    1.9590   -1.6657    4.4644 H   0  0  0  0  0  0  0  0  0  0  0  0
    0.5693   -2.5356    3.9698 H   0  0  0  0  0  0  0  0  0  0  0  0
    2.7953   -3.7190    3.7699 H   0  0  0  0  0  0  0  0  0  0  0  0
    1.6286   -3.8867    2.4966 H   0  0  0  0  0  0  0  0  0  0  0  0
    5.9068   -2.4495    3.8924 H   0  0  0  0  0  0  0  0  0  0  0  0
    6.7995   -1.6430    2.1967 H   0  0  0  0  0  0  0  0  0  0  0  0
    6.3341   -2.9363    1.2260 H   0  0  0  0  0  0  0  0  0  0  0  0
    5.6045   -0.0151    0.6530 H   0  0  0  0  0  0  0  0  0  0  0  0
    7.1418   -0.6588    0.3057 H   0  0  0  0  0  0  0  0  0  0  0  0
    5.7826   -0.4740   -1.6407 H   0  0  0  0  0  0  0  0  0  0  0  0
    6.4140   -3.1317   -1.1675 H   0  0  0  0  0  0  0  0  0  0  0  0
    3.8218   -0.9637    4.0828 H   0  0  0  0  0  0  0  0  0  0  0  0
    6.1203    0.5364    2.8820 H   0  0  0  0  0  0  0  0  0  0  0  0
    6.1733   -0.4635    4.3099 H   0  0  0  0  0  0  0  0  0  0  0  0
    5.1611    0.9571    4.2899 H   0  0  0  0  0  0  0  0  0  0  0  0
    3.8175    0.7239    1.5931 H   0  0  0  0  0  0  0  0  0  0  0  0
    2.8817    0.9013    3.0384 H   0  0  0  0  0  0  0  0  0  0  0  0
    1.7956    0.0266    1.0850 H   0  0  0  0  0  0  0  0  0  0  0  0
  1  2  1  0
  1 25  1  0
  1 26  1  0
  1 27  1  0
  2  3  1  0
  2  4  1  0
  2 28  1  0
  3 29  1  0
  3 30  1  0
  3 31  1  0
  4 15  1  0
  4  5  1  0
  4 32  1  6
  5  6  1  0
  5 33  1  0
  5 34  1  0
  6  7  1  0
  6 35  1  0
  6 36  1  0
  7 20  1  0
  7  8  1  6
  7  9  1  0
  8 37  1  0
  8 38  1  0
  8 39  1  0
  9 10  1  0
 10 15  1  0
 10 11  1  0
 10 40  1  6
 11 24  1  0
 11 12  1  0
 11 60  1  6
 12 13  1  0
 12 41  1  0
 12 42  1  0
 13 14  1  0
 13 43  1  0
 13 44  1  0
 15 14  1  1
 14 45  1  0
 14 46  1  0
 15 16  1  0
 16 17  1  1
 16 18  1  0
 16 22  1  0
 17 47  1  0
 18 19  1  0
 18 48  1  0
 18 49  1  0
 19 20  1  0
 19 50  1  0
 19 51  1  0
 20 21  1  0
 20 52  1  6
 21 53  1  0
 22 23  1  0
 22 24  1  0
 22 54  1  1
 23 55  1  0
 23 56  1  0
 23 57  1  0
 24 58  1  0
 24 59  1  0
M  CHG  1  11   1
M  END
>  <i_m_ct_stereo_status>  (338) 
1

>  <s_m_source_file>  (338) 
/var/tmp/pbs.5076255.sched01/tmpp4327t_d/123x5hmlc3y.sdf

>  <i_m_source_file_index>  (338) 
17

>  <i_lp_mmshare_version>  (338) 
48012

>  <i_f3d_flags>  (338) 
0

>  <s_epik_input>  (338) 
W0NIM11bQ0hdKFtDSDNdKVtDQEBIXTFbQ0gyXVtDSDJdW0NAXShPMikoW0NIM10pW0NASF0oW09IXSlbQ0gyXVtDSDJdW0NAQF0zKFtPSF0pW0NAQEhdKFtDSDNdKVtDSDJdTihbQ0BASF0yW0NAQF0xMzQpW0NIMl1bQ0gyXVtDSDJdNA==

>  <s_epik_cmdline>  (338) 
J2VwaWtfcHl0aG9uJywgJy1waHQnLCAnMi4wJywgJy1waCcsICc3LjAnLCAnLXRuJywgJzgnLCAnLW1hJywgJzIwMCcsICctaW1hZScsICc8aW5maWxlLm1hZT4nLCAnLW9tYWUnLCAnPG91dGZpbGUubWFlPic=

>  <r_epik_Ionization_Penalty>  (338) 
0.030614

>  <r_epik_Ionization_Penalty_Charging>  (338) 
0.0306138

>  <r_epik_Ionization_Penalty_Neutral>  (338) 
1.37893e-07

>  <r_epik_State_Penalty>  (338) 
0.0252544

>  <r_epik_Charging_Adjusted_Penalty>  (338) 
0.0558682

>  <i_epik_Tot_Q>  (338) 
1

>  <i_epik_Tot_abs_Q>  (338) 
1

>  <s_epik_Chemistry_Notes>  (338) 
This compound contains an acetal/aminal-like group ( X-CH(R)-Y where X, Y are N, S, or O) that may be acid/base labile, releasing an aldehyde.

>  <s_lp_Force_Field>  (338) 
OPLS3e

>  <r_lp_Energy>  (338) 
80.9558

>  <b_lp_Chiralities_Consistent>  (338) 
1

>  <s_lp_Variant>  (338) 
102:0-1

>  <s_i_glide_gridfile>  (338) 
pfpi4k_grid

>  <i_i_glide_lignum>  (338) 
17

>  <i_i_glide_rotatable_bonds>  (338) 
3

>  <r_i_docking_score>  (338) 
-3.80017

>  <r_i_glide_ligand_efficiency>  (338) 
-0.158341

>  <r_i_glide_ligand_efficiency_sa>  (338) 
-0.456733

>  <r_i_glide_ligand_efficiency_ln>  (338) 
-0.909556

>  <r_i_glide_gscore>  (338) 
-3.80017

>  <r_i_glide_lipo>  (338) 
-0.605513

>  <r_i_glide_hbond>  (338) 
-0.160386

>  <r_i_glide_metal>  (338) 
-0

>  <r_i_glide_rewards>  (338) 
-1.1011

>  <r_i_glide_evdw>  (338) 
-17.7298

>  <r_i_glide_ecoul>  (338) 
-6.13248

>  <r_i_glide_erotb>  (338) 
0

>  <r_i_glide_esite>  (338) 
-0.126811

>  <r_i_glide_emodel>  (338) 
-30.2193

>  <r_i_glide_energy>  (338) 
-23.8623

>  <r_i_glide_einternal>  (338) 
0.0579227

>  <r_i_glide_intrahb_reward>  (338) 
-0

>  <i_i_glide_confnum>  (338) 
1

>  <i_i_glide_posenum>  (338) 
17

>  <r_i_glide_eff_state_penalty>  (338) 
0

>  <ligand_id>  (338) 
102

>  <original_smiles>  (338) 
CC(C)C1CCC2(C)OC3N4CCCC13C(O)(CCC2O)C(C)C4

>  <smiles>  (338) 
[H]OC1([H])C([H])([H])C([H])([H])C2(O[H])C([H])(C([H])([H])[H])C([H])([H])[N+]3([H])C([H])([H])C([H])([H])C([H])([H])C24C([H])(C([H])(C([H])([H])[H])C([H])([H])[H])C([H])([H])C([H])([H])C1(C([H])([H])[H])OC43[H]

$$$$
102:0:1
     RDKit          3D

 60 63  0  0  1  0  0  0  0  0999 V2000
    5.6942   -5.6008    2.2273 C   0  0  0  0  0  0  0  0  0  0  0  0
    4.1646   -5.4247    2.0576 C   0  0  0  0  0  0  0  0  0  0  0  0
    3.5802   -6.7705    1.5730 C   0  0  0  0  0  0  0  0  0  0  0  0
    3.6732   -4.2175    1.1652 C   0  0  2  0  0  0  0  0  0  0  0  0
    4.3867   -4.2598   -0.2056 C   0  0  0  0  0  0  0  0  0  0  0  0
    3.8298   -3.3489   -1.2957 C   0  0  0  0  0  0  0  0  0  0  0  0
    4.1329   -1.8410   -1.1589 C   0  0  1  0  0  0  0  0  0  0  0  0
    3.5473   -1.1453   -2.4092 C   0  0  0  0  0  0  0  0  0  0  0  0
    3.5234   -1.2193   -0.0430 O   0  0  0  0  0  0  0  0  0  0  0  0
    2.6823   -1.8646    0.8460 C   0  0  2  0  0  0  0  0  0  0  0  0
    2.2063   -0.6146    1.7381 N   0  0  1  0  0  0  0  0  0  0  0  0
    1.0734   -0.9390    2.6048 C   0  0  0  0  0  0  0  0  0  0  0  0
    1.4406   -2.0299    3.6042 C   0  0  0  0  0  0  0  0  0  0  0  0
    2.2951   -3.1521    2.9765 C   0  0  0  0  0  0  0  0  0  0  0  0
    3.4066   -2.8024    1.8851 C   0  0  1  0  0  0  0  0  0  0  0  0
    4.6690   -2.0366    2.4709 C   0  0  1  0  0  0  0  0  0  0  0  0
    5.0812   -2.8021    3.5860 O   0  0  0  0  0  0  0  0  0  0  0  0
    5.9612   -1.9825    1.5788 C   0  0  0  0  0  0  0  0  0  0  0  0
    6.0815   -0.9871    0.4033 C   0  0  0  0  0  0  0  0  0  0  0  0
    5.6297   -1.4315   -1.0085 C   0  0  1  0  0  0  0  0  0  0  0  0
    6.5500   -2.3685   -1.5256 O   0  0  0  0  0  0  0  0  0  0  0  0
    4.2938   -0.6899    3.1687 C   0  0  1  0  0  0  0  0  0  0  0  0
    5.4895    0.1343    3.6831 C   0  0  0  0  0  0  0  0  0  0  0  0
    3.2942    0.1667    2.3635 C   0  0  0  0  0  0  0  0  0  0  0  0
    6.1797   -5.8636    1.2909 H   0  0  0  0  0  0  0  0  0  0  0  0
    5.8927   -6.4221    2.9147 H   0  0  0  0  0  0  0  0  0  0  0  0
    6.2203   -4.7438    2.6377 H   0  0  0  0  0  0  0  0  0  0  0  0
    3.7601   -5.3197    3.0600 H   0  0  0  0  0  0  0  0  0  0  0  0
    3.9468   -7.0554    0.5872 H   0  0  0  0  0  0  0  0  0  0  0  0
    2.4915   -6.7506    1.5309 H   0  0  0  0  0  0  0  0  0  0  0  0
    3.8552   -7.5803    2.2511 H   0  0  0  0  0  0  0  0  0  0  0  0
    2.6695   -4.5248    0.8676 H   0  0  0  0  0  0  0  0  0  0  0  0
    5.4612   -4.1814   -0.1301 H   0  0  0  0  0  0  0  0  0  0  0  0
    4.2451   -5.2574   -0.6157 H   0  0  0  0  0  0  0  0  0  0  0  0
    4.2387   -3.6882   -2.2478 H   0  0  0  0  0  0  0  0  0  0  0  0
    2.7542   -3.5077   -1.3974 H   0  0  0  0  0  0  0  0  0  0  0  0
    4.0166   -1.5105   -3.3240 H   0  0  0  0  0  0  0  0  0  0  0  0
    3.7093   -0.0686   -2.3908 H   0  0  0  0  0  0  0  0  0  0  0  0
    2.4747   -1.3217   -2.5010 H   0  0  0  0  0  0  0  0  0  0  0  0
    1.8357   -2.3446    0.3690 H   0  0  0  0  0  0  0  0  0  0  0  0
    0.6931   -0.0528    3.1159 H   0  0  0  0  0  0  0  0  0  0  0  0
    0.2809   -1.2891    1.9552 H   0  0  0  0  0  0  0  0  0  0  0  0
    1.9181   -1.6050    4.4820 H   0  0  0  0  0  0  0  0  0  0  0  0
    0.5221   -2.4698    3.9947 H   0  0  0  0  0  0  0  0  0  0  0  0
    2.7386   -3.6754    3.8258 H   0  0  0  0  0  0  0  0  0  0  0  0
    1.5748   -3.8556    2.5509 H   0  0  0  0  0  0  0  0  0  0  0  0
    5.3235   -3.6642    3.2800 H   0  0  0  0  0  0  0  0  0  0  0  0
    6.7529   -1.6641    2.2428 H   0  0  0  0  0  0  0  0  0  0  0  0
    6.3036   -2.9671    1.2774 H   0  0  0  0  0  0  0  0  0  0  0  0
    5.5952   -0.0528    0.6599 H   0  0  0  0  0  0  0  0  0  0  0  0
    7.1334   -0.7115    0.3320 H   0  0  0  0  0  0  0  0  0  0  0  0
    5.7800   -0.5471   -1.6277 H   0  0  0  0  0  0  0  0  0  0  0  0
    6.3981   -3.1985   -1.1005 H   0  0  0  0  0  0  0  0  0  0  0  0
    3.7968   -0.9434    4.0969 H   0  0  0  0  0  0  0  0  0  0  0  0
    6.1037    0.5354    2.8814 H   0  0  0  0  0  0  0  0  0  0  0  0
    6.1445   -0.4572    4.3220 H   0  0  0  0  0  0  0  0  0  0  0  0
    5.1447    0.9761    4.2806 H   0  0  0  0  0  0  0  0  0  0  0  0
    3.8170    0.7191    1.5856 H   0  0  0  0  0  0  0  0  0  0  0  0
    2.8757    0.9278    3.0242 H   0  0  0  0  0  0  0  0  0  0  0  0
    1.7913    0.0328    1.0776 H   0  0  0  0  0  0  0  0  0  0  0  0
  1  2  1  0
  1 25  1  0
  1 26  1  0
  1 27  1  0
  2  3  1  0
  2  4  1  0
  2 28  1  0
  3 29  1  0
  3 30  1  0
  3 31  1  0
  4 15  1  0
  4  5  1  0
  4 32  1  6
  5  6  1  0
  5 33  1  0
  5 34  1  0
  6  7  1  0
  6 35  1  0
  6 36  1  0
  7 20  1  0
  7  8  1  6
  7  9  1  0
  8 37  1  0
  8 38  1  0
  8 39  1  0
  9 10  1  0
 10 15  1  0
 10 11  1  0
 10 40  1  6
 11 24  1  0
 11 12  1  0
 11 60  1  6
 12 13  1  0
 12 41  1  0
 12 42  1  0
 13 14  1  0
 13 43  1  0
 13 44  1  0
 15 14  1  1
 14 45  1  0
 14 46  1  0
 15 16  1  0
 16 17  1  1
 16 18  1  0
 16 22  1  0
 17 47  1  0
 18 19  1  0
 18 48  1  0
 18 49  1  0
 19 20  1  0
 19 50  1  0
 19 51  1  0
 20 21  1  0
 20 52  1  6
 21 53  1  0
 22 23  1  0
 22 24  1  0
 22 54  1  1
 23 55  1  0
 23 56  1  0
 23 57  1  0
 24 58  1  0
 24 59  1  0
M  CHG  1  11   1
M  END
>  <i_m_ct_stereo_status>  (339) 
1

>  <s_m_source_file>  (339) 
/var/tmp/pbs.5076255.sched01/tmpp4327t_d/123x5hmlc3y.sdf

>  <i_m_source_file_index>  (339) 
17

>  <i_lp_mmshare_version>  (339) 
48012

>  <i_f3d_flags>  (339) 
0

>  <s_epik_input>  (339) 
W0NIM11bQ0hdKFtDSDNdKVtDQEBIXTFbQ0gyXVtDSDJdW0NAXShPMikoW0NIM10pW0NASF0oW09IXSlbQ0gyXVtDSDJdW0NAQF0zKFtPSF0pW0NAQEhdKFtDSDNdKVtDSDJdTihbQ0BASF0yW0NAQF0xMzQpW0NIMl1bQ0gyXVtDSDJdNA==

>  <s_epik_cmdline>  (339) 
J2VwaWtfcHl0aG9uJywgJy1waHQnLCAnMi4wJywgJy1waCcsICc3LjAnLCAnLXRuJywgJzgnLCAnLW1hJywgJzIwMCcsICctaW1hZScsICc8aW5maWxlLm1hZT4nLCAnLW9tYWUnLCAnPG91dGZpbGUubWFlPic=

>  <r_epik_Ionization_Penalty>  (339) 
0.030614

>  <r_epik_Ionization_Penalty_Charging>  (339) 
0.0306138

>  <r_epik_Ionization_Penalty_Neutral>  (339) 
1.37893e-07

>  <r_epik_State_Penalty>  (339) 
0.0252544

>  <r_epik_Charging_Adjusted_Penalty>  (339) 
0.0558682

>  <i_epik_Tot_Q>  (339) 
1

>  <i_epik_Tot_abs_Q>  (339) 
1

>  <s_epik_Chemistry_Notes>  (339) 
This compound contains an acetal/aminal-like group ( X-CH(R)-Y where X, Y are N, S, or O) that may be acid/base labile, releasing an aldehyde.

>  <s_lp_Force_Field>  (339) 
OPLS3e

>  <r_lp_Energy>  (339) 
80.9558

>  <b_lp_Chiralities_Consistent>  (339) 
1

>  <s_lp_Variant>  (339) 
102:0-1

>  <s_i_glide_gridfile>  (339) 
pfpi4k_grid

>  <i_i_glide_lignum>  (339) 
17

>  <i_i_glide_rotatable_bonds>  (339) 
3

>  <r_i_docking_score>  (339) 
-3.79719

>  <r_i_glide_ligand_efficiency>  (339) 
-0.158216

>  <r_i_glide_ligand_efficiency_sa>  (339) 
-0.456375

>  <r_i_glide_ligand_efficiency_ln>  (339) 
-0.908843

>  <r_i_glide_gscore>  (339) 
-3.79719

>  <r_i_glide_lipo>  (339) 
-0.580222

>  <r_i_glide_hbond>  (339) 
-0.129124

>  <r_i_glide_metal>  (339) 
-0

>  <r_i_glide_rewards>  (339) 
-1.1011

>  <r_i_glide_evdw>  (339) 
-18.0047

>  <r_i_glide_ecoul>  (339) 
-6.39637

>  <r_i_glide_erotb>  (339) 
0

>  <r_i_glide_esite>  (339) 
-0.127052

>  <r_i_glide_emodel>  (339) 
-30.7737

>  <r_i_glide_energy>  (339) 
-24.4011

>  <r_i_glide_einternal>  (339) 
0.0380812

>  <r_i_glide_intrahb_reward>  (339) 
-0

>  <i_i_glide_confnum>  (339) 
2

>  <i_i_glide_posenum>  (339) 
7

>  <r_i_glide_eff_state_penalty>  (339) 
0

>  <ligand_id>  (339) 
102

>  <original_smiles>  (339) 
CC(C)C1CCC2(C)OC3N4CCCC13C(O)(CCC2O)C(C)C4

>  <smiles>  (339) 
[H]OC1([H])C([H])([H])C([H])([H])C2(O[H])C([H])(C([H])([H])[H])C([H])([H])[N+]3([H])C([H])([H])C([H])([H])C([H])([H])C24C([H])(C([H])(C([H])([H])[H])C([H])([H])[H])C([H])([H])C([H])([H])C1(C([H])([H])[H])OC43[H]

$$$$
102:0:2
     RDKit          3D

 60 63  0  0  1  0  0  0  0  0999 V2000
    5.4654   -0.2941    3.4151 C   0  0  0  0  0  0  0  0  0  0  0  0
    4.2059   -0.2352    2.5200 C   0  0  0  0  0  0  0  0  0  0  0  0
    3.1032    0.5319    3.2863 C   0  0  0  0  0  0  0  0  0  0  0  0
    3.6707   -1.6077    1.9465 C   0  0  2  0  0  0  0  0  0  0  0  0
    3.5599   -2.6433    3.0822 C   0  0  0  0  0  0  0  0  0  0  0  0
    2.7995   -3.9292    2.7619 C   0  0  0  0  0  0  0  0  0  0  0  0
    3.5179   -4.9561    1.8608 C   0  0  1  0  0  0  0  0  0  0  0  0
    2.5922   -6.1905    1.7395 C   0  0  0  0  0  0  0  0  0  0  0  0
    3.7176   -4.5294    0.5261 O   0  0  0  0  0  0  0  0  0  0  0  0
    3.3063   -3.2996    0.0303 C   0  0  2  0  0  0  0  0  0  0  0  0
    3.6997   -3.4674   -1.5139 N   0  0  1  0  0  0  0  0  0  0  0  0
    3.0979   -2.4311   -2.3645 C   0  0  0  0  0  0  0  0  0  0  0  0
    3.6429   -1.0660   -1.9799 C   0  0  0  0  0  0  0  0  0  0  0  0
    3.7491   -0.8725   -0.4483 C   0  0  0  0  0  0  0  0  0  0  0  0
    4.1900   -2.0731    0.4959 C   0  0  1  0  0  0  0  0  0  0  0  0
    5.7313   -2.4398    0.3625 C   0  0  1  0  0  0  0  0  0  0  0  0
    6.4374   -1.2192    0.4969 O   0  0  0  0  0  0  0  0  0  0  0  0
    6.3732   -3.3257    1.4890 C   0  0  0  0  0  0  0  0  0  0  0  0
    6.1371   -4.8533    1.5202 C   0  0  0  0  0  0  0  0  0  0  0  0
    4.9349   -5.4187    2.3190 C   0  0  1  0  0  0  0  0  0  0  0  0
    5.1562   -5.2662    3.7076 O   0  0  0  0  0  0  0  0  0  0  0  0
    6.1303   -2.8320   -1.0930 C   0  0  1  0  0  0  0  0  0  0  0  0
    7.5902   -3.2993   -1.2467 C   0  0  0  0  0  0  0  0  0  0  0  0
    5.1270   -3.7904   -1.7685 C   0  0  0  0  0  0  0  0  0  0  0  0
    5.2889   -0.8366    4.3423 H   0  0  0  0  0  0  0  0  0  0  0  0
    5.7733    0.7134    3.6986 H   0  0  0  0  0  0  0  0  0  0  0  0
    6.3373   -0.7370    2.9427 H   0  0  0  0  0  0  0  0  0  0  0  0
    4.4488    0.4330    1.7032 H   0  0  0  0  0  0  0  0  0  0  0  0
    2.7769    0.0068    4.1835 H   0  0  0  0  0  0  0  0  0  0  0  0
    2.2279    0.7051    2.6608 H   0  0  0  0  0  0  0  0  0  0  0  0
    3.4607    1.5110    3.6060 H   0  0  0  0  0  0  0  0  0  0  0  0
    2.6113   -1.4044    1.7668 H   0  0  0  0  0  0  0  0  0  0  0  0
    4.5050   -2.8484    3.5698 H   0  0  0  0  0  0  0  0  0  0  0  0
    2.9803   -2.1850    3.8788 H   0  0  0  0  0  0  0  0  0  0  0  0
    2.5750   -4.4200    3.7104 H   0  0  0  0  0  0  0  0  0  0  0  0
    1.8193   -3.6812    2.3485 H   0  0  0  0  0  0  0  0  0  0  0  0
    2.4378   -6.6632    2.7142 H   0  0  0  0  0  0  0  0  0  0  0  0
    3.0090   -6.9523    1.0793 H   0  0  0  0  0  0  0  0  0  0  0  0
    1.6116   -5.9239    1.3493 H   0  0  0  0  0  0  0  0  0  0  0  0
    2.2270   -3.1441    0.1413 H   0  0  0  0  0  0  0  0  0  0  0  0
    3.2794   -2.6404   -3.4168 H   0  0  0  0  0  0  0  0  0  0  0  0
    2.0254   -2.4568   -2.2219 H   0  0  0  0  0  0  0  0  0  0  0  0
    4.5835   -0.8615   -2.4812 H   0  0  0  0  0  0  0  0  0  0  0  0
    2.9624   -0.3182   -2.3935 H   0  0  0  0  0  0  0  0  0  0  0  0
    4.3973   -0.0082   -0.3153 H   0  0  0  0  0  0  0  0  0  0  0  0
    2.7622   -0.5405   -0.1244 H   0  0  0  0  0  0  0  0  0  0  0  0
    6.2920   -0.8835    1.3651 H   0  0  0  0  0  0  0  0  0  0  0  0
    7.4503   -3.2205    1.3818 H   0  0  0  0  0  0  0  0  0  0  0  0
    6.2120   -2.9091    2.4743 H   0  0  0  0  0  0  0  0  0  0  0  0
    6.1096   -5.2459    0.5071 H   0  0  0  0  0  0  0  0  0  0  0  0
    7.0331   -5.3056    1.9423 H   0  0  0  0  0  0  0  0  0  0  0  0
    4.9965   -6.4963    2.1612 H   0  0  0  0  0  0  0  0  0  0  0  0
    5.1272   -4.3458    3.9163 H   0  0  0  0  0  0  0  0  0  0  0  0
    6.1218   -1.9242   -1.6828 H   0  0  0  0  0  0  0  0  0  0  0  0
    7.7899   -4.2342   -0.7204 H   0  0  0  0  0  0  0  0  0  0  0  0
    8.3006   -2.5648   -0.8561 H   0  0  0  0  0  0  0  0  0  0  0  0
    7.8376   -3.4415   -2.2931 H   0  0  0  0  0  0  0  0  0  0  0  0
    5.3030   -4.8033   -1.4390 H   0  0  0  0  0  0  0  0  0  0  0  0
    5.3144   -3.8041   -2.8431 H   0  0  0  0  0  0  0  0  0  0  0  0
    3.2486   -4.3154   -1.8460 H   0  0  0  0  0  0  0  0  0  0  0  0
  1  2  1  0
  1 25  1  0
  1 26  1  0
  1 27  1  0
  2  3  1  0
  2  4  1  0
  2 28  1  0
  3 29  1  0
  3 30  1  0
  3 31  1  0
  4 15  1  0
  4  5  1  0
  4 32  1  6
  5  6  1  0
  5 33  1  0
  5 34  1  0
  6  7  1  0
  6 35  1  0
  6 36  1  0
  7 20  1  0
  7  8  1  6
  7  9  1  0
  8 37  1  0
  8 38  1  0
  8 39  1  0
  9 10  1  0
 10 15  1  0
 10 11  1  0
 10 40  1  6
 11 24  1  0
 11 12  1  0
 11 60  1  6
 12 13  1  0
 12 41  1  0
 12 42  1  0
 13 14  1  0
 13 43  1  0
 13 44  1  0
 15 14  1  6
 14 45  1  0
 14 46  1  0
 15 16  1  0
 16 17  1  1
 16 18  1  0
 16 22  1  0
 17 47  1  0
 18 19  1  0
 18 48  1  0
 18 49  1  0
 19 20  1  0
 19 50  1  0
 19 51  1  0
 20 21  1  0
 20 52  1  1
 21 53  1  0
 22 23  1  0
 22 24  1  0
 22 54  1  6
 23 55  1  0
 23 56  1  0
 23 57  1  0
 24 58  1  0
 24 59  1  0
M  CHG  1  11   1
M  END
>  <i_m_ct_stereo_status>  (340) 
1

>  <s_m_source_file>  (340) 
/var/tmp/pbs.5076255.sched01/tmpp4327t_d/123x5hmlc3y.sdf

>  <i_m_source_file_index>  (340) 
17

>  <i_lp_mmshare_version>  (340) 
48012

>  <i_f3d_flags>  (340) 
0

>  <s_epik_input>  (340) 
W0NIM11bQ0hdKFtDSDNdKVtDQEBIXTFbQ0gyXVtDSDJdW0NAXShPMikoW0NIM10pW0NASF0oW09IXSlbQ0gyXVtDSDJdW0NAQF0zKFtPSF0pW0NAQEhdKFtDSDNdKVtDSDJdTihbQ0BASF0yW0NAQF0xMzQpW0NIMl1bQ0gyXVtDSDJdNA==

>  <s_epik_cmdline>  (340) 
J2VwaWtfcHl0aG9uJywgJy1waHQnLCAnMi4wJywgJy1waCcsICc3LjAnLCAnLXRuJywgJzgnLCAnLW1hJywgJzIwMCcsICctaW1hZScsICc8aW5maWxlLm1hZT4nLCAnLW9tYWUnLCAnPG91dGZpbGUubWFlPic=

>  <r_epik_Ionization_Penalty>  (340) 
0.030614

>  <r_epik_Ionization_Penalty_Charging>  (340) 
0.0306138

>  <r_epik_Ionization_Penalty_Neutral>  (340) 
1.37893e-07

>  <r_epik_State_Penalty>  (340) 
0.0252544

>  <r_epik_Charging_Adjusted_Penalty>  (340) 
0.0558682

>  <i_epik_Tot_Q>  (340) 
1

>  <i_epik_Tot_abs_Q>  (340) 
1

>  <s_epik_Chemistry_Notes>  (340) 
This compound contains an acetal/aminal-like group ( X-CH(R)-Y where X, Y are N, S, or O) that may be acid/base labile, releasing an aldehyde.

>  <s_lp_Force_Field>  (340) 
OPLS3e

>  <r_lp_Energy>  (340) 
80.9558

>  <b_lp_Chiralities_Consistent>  (340) 
1

>  <s_lp_Variant>  (340) 
102:0-1

>  <s_i_glide_gridfile>  (340) 
pfpi4k_grid

>  <i_i_glide_lignum>  (340) 
17

>  <i_i_glide_rotatable_bonds>  (340) 
3

>  <r_i_docking_score>  (340) 
-3.45718

>  <r_i_glide_ligand_efficiency>  (340) 
-0.144049

>  <r_i_glide_ligand_efficiency_sa>  (340) 
-0.41551

>  <r_i_glide_ligand_efficiency_ln>  (340) 
-0.827462

>  <r_i_glide_gscore>  (340) 
-3.45718

>  <r_i_glide_lipo>  (340) 
-0.432806

>  <r_i_glide_hbond>  (340) 
0

>  <r_i_glide_metal>  (340) 
-0

>  <r_i_glide_rewards>  (340) 
-1.10127

>  <r_i_glide_evdw>  (340) 
-19.9206

>  <r_i_glide_ecoul>  (340) 
-6.17759

>  <r_i_glide_erotb>  (340) 
0

>  <r_i_glide_esite>  (340) 
-0.000436549

>  <r_i_glide_emodel>  (340) 
-31.9691

>  <r_i_glide_energy>  (340) 
-26.0982

>  <r_i_glide_einternal>  (340) 
0.0485112

>  <r_i_glide_intrahb_reward>  (340) 
-0

>  <i_i_glide_confnum>  (340) 
2

>  <i_i_glide_posenum>  (340) 
24

>  <r_i_glide_eff_state_penalty>  (340) 
0

>  <ligand_id>  (340) 
102

>  <original_smiles>  (340) 
CC(C)C1CCC2(C)OC3N4CCCC13C(O)(CCC2O)C(C)C4

>  <smiles>  (340) 
[H]OC1([H])C([H])([H])C([H])([H])C2(O[H])C([H])(C([H])([H])[H])C([H])([H])[N+]3([H])C([H])([H])C([H])([H])C([H])([H])C24C([H])(C([H])(C([H])([H])[H])C([H])([H])[H])C([H])([H])C([H])([H])C1(C([H])([H])[H])OC43[H]

$$$$
102:1:0
     RDKit          3D

 59 62  0  0  1  0  0  0  0  0999 V2000
    4.3923   -6.3339    0.7758 C   0  0  0  0  0  0  0  0  0  0  0  0
    3.3486   -5.3054    1.2808 C   0  0  0  0  0  0  0  0  0  0  0  0
    1.9938   -6.0320    1.4114 C   0  0  0  0  0  0  0  0  0  0  0  0
    3.2121   -3.9431    0.4880 C   0  0  2  0  0  0  0  0  0  0  0  0
    3.0576   -4.2198   -0.9934 C   0  0  0  0  0  0  0  0  0  0  0  0
    2.6455   -3.0913   -1.9073 C   0  0  0  0  0  0  0  0  0  0  0  0
    3.7200   -2.0450   -2.2260 C   0  0  1  0  0  0  0  0  0  0  0  0
    3.1012   -0.9729   -3.1360 C   0  0  0  0  0  0  0  0  0  0  0  0
    4.1922   -1.3183   -1.1140 O   0  0  0  0  0  0  0  0  0  0  0  0
    3.7316   -1.4128    0.1931 C   0  0  2  0  0  0  0  0  0  0  0  0
    4.3095   -0.2588    0.8331 N   0  0  0  0  0  0  0  0  0  0  0  0
    3.7477    0.0241    2.1394 C   0  0  0  0  0  0  0  0  0  0  0  0
    3.9816   -1.1409    3.0962 C   0  0  0  0  0  0  0  0  0  0  0  0
    3.7328   -2.5100    2.4414 C   0  0  0  0  0  0  0  0  0  0  0  0
    4.1543   -2.7424    0.9233 C   0  0  1  0  0  0  0  0  0  0  0  0
    5.7208   -2.8875    0.7094 C   0  0  1  0  0  0  0  0  0  0  0  0
    6.1678   -3.8549    1.6446 O   0  0  0  0  0  0  0  0  0  0  0  0
    6.2566   -3.4893   -0.6491 C   0  0  0  0  0  0  0  0  0  0  0  0
    6.2656   -2.6402   -1.9516 C   0  0  0  0  0  0  0  0  0  0  0  0
    5.0134   -2.6116   -2.8704 C   0  0  1  0  0  0  0  0  0  0  0  0
    4.8504   -3.8429   -3.5539 O   0  0  0  0  0  0  0  0  0  0  0  0
    6.4740   -1.6000    1.1778 C   0  0  1  0  0  0  0  0  0  0  0  0
    7.9693   -1.5857    0.7896 C   0  0  0  0  0  0  0  0  0  0  0  0
    5.7800   -0.2693    0.7926 C   0  0  0  0  0  0  0  0  0  0  0  0
    4.1241   -6.7556   -0.1896 H   0  0  0  0  0  0  0  0  0  0  0  0
    4.4245   -7.1764    1.4639 H   0  0  0  0  0  0  0  0  0  0  0  0
    5.4152   -5.9736    0.7077 H   0  0  0  0  0  0  0  0  0  0  0  0
    3.6147   -5.0922    2.3109 H   0  0  0  0  0  0  0  0  0  0  0  0
    1.6121   -6.3872    0.4553 H   0  0  0  0  0  0  0  0  0  0  0  0
    1.2382   -5.3957    1.8669 H   0  0  0  0  0  0  0  0  0  0  0  0
    2.0905   -6.9083    2.0534 H   0  0  0  0  0  0  0  0  0  0  0  0
    2.2191   -3.5798    0.7364 H   0  0  0  0  0  0  0  0  0  0  0  0
    3.9416   -4.6617   -1.3811 H   0  0  0  0  0  0  0  0  0  0  0  0
    2.2472   -4.9425   -1.0881 H   0  0  0  0  0  0  0  0  0  0  0  0
    2.3270   -3.5365   -2.8467 H   0  0  0  0  0  0  0  0  0  0  0  0
    1.7491   -2.6537   -1.5099 H   0  0  0  0  0  0  0  0  0  0  0  0
    2.7530   -1.4084   -4.0671 H   0  0  0  0  0  0  0  0  0  0  0  0
    3.8349   -0.2081   -3.3989 H   0  0  0  0  0  0  0  0  0  0  0  0
    2.2503   -0.4938   -2.6572 H   0  0  0  0  0  0  0  0  0  0  0  0
    2.6447   -1.3023    0.1832 H   0  0  0  0  0  0  0  0  0  0  0  0
    4.1573    0.9429    2.5620 H   0  0  0  0  0  0  0  0  0  0  0  0
    2.6768    0.1870    2.0110 H   0  0  0  0  0  0  0  0  0  0  0  0
    4.9705   -1.0910    3.5385 H   0  0  0  0  0  0  0  0  0  0  0  0
    3.3103   -1.0372    3.9454 H   0  0  0  0  0  0  0  0  0  0  0  0
    4.1930   -3.2474    3.0977 H   0  0  0  0  0  0  0  0  0  0  0  0
    2.6590   -2.6621    2.5471 H   0  0  0  0  0  0  0  0  0  0  0  0
    5.6995   -4.6580    1.4799 H   0  0  0  0  0  0  0  0  0  0  0  0
    7.3029   -3.7467   -0.4856 H   0  0  0  0  0  0  0  0  0  0  0  0
    5.8572   -4.4719   -0.8464 H   0  0  0  0  0  0  0  0  0  0  0  0
    6.5239   -1.6150   -1.7072 H   0  0  0  0  0  0  0  0  0  0  0  0
    7.1025   -2.9918   -2.5551 H   0  0  0  0  0  0  0  0  0  0  0  0
    5.2944   -1.9229   -3.6634 H   0  0  0  0  0  0  0  0  0  0  0  0
    4.4578   -4.4777   -2.9662 H   0  0  0  0  0  0  0  0  0  0  0  0
    6.4868   -1.6243    2.2632 H   0  0  0  0  0  0  0  0  0  0  0  0
    8.1423   -1.4545   -0.2721 H   0  0  0  0  0  0  0  0  0  0  0  0
    8.4520   -2.5311    1.0522 H   0  0  0  0  0  0  0  0  0  0  0  0
    8.5010   -0.7765    1.2806 H   0  0  0  0  0  0  0  0  0  0  0  0
    6.0940   -0.0146   -0.2182 H   0  0  0  0  0  0  0  0  0  0  0  0
    6.1475    0.5128    1.4471 H   0  0  0  0  0  0  0  0  0  0  0  0
  1  2  1  0
  1 25  1  0
  1 26  1  0
  1 27  1  0
  2  3  1  0
  2  4  1  0
  2 28  1  0
  3 29  1  0
  3 30  1  0
  3 31  1  0
  4 15  1  0
  4  5  1  0
  4 32  1  1
  5  6  1  0
  5 33  1  0
  5 34  1  0
  6  7  1  0
  6 35  1  0
  6 36  1  0
  7 20  1  0
  7  8  1  6
  7  9  1  0
  8 37  1  0
  8 38  1  0
  8 39  1  0
  9 10  1  0
 10 15  1  0
 10 11  1  0
 10 40  1  6
 11 24  1  0
 11 12  1  0
 12 13  1  0
 12 41  1  0
 12 42  1  0
 13 14  1  0
 13 43  1  0
 13 44  1  0
 15 14  1  1
 14 45  1  0
 14 46  1  0
 15 16  1  0
 16 17  1  1
 16 18  1  0
 16 22  1  0
 17 47  1  0
 18 19  1  0
 18 48  1  0
 18 49  1  0
 19 20  1  0
 19 50  1  0
 19 51  1  0
 20 21  1  0
 20 52  1  6
 21 53  1  0
 22 23  1  0
 22 24  1  0
 22 54  1  1
 23 55  1  0
 23 56  1  0
 23 57  1  0
 24 58  1  0
 24 59  1  0
M  END
>  <i_m_ct_stereo_status>  (341) 
1

>  <s_m_source_file>  (341) 
/var/tmp/pbs.5076255.sched01/tmpp4327t_d/123x5hmlc3y.sdf

>  <i_m_source_file_index>  (341) 
18

>  <i_lp_mmshare_version>  (341) 
48012

>  <i_f3d_flags>  (341) 
0

>  <s_epik_input>  (341) 
W0NIM11bQ0hdKFtDSDNdKVtDQEBIXTFbQ0gyXVtDSDJdW0NAXShPMikoW0NIM10pW0NASF0oW09IXSlbQ0gyXVtDSDJdW0NAQF0zKFtPSF0pW0NAQEhdKFtDSDNdKVtDSDJdTihbQ0BASF0yW0NAQF0xMzQpW0NIMl1bQ0gyXVtDSDJdNA==

>  <s_epik_cmdline>  (341) 
J2VwaWtfcHl0aG9uJywgJy1waHQnLCAnMi4wJywgJy1waCcsICc3LjAnLCAnLXRuJywgJzgnLCAnLW1hJywgJzIwMCcsICctaW1hZScsICc8aW5maWxlLm1hZT4nLCAnLW9tYWUnLCAnPG91dGZpbGUubWFlPic=

>  <r_epik_Ionization_Penalty>  (341) 
1.7707

>  <r_epik_Ionization_Penalty_Charging>  (341) 
0

>  <r_epik_Ionization_Penalty_Neutral>  (341) 
1.7707

>  <r_epik_State_Penalty>  (341) 
1.88207

>  <r_epik_Charging_Adjusted_Penalty>  (341) 
1.88207

>  <i_epik_Tot_Q>  (341) 
0

>  <i_epik_Tot_abs_Q>  (341) 
0

>  <s_epik_Chemistry_Notes>  (341) 
This compound contains an acetal/aminal-like group ( X-CH(R)-Y where X, Y are N, S, or O) that may be acid/base labile, releasing an aldehyde.

>  <s_lp_Force_Field>  (341) 
OPLS3e

>  <r_lp_Energy>  (341) 
80.9202

>  <b_lp_Chiralities_Consistent>  (341) 
1

>  <s_lp_Variant>  (341) 
102:0-2

>  <s_i_glide_gridfile>  (341) 
pfpi4k_grid

>  <i_i_glide_lignum>  (341) 
18

>  <i_i_glide_rotatable_bonds>  (341) 
3

>  <r_i_docking_score>  (341) 
-3.39742

>  <r_i_glide_ligand_efficiency>  (341) 
-0.141559

>  <r_i_glide_ligand_efficiency_sa>  (341) 
-0.408327

>  <r_i_glide_ligand_efficiency_ln>  (341) 
-0.813158

>  <r_i_glide_gscore>  (341) 
-3.39742

>  <r_i_glide_lipo>  (341) 
-0.681206

>  <r_i_glide_hbond>  (341) 
-0.163453

>  <r_i_glide_metal>  (341) 
-0

>  <r_i_glide_rewards>  (341) 
-1.10798

>  <r_i_glide_evdw>  (341) 
-17.6583

>  <r_i_glide_ecoul>  (341) 
-3.35639

>  <r_i_glide_erotb>  (341) 
0

>  <r_i_glide_esite>  (341) 
-0.0584096

>  <r_i_glide_emodel>  (341) 
-23.1411

>  <r_i_glide_energy>  (341) 
-21.0147

>  <r_i_glide_einternal>  (341) 
0.193655

>  <r_i_glide_intrahb_reward>  (341) 
-0

>  <i_i_glide_confnum>  (341) 
2

>  <i_i_glide_posenum>  (341) 
37

>  <r_i_glide_eff_state_penalty>  (341) 
0

>  <ligand_id>  (341) 
102

>  <original_smiles>  (341) 
CC(C)C1CCC2(C)OC3N4CCCC13C(O)(CCC2O)C(C)C4

>  <smiles>  (341) 
[H]OC1([H])C([H])([H])C([H])([H])C2(O[H])C([H])(C([H])([H])[H])C([H])([H])N3C([H])([H])C([H])([H])C([H])([H])C24C3([H])OC1(C([H])([H])[H])C([H])([H])C([H])([H])C4([H])C([H])(C([H])([H])[H])C([H])([H])[H]

$$$$
102:1:1
     RDKit          3D

 59 62  0  0  1  0  0  0  0  0999 V2000
    8.3231   -4.8654    1.0748 C   0  0  0  0  0  0  0  0  0  0  0  0
    7.7968   -4.0174   -0.1271 C   0  0  0  0  0  0  0  0  0  0  0  0
    8.4815   -2.6206   -0.1681 C   0  0  0  0  0  0  0  0  0  0  0  0
    6.2065   -4.0475   -0.4342 C   0  0  2  0  0  0  0  0  0  0  0  0
    5.9922   -3.5381   -1.9088 C   0  0  0  0  0  0  0  0  0  0  0  0
    4.5885   -3.7195   -2.4606 C   0  0  0  0  0  0  0  0  0  0  0  0
    3.4534   -2.8352   -1.9330 C   0  0  1  0  0  0  0  0  0  0  0  0
    2.1372   -3.2319   -2.6337 C   0  0  0  0  0  0  0  0  0  0  0  0
    3.1421   -2.9553   -0.5578 O   0  0  0  0  0  0  0  0  0  0  0  0
    3.6837   -3.8202    0.3737 C   0  0  2  0  0  0  0  0  0  0  0  0
    2.8454   -3.6967    1.5204 N   0  0  0  0  0  0  0  0  0  0  0  0
    3.0288   -4.7408    2.5129 C   0  0  0  0  0  0  0  0  0  0  0  0
    4.4752   -4.7478    3.0289 C   0  0  0  0  0  0  0  0  0  0  0  0
    5.4918   -4.5137    1.9302 C   0  0  0  0  0  0  0  0  0  0  0  0
    5.2187   -3.5374    0.7153 C   0  0  1  0  0  0  0  0  0  0  0  0
    5.2749   -2.0058    1.1441 C   0  0  1  0  0  0  0  0  0  0  0  0
    6.4415   -1.7929    1.8448 O   0  0  0  0  0  0  0  0  0  0  0  0
    5.3837   -0.9434   -0.0244 C   0  0  0  0  0  0  0  0  0  0  0  0
    4.1114   -0.6114   -0.8404 C   0  0  0  0  0  0  0  0  0  0  0  0
    3.7066   -1.3445   -2.1328 C   0  0  1  0  0  0  0  0  0  0  0  0
    4.5732   -1.0768   -3.2133 O   0  0  0  0  0  0  0  0  0  0  0  0
    4.2561   -1.6619    2.2681 C   0  0  1  0  0  0  0  0  0  0  0  0
    4.1474   -0.1532    2.5994 C   0  0  0  0  0  0  0  0  0  0  0  0
    2.8591   -2.3122    2.1027 C   0  0  0  0  0  0  0  0  0  0  0  0
    8.1161   -4.3788    2.0112 H   0  0  0  0  0  0  0  0  0  0  0  0
    9.4100   -4.9737    1.0275 H   0  0  0  0  0  0  0  0  0  0  0  0
    7.8954   -5.8763    1.0636 H   0  0  0  0  0  0  0  0  0  0  0  0
    8.2741   -4.5235   -0.9794 H   0  0  0  0  0  0  0  0  0  0  0  0
    8.2145   -1.9896    0.6393 H   0  0  0  0  0  0  0  0  0  0  0  0
    8.2719   -2.1196   -1.1262 H   0  0  0  0  0  0  0  0  0  0  0  0
    9.5689   -2.7548   -0.0797 H   0  0  0  0  0  0  0  0  0  0  0  0
    5.9622   -5.1136   -0.5373 H   0  0  0  0  0  0  0  0  0  0  0  0
    6.3601   -2.5561   -2.1200 H   0  0  0  0  0  0  0  0  0  0  0  0
    6.5801   -4.1513   -2.5839 H   0  0  0  0  0  0  0  0  0  0  0  0
    4.6058   -3.6941   -3.5596 H   0  0  0  0  0  0  0  0  0  0  0  0
    4.3523   -4.7037   -2.1851 H   0  0  0  0  0  0  0  0  0  0  0  0
    2.1825   -3.1204   -3.7220 H   0  0  0  0  0  0  0  0  0  0  0  0
    1.2954   -2.6540   -2.2693 H   0  0  0  0  0  0  0  0  0  0  0  0
    1.8461   -4.2459   -2.3976 H   0  0  0  0  0  0  0  0  0  0  0  0
    3.5995   -4.8381   -0.0413 H   0  0  0  0  0  0  0  0  0  0  0  0
    2.3357   -4.6514    3.3522 H   0  0  0  0  0  0  0  0  0  0  0  0
    2.8586   -5.7113    2.0245 H   0  0  0  0  0  0  0  0  0  0  0  0
    4.5964   -4.0137    3.8209 H   0  0  0  0  0  0  0  0  0  0  0  0
    4.6895   -5.6995    3.5192 H   0  0  0  0  0  0  0  0  0  0  0  0
    6.3116   -4.1581    2.5084 H   0  0  0  0  0  0  0  0  0  0  0  0
    5.7055   -5.5155    1.5497 H   0  0  0  0  0  0  0  0  0  0  0  0
    6.6012   -0.8631    1.9110 H   0  0  0  0  0  0  0  0  0  0  0  0
    5.6950    0.0125    0.4134 H   0  0  0  0  0  0  0  0  0  0  0  0
    6.1980   -1.1329   -0.7036 H   0  0  0  0  0  0  0  0  0  0  0  0
    3.2538   -0.5510   -0.1756 H   0  0  0  0  0  0  0  0  0  0  0  0
    4.2226    0.3854   -1.2180 H   0  0  0  0  0  0  0  0  0  0  0  0
    2.7859   -0.8644   -2.4535 H   0  0  0  0  0  0  0  0  0  0  0  0
    5.3142   -1.6378   -3.0920 H   0  0  0  0  0  0  0  0  0  0  0  0
    4.6185   -2.0700    3.2070 H   0  0  0  0  0  0  0  0  0  0  0  0
    3.6651    0.4026    1.7966 H   0  0  0  0  0  0  0  0  0  0  0  0
    5.1293    0.2942    2.7669 H   0  0  0  0  0  0  0  0  0  0  0  0
    3.5730   -0.0037    3.5107 H   0  0  0  0  0  0  0  0  0  0  0  0
    2.2825   -1.6888    1.4303 H   0  0  0  0  0  0  0  0  0  0  0  0
    2.3622   -2.3176    3.0655 H   0  0  0  0  0  0  0  0  0  0  0  0
  1  2  1  0
  1 25  1  0
  1 26  1  0
  1 27  1  0
  2  3  1  0
  2  4  1  0
  2 28  1  0
  3 29  1  0
  3 30  1  0
  3 31  1  0
  4 15  1  0
  4  5  1  0
  4 32  1  6
  5  6  1  0
  5 33  1  0
  5 34  1  0
  6  7  1  0
  6 35  1  0
  6 36  1  0
  7 20  1  0
  7  8  1  6
  7  9  1  0
  8 37  1  0
  8 38  1  0
  8 39  1  0
  9 10  1  0
 10 15  1  0
 10 11  1  0
 10 40  1  6
 11 24  1  0
 11 12  1  0
 12 13  1  0
 12 41  1  0
 12 42  1  0
 13 14  1  0
 13 43  1  0
 13 44  1  0
 15 14  1  1
 14 45  1  0
 14 46  1  0
 15 16  1  0
 16 17  1  1
 16 18  1  0
 16 22  1  0
 17 47  1  0
 18 19  1  0
 18 48  1  0
 18 49  1  0
 19 20  1  0
 19 50  1  0
 19 51  1  0
 20 21  1  0
 20 52  1  6
 21 53  1  0
 22 23  1  0
 22 24  1  0
 22 54  1  1
 23 55  1  0
 23 56  1  0
 23 57  1  0
 24 58  1  0
 24 59  1  0
M  END
>  <i_m_ct_stereo_status>  (342) 
1

>  <s_m_source_file>  (342) 
/var/tmp/pbs.5076255.sched01/tmpp4327t_d/123x5hmlc3y.sdf

>  <i_m_source_file_index>  (342) 
18

>  <i_lp_mmshare_version>  (342) 
48012

>  <i_f3d_flags>  (342) 
0

>  <s_epik_input>  (342) 
W0NIM11bQ0hdKFtDSDNdKVtDQEBIXTFbQ0gyXVtDSDJdW0NAXShPMikoW0NIM10pW0NASF0oW09IXSlbQ0gyXVtDSDJdW0NAQF0zKFtPSF0pW0NAQEhdKFtDSDNdKVtDSDJdTihbQ0BASF0yW0NAQF0xMzQpW0NIMl1bQ0gyXVtDSDJdNA==

>  <s_epik_cmdline>  (342) 
J2VwaWtfcHl0aG9uJywgJy1waHQnLCAnMi4wJywgJy1waCcsICc3LjAnLCAnLXRuJywgJzgnLCAnLW1hJywgJzIwMCcsICctaW1hZScsICc8aW5maWxlLm1hZT4nLCAnLW9tYWUnLCAnPG91dGZpbGUubWFlPic=

>  <r_epik_Ionization_Penalty>  (342) 
1.7707

>  <r_epik_Ionization_Penalty_Charging>  (342) 
0

>  <r_epik_Ionization_Penalty_Neutral>  (342) 
1.7707

>  <r_epik_State_Penalty>  (342) 
1.88207

>  <r_epik_Charging_Adjusted_Penalty>  (342) 
1.88207

>  <i_epik_Tot_Q>  (342) 
0

>  <i_epik_Tot_abs_Q>  (342) 
0

>  <s_epik_Chemistry_Notes>  (342) 
This compound contains an acetal/aminal-like group ( X-CH(R)-Y where X, Y are N, S, or O) that may be acid/base labile, releasing an aldehyde.

>  <s_lp_Force_Field>  (342) 
OPLS3e

>  <r_lp_Energy>  (342) 
80.9202

>  <b_lp_Chiralities_Consistent>  (342) 
1

>  <s_lp_Variant>  (342) 
102:0-2

>  <s_i_glide_gridfile>  (342) 
pfpi4k_grid

>  <i_i_glide_lignum>  (342) 
18

>  <i_i_glide_rotatable_bonds>  (342) 
3

>  <r_i_docking_score>  (342) 
-2.52662

>  <r_i_glide_ligand_efficiency>  (342) 
-0.105276

>  <r_i_glide_ligand_efficiency_sa>  (342) 
-0.303668

>  <r_i_glide_ligand_efficiency_ln>  (342) 
-0.604736

>  <r_i_glide_gscore>  (342) 
-2.52662

>  <r_i_glide_lipo>  (342) 
-0.846143

>  <r_i_glide_hbond>  (342) 
0

>  <r_i_glide_metal>  (342) 
-0

>  <r_i_glide_rewards>  (342) 
-1.10798

>  <r_i_glide_evdw>  (342) 
-8.72061

>  <r_i_glide_ecoul>  (342) 
-0.903905

>  <r_i_glide_erotb>  (342) 
0

>  <r_i_glide_esite>  (342) 
-0.000884441

>  <r_i_glide_emodel>  (342) 
-4.89513

>  <r_i_glide_energy>  (342) 
-9.62451

>  <r_i_glide_einternal>  (342) 
7.83011

>  <r_i_glide_intrahb_reward>  (342) 
-0

>  <i_i_glide_confnum>  (342) 
1

>  <i_i_glide_posenum>  (342) 
39

>  <r_i_glide_eff_state_penalty>  (342) 
0

>  <ligand_id>  (342) 
102

>  <original_smiles>  (342) 
CC(C)C1CCC2(C)OC3N4CCCC13C(O)(CCC2O)C(C)C4

>  <smiles>  (342) 
[H]OC1([H])C([H])([H])C([H])([H])C2(O[H])C([H])(C([H])([H])[H])C([H])([H])N3C([H])([H])C([H])([H])C([H])([H])C24C3([H])OC1(C([H])([H])[H])C([H])([H])C([H])([H])C4([H])C([H])(C([H])([H])[H])C([H])([H])[H]

$$$$
102:1:2
     RDKit          3D

 59 62  0  0  1  0  0  0  0  0999 V2000
    7.9596   -2.2691    0.1655 C   0  0  0  0  0  0  0  0  0  0  0  0
    7.1507   -3.2724    1.0252 C   0  0  0  0  0  0  0  0  0  0  0  0
    7.9759   -4.5649    1.1928 C   0  0  0  0  0  0  0  0  0  0  0  0
    5.6602   -3.5480    0.6272 C   0  0  2  0  0  0  0  0  0  0  0  0
    5.5650   -3.7107   -0.8883 C   0  0  0  0  0  0  0  0  0  0  0  0
    4.2598   -4.2880   -1.3846 C   0  0  0  0  0  0  0  0  0  0  0  0
    3.0722   -3.3237   -1.4107 C   0  0  1  0  0  0  0  0  0  0  0  0
    1.7936   -3.9772   -1.9472 C   0  0  0  0  0  0  0  0  0  0  0  0
    2.6247   -2.9023   -0.1353 O   0  0  0  0  0  0  0  0  0  0  0  0
    3.1193   -3.2629    1.1027 C   0  0  2  0  0  0  0  0  0  0  0  0
    2.1454   -2.7544    2.0269 N   0  0  0  0  0  0  0  0  0  0  0  0
    2.2722   -3.2729    3.3681 C   0  0  0  0  0  0  0  0  0  0  0  0
    3.6339   -2.8930    3.9471 C   0  0  0  0  0  0  0  0  0  0  0  0
    4.7834   -3.0596    2.9337 C   0  0  0  0  0  0  0  0  0  0  0  0
    4.5569   -2.7011    1.3942 C   0  0  1  0  0  0  0  0  0  0  0  0
    4.4797   -1.1481    1.1060 C   0  0  1  0  0  0  0  0  0  0  0  0
    5.6412   -0.5891    1.7051 O   0  0  0  0  0  0  0  0  0  0  0  0
    4.6761   -0.6990   -0.3861 C   0  0  0  0  0  0  0  0  0  0  0  0
    3.5759   -0.8514   -1.4315 C   0  0  0  0  0  0  0  0  0  0  0  0
    3.3253   -2.0747   -2.2636 C   0  0  1  0  0  0  0  0  0  0  0  0
    4.3327   -2.1670   -3.2474 O   0  0  0  0  0  0  0  0  0  0  0  0
    3.3190   -0.4775    1.9487 C   0  0  1  0  0  0  0  0  0  0  0  0
    2.9320    0.9653    1.6148 C   0  0  0  0  0  0  0  0  0  0  0  0
    2.0067   -1.2841    1.9856 C   0  0  0  0  0  0  0  0  0  0  0  0
    8.1389   -2.6415   -0.8433 H   0  0  0  0  0  0  0  0  0  0  0  0
    8.9434   -2.0889    0.6024 H   0  0  0  0  0  0  0  0  0  0  0  0
    7.5008   -1.2904    0.0888 H   0  0  0  0  0  0  0  0  0  0  0  0
    7.0710   -2.8492    2.0072 H   0  0  0  0  0  0  0  0  0  0  0  0
    8.0908   -5.1007    0.2508 H   0  0  0  0  0  0  0  0  0  0  0  0
    7.5153   -5.2401    1.9132 H   0  0  0  0  0  0  0  0  0  0  0  0
    8.9780   -4.3441    1.5674 H   0  0  0  0  0  0  0  0  0  0  0  0
    5.4825   -4.5664    0.9738 H   0  0  0  0  0  0  0  0  0  0  0  0
    5.9165   -2.8687   -1.4728 H   0  0  0  0  0  0  0  0  0  0  0  0
    6.2645   -4.4860   -1.1337 H   0  0  0  0  0  0  0  0  0  0  0  0
    4.4835   -4.6585   -2.3923 H   0  0  0  0  0  0  0  0  0  0  0  0
    4.0300   -5.1739   -0.7936 H   0  0  0  0  0  0  0  0  0  0  0  0
    1.9077   -4.1825   -3.0145 H   0  0  0  0  0  0  0  0  0  0  0  0
    0.9008   -3.3615   -1.8650 H   0  0  0  0  0  0  0  0  0  0  0  0
    1.5503   -4.9009   -1.4207 H   0  0  0  0  0  0  0  0  0  0  0  0
    3.1179   -4.3550    1.1465 H   0  0  0  0  0  0  0  0  0  0  0  0
    1.4594   -2.9089    3.9975 H   0  0  0  0  0  0  0  0  0  0  0  0
    2.1783   -4.3593    3.3096 H   0  0  0  0  0  0  0  0  0  0  0  0
    3.6039   -1.8872    4.3598 H   0  0  0  0  0  0  0  0  0  0  0  0
    3.8280   -3.5259    4.8112 H   0  0  0  0  0  0  0  0  0  0  0  0
    5.6102   -2.4951    3.3658 H   0  0  0  0  0  0  0  0  0  0  0  0
    5.0724   -4.1087    3.0139 H   0  0  0  0  0  0  0  0  0  0  0  0
    6.3919   -0.9139    1.2520 H   0  0  0  0  0  0  0  0  0  0  0  0
    4.6957    0.3656   -0.3184 H   0  0  0  0  0  0  0  0  0  0  0  0
    5.6243   -0.9572   -0.8185 H   0  0  0  0  0  0  0  0  0  0  0  0
    2.6314   -0.6798   -0.9045 H   0  0  0  0  0  0  0  0  0  0  0  0
    3.7252   -0.0735   -2.1765 H   0  0  0  0  0  0  0  0  0  0  0  0
    2.4061   -1.8364   -2.8046 H   0  0  0  0  0  0  0  0  0  0  0  0
    4.1998   -2.9598   -3.7162 H   0  0  0  0  0  0  0  0  0  0  0  0
    3.6728   -0.4045    2.9733 H   0  0  0  0  0  0  0  0  0  0  0  0
    2.4204    0.9608    0.6587 H   0  0  0  0  0  0  0  0  0  0  0  0
    3.8162    1.6309    1.6295 H   0  0  0  0  0  0  0  0  0  0  0  0
    2.2217    1.3755    2.3328 H   0  0  0  0  0  0  0  0  0  0  0  0
    1.4676   -1.0367    1.0854 H   0  0  0  0  0  0  0  0  0  0  0  0
    1.3633   -0.9352    2.7944 H   0  0  0  0  0  0  0  0  0  0  0  0
  1  2  1  0
  1 25  1  0
  1 26  1  0
  1 27  1  0
  2  3  1  0
  2  4  1  0
  2 28  1  0
  3 29  1  0
  3 30  1  0
  3 31  1  0
  4 15  1  0
  4  5  1  0
  4 32  1  1
  5  6  1  0
  5 33  1  0
  5 34  1  0
  6  7  1  0
  6 35  1  0
  6 36  1  0
  7 20  1  0
  7  8  1  6
  7  9  1  0
  8 37  1  0
  8 38  1  0
  8 39  1  0
  9 10  1  0
 10 15  1  0
 10 11  1  0
 10 40  1  6
 11 24  1  0
 11 12  1  0
 12 13  1  0
 12 41  1  0
 12 42  1  0
 13 14  1  0
 13 43  1  0
 13 44  1  0
 15 14  1  1
 14 45  1  0
 14 46  1  0
 15 16  1  0
 16 17  1  1
 16 18  1  0
 16 22  1  0
 17 47  1  0
 18 19  1  0
 18 48  1  0
 18 49  1  0
 19 20  1  0
 19 50  1  0
 19 51  1  0
 20 21  1  0
 20 52  1  6
 21 53  1  0
 22 23  1  0
 22 24  1  0
 22 54  1  1
 23 55  1  0
 23 56  1  0
 23 57  1  0
 24 58  1  0
 24 59  1  0
M  END
>  <i_m_ct_stereo_status>  (343) 
1

>  <s_m_source_file>  (343) 
/var/tmp/pbs.5076255.sched01/tmpp4327t_d/123x5hmlc3y.sdf

>  <i_m_source_file_index>  (343) 
18

>  <i_lp_mmshare_version>  (343) 
48012

>  <i_f3d_flags>  (343) 
0

>  <s_epik_input>  (343) 
W0NIM11bQ0hdKFtDSDNdKVtDQEBIXTFbQ0gyXVtDSDJdW0NAXShPMikoW0NIM10pW0NASF0oW09IXSlbQ0gyXVtDSDJdW0NAQF0zKFtPSF0pW0NAQEhdKFtDSDNdKVtDSDJdTihbQ0BASF0yW0NAQF0xMzQpW0NIMl1bQ0gyXVtDSDJdNA==

>  <s_epik_cmdline>  (343) 
J2VwaWtfcHl0aG9uJywgJy1waHQnLCAnMi4wJywgJy1waCcsICc3LjAnLCAnLXRuJywgJzgnLCAnLW1hJywgJzIwMCcsICctaW1hZScsICc8aW5maWxlLm1hZT4nLCAnLW9tYWUnLCAnPG91dGZpbGUubWFlPic=

>  <r_epik_Ionization_Penalty>  (343) 
1.7707

>  <r_epik_Ionization_Penalty_Charging>  (343) 
0

>  <r_epik_Ionization_Penalty_Neutral>  (343) 
1.7707

>  <r_epik_State_Penalty>  (343) 
1.88207

>  <r_epik_Charging_Adjusted_Penalty>  (343) 
1.88207

>  <i_epik_Tot_Q>  (343) 
0

>  <i_epik_Tot_abs_Q>  (343) 
0

>  <s_epik_Chemistry_Notes>  (343) 
This compound contains an acetal/aminal-like group ( X-CH(R)-Y where X, Y are N, S, or O) that may be acid/base labile, releasing an aldehyde.

>  <s_lp_Force_Field>  (343) 
OPLS3e

>  <r_lp_Energy>  (343) 
80.9202

>  <b_lp_Chiralities_Consistent>  (343) 
1

>  <s_lp_Variant>  (343) 
102:0-2

>  <s_i_glide_gridfile>  (343) 
pfpi4k_grid

>  <i_i_glide_lignum>  (343) 
18

>  <i_i_glide_rotatable_bonds>  (343) 
3

>  <r_i_docking_score>  (343) 
-2.14679

>  <r_i_glide_ligand_efficiency>  (343) 
-0.0894497

>  <r_i_glide_ligand_efficiency_sa>  (343) 
-0.258018

>  <r_i_glide_ligand_efficiency_ln>  (343) 
-0.513826

>  <r_i_glide_gscore>  (343) 
-2.14679

>  <r_i_glide_lipo>  (343) 
-0.700364

>  <r_i_glide_hbond>  (343) 
-0.0335146

>  <r_i_glide_metal>  (343) 
-0

>  <r_i_glide_rewards>  (343) 
-1.10798

>  <r_i_glide_evdw>  (343) 
-2.29353

>  <r_i_glide_ecoul>  (343) 
-1.23712

>  <r_i_glide_erotb>  (343) 
0

>  <r_i_glide_esite>  (343) 
-0.00469263

>  <r_i_glide_emodel>  (343) 
-4.06439

>  <r_i_glide_energy>  (343) 
-3.53066

>  <r_i_glide_einternal>  (343) 
0.750786

>  <r_i_glide_intrahb_reward>  (343) 
-0

>  <i_i_glide_confnum>  (343) 
1

>  <i_i_glide_posenum>  (343) 
9

>  <r_i_glide_eff_state_penalty>  (343) 
0

>  <ligand_id>  (343) 
102

>  <original_smiles>  (343) 
CC(C)C1CCC2(C)OC3N4CCCC13C(O)(CCC2O)C(C)C4

>  <smiles>  (343) 
[H]OC1([H])C([H])([H])C([H])([H])C2(O[H])C([H])(C([H])([H])[H])C([H])([H])N3C([H])([H])C([H])([H])C([H])([H])C24C3([H])OC1(C([H])([H])[H])C([H])([H])C([H])([H])C4([H])C([H])(C([H])([H])[H])C([H])([H])[H]

$$$$
103:0:0
     RDKit          3D

 13 14  0  0  1  0  0  0  0  0999 V2000
    0.6087  -10.3817    3.4405 C   0  0  0  0  0  0  0  0  0  0  0  0
    1.8934  -10.2308    2.8652 C   0  0  0  0  0  0  0  0  0  0  0  0
    2.3179   -9.1974    2.1394 N   0  0  0  0  0  0  0  0  0  0  0  0
    1.3533   -8.2490    1.9886 N   0  0  0  0  0  0  0  0  0  0  0  0
    1.4679   -7.0794    1.3093 C   0  0  0  0  0  0  0  0  0  0  0  0
    0.3259   -6.3953    1.3672 N   0  0  0  0  0  0  0  0  0  0  0  0
   -0.5799   -7.1241    2.1214 N   0  0  0  0  0  0  0  0  0  0  0  0
    0.0376   -8.2527    2.4933 C   0  0  0  0  0  0  0  0  0  0  0  0
   -0.3273   -9.3894    3.2568 C   0  0  0  0  0  0  0  0  0  0  0  0
    0.3577  -11.2666    4.0197 H   0  0  0  0  0  0  0  0  0  0  0  0
    2.6169  -11.0280    3.0150 H   0  0  0  0  0  0  0  0  0  0  0  0
    2.3541   -6.7483    0.7909 H   0  0  0  0  0  0  0  0  0  0  0  0
   -1.3252   -9.4621    3.6829 H   0  0  0  0  0  0  0  0  0  0  0  0
  1  9  2  0
  1  2  1  0
  1 10  1  0
  2  3  2  0
  2 11  1  0
  3  4  1  0
  4  8  1  0
  4  5  1  0
  5  6  2  0
  5 12  1  0
  6  7  1  0
  7  8  2  0
  8  9  1  0
  9 13  1  0
M  END
>  <i_m_ct_stereo_status>  (344) 
1

>  <s_m_source_file>  (344) 
/var/tmp/pbs.5076255.sched01/tmpp4327t_d/123x5hmlc3y.sdf

>  <i_m_source_file_index>  (344) 
19

>  <i_lp_mmshare_version>  (344) 
48012

>  <i_f3d_flags>  (344) 
0

>  <s_epik_input>  (344) 
bjFbY0hdW2NIXVtjSF1jKG4xMilubltjSF0y

>  <s_epik_cmdline>  (344) 
J2VwaWtfcHl0aG9uJywgJy1waHQnLCAnMi4wJywgJy1waCcsICc3LjAnLCAnLXRuJywgJzgnLCAnLW1hJywgJzIwMCcsICctaW1hZScsICc8aW5maWxlLm1hZT4nLCAnLW9tYWUnLCAnPG91dGZpbGUubWFlPic=

>  <r_lp_tautomer_probability>  (344) 
1

>  <r_epik_Ionization_Penalty>  (344) 
7.96732e-08

>  <r_epik_Ionization_Penalty_Charging>  (344) 
0

>  <r_epik_Ionization_Penalty_Neutral>  (344) 
7.96732e-08

>  <r_epik_State_Penalty>  (344) 
-0

>  <r_epik_Charging_Adjusted_Penalty>  (344) 
0

>  <i_epik_Tot_Q>  (344) 
0

>  <i_epik_Tot_abs_Q>  (344) 
0

>  <s_lp_Force_Field>  (344) 
OPLS3e

>  <r_lp_Energy>  (344) 
12.3815

>  <b_lp_Chiralities_Consistent>  (344) 
1

>  <s_lp_Variant>  (344) 
103:0-1

>  <s_i_glide_gridfile>  (344) 
pfpi4k_grid

>  <i_i_glide_lignum>  (344) 
19

>  <i_i_glide_rotatable_bonds>  (344) 
0

>  <r_i_docking_score>  (344) 
-4.18676

>  <r_i_glide_ligand_efficiency>  (344) 
-0.465195

>  <r_i_glide_ligand_efficiency_sa>  (344) 
-0.967645

>  <r_i_glide_ligand_efficiency_ln>  (344) 
-1.3095

>  <r_i_glide_gscore>  (344) 
-4.18676

>  <r_i_glide_lipo>  (344) 
-0.0805731

>  <r_i_glide_hbond>  (344) 
0

>  <r_i_glide_metal>  (344) 
-0

>  <r_i_glide_rewards>  (344) 
-2.25

>  <r_i_glide_evdw>  (344) 
-13.5852

>  <r_i_glide_ecoul>  (344) 
-5.6836

>  <r_i_glide_erotb>  (344) 
0

>  <r_i_glide_esite>  (344) 
-0.324383

>  <r_i_glide_emodel>  (344) 
-25.7309

>  <r_i_glide_energy>  (344) 
-19.2688

>  <r_i_glide_einternal>  (344) 
0

>  <r_i_glide_intrahb_reward>  (344) 
-0

>  <i_i_glide_confnum>  (344) 
1

>  <i_i_glide_posenum>  (344) 
11

>  <r_i_glide_eff_state_penalty>  (344) 
0

>  <ligand_id>  (344) 
103

>  <original_smiles>  (344) 
c1cnn2cnnc2c1

>  <smiles>  (344) 
[H]c1nn2c([H])nnc2c([H])c1[H]

$$$$
103:0:1
     RDKit          3D

 13 14  0  0  1  0  0  0  0  0999 V2000
   -0.5929   -9.2505    3.2239 C   0  0  0  0  0  0  0  0  0  0  0  0
    0.7684   -9.5008    3.5222 C   0  0  0  0  0  0  0  0  0  0  0  0
    1.8188   -8.8433    3.0337 N   0  0  0  0  0  0  0  0  0  0  0  0
    1.4446   -7.8674    2.1667 N   0  0  0  0  0  0  0  0  0  0  0  0
    2.2672   -7.0125    1.5052 C   0  0  0  0  0  0  0  0  0  0  0  0
    1.5510   -6.1809    0.7448 N   0  0  0  0  0  0  0  0  0  0  0  0
    0.2126   -6.5038    0.8959 N   0  0  0  0  0  0  0  0  0  0  0  0
    0.1424   -7.5107    1.7674 C   0  0  0  0  0  0  0  0  0  0  0  0
   -0.9186   -8.2499    2.3427 C   0  0  0  0  0  0  0  0  0  0  0  0
   -1.3722   -9.8512    3.6805 H   0  0  0  0  0  0  0  0  0  0  0  0
    1.0019  -10.2979    4.2202 H   0  0  0  0  0  0  0  0  0  0  0  0
    3.3448   -7.0097    1.5772 H   0  0  0  0  0  0  0  0  0  0  0  0
   -1.9477   -8.0376    2.0800 H   0  0  0  0  0  0  0  0  0  0  0  0
  1  9  2  0
  1  2  1  0
  1 10  1  0
  2  3  2  0
  2 11  1  0
  3  4  1  0
  4  8  1  0
  4  5  1  0
  5  6  2  0
  5 12  1  0
  6  7  1  0
  7  8  2  0
  8  9  1  0
  9 13  1  0
M  END
>  <i_m_ct_stereo_status>  (345) 
1

>  <s_m_source_file>  (345) 
/var/tmp/pbs.5076255.sched01/tmpp4327t_d/123x5hmlc3y.sdf

>  <i_m_source_file_index>  (345) 
19

>  <i_lp_mmshare_version>  (345) 
48012

>  <i_f3d_flags>  (345) 
0

>  <s_epik_input>  (345) 
bjFbY0hdW2NIXVtjSF1jKG4xMilubltjSF0y

>  <s_epik_cmdline>  (345) 
J2VwaWtfcHl0aG9uJywgJy1waHQnLCAnMi4wJywgJy1waCcsICc3LjAnLCAnLXRuJywgJzgnLCAnLW1hJywgJzIwMCcsICctaW1hZScsICc8aW5maWxlLm1hZT4nLCAnLW9tYWUnLCAnPG91dGZpbGUubWFlPic=

>  <r_lp_tautomer_probability>  (345) 
1

>  <r_epik_Ionization_Penalty>  (345) 
7.96732e-08

>  <r_epik_Ionization_Penalty_Charging>  (345) 
0

>  <r_epik_Ionization_Penalty_Neutral>  (345) 
7.96732e-08

>  <r_epik_State_Penalty>  (345) 
-0

>  <r_epik_Charging_Adjusted_Penalty>  (345) 
0

>  <i_epik_Tot_Q>  (345) 
0

>  <i_epik_Tot_abs_Q>  (345) 
0

>  <s_lp_Force_Field>  (345) 
OPLS3e

>  <r_lp_Energy>  (345) 
12.3815

>  <b_lp_Chiralities_Consistent>  (345) 
1

>  <s_lp_Variant>  (345) 
103:0-1

>  <s_i_glide_gridfile>  (345) 
pfpi4k_grid

>  <i_i_glide_lignum>  (345) 
19

>  <i_i_glide_rotatable_bonds>  (345) 
0

>  <r_i_docking_score>  (345) 
-3.93699

>  <r_i_glide_ligand_efficiency>  (345) 
-0.437443

>  <r_i_glide_ligand_efficiency_sa>  (345) 
-0.909918

>  <r_i_glide_ligand_efficiency_ln>  (345) 
-1.23138

>  <r_i_glide_gscore>  (345) 
-3.93699

>  <r_i_glide_lipo>  (345) 
0

>  <r_i_glide_hbond>  (345) 
0

>  <r_i_glide_metal>  (345) 
-0

>  <r_i_glide_rewards>  (345) 
-2.25

>  <r_i_glide_evdw>  (345) 
-12.4469

>  <r_i_glide_ecoul>  (345) 
-5.14459

>  <r_i_glide_erotb>  (345) 
0

>  <r_i_glide_esite>  (345) 
-0.292954

>  <r_i_glide_emodel>  (345) 
-23.667

>  <r_i_glide_energy>  (345) 
-17.5915

>  <r_i_glide_einternal>  (345) 
0

>  <r_i_glide_intrahb_reward>  (345) 
-0

>  <i_i_glide_confnum>  (345) 
1

>  <i_i_glide_posenum>  (345) 
2

>  <r_i_glide_eff_state_penalty>  (345) 
0

>  <ligand_id>  (345) 
103

>  <original_smiles>  (345) 
c1cnn2cnnc2c1

>  <smiles>  (345) 
[H]c1nn2c([H])nnc2c([H])c1[H]

$$$$
103:0:2
     RDKit          3D

 13 14  0  0  1  0  0  0  0  0999 V2000
   -0.9867    2.6465    3.2899 C   0  0  0  0  0  0  0  0  0  0  0  0
   -0.2271    1.7208    2.5334 C   0  0  0  0  0  0  0  0  0  0  0  0
    0.0002    0.4463    2.8445 N   0  0  0  0  0  0  0  0  0  0  0  0
   -0.6039    0.0896    4.0069 N   0  0  0  0  0  0  0  0  0  0  0  0
   -0.5796   -1.1386    4.5859 C   0  0  0  0  0  0  0  0  0  0  0  0
   -1.2978   -1.1370    5.7092 N   0  0  0  0  0  0  0  0  0  0  0  0
   -1.7880    0.1455    5.9025 N   0  0  0  0  0  0  0  0  0  0  0  0
   -1.3863    0.8873    4.8641 C   0  0  0  0  0  0  0  0  0  0  0  0
   -1.5733    2.2344    4.4648 C   0  0  0  0  0  0  0  0  0  0  0  0
   -1.0904    3.6688    2.9378 H   0  0  0  0  0  0  0  0  0  0  0  0
    0.2290    2.0638    1.6095 H   0  0  0  0  0  0  0  0  0  0  0  0
   -0.0652   -2.0007    4.1870 H   0  0  0  0  0  0  0  0  0  0  0  0
   -2.1639    2.9054    5.0769 H   0  0  0  0  0  0  0  0  0  0  0  0
  1  9  2  0
  1  2  1  0
  1 10  1  0
  2  3  2  0
  2 11  1  0
  3  4  1  0
  4  8  1  0
  4  5  1  0
  5  6  2  0
  5 12  1  0
  6  7  1  0
  7  8  2  0
  8  9  1  0
  9 13  1  0
M  END
>  <i_m_ct_stereo_status>  (346) 
1

>  <s_m_source_file>  (346) 
/var/tmp/pbs.5076255.sched01/tmpp4327t_d/123x5hmlc3y.sdf

>  <i_m_source_file_index>  (346) 
19

>  <i_lp_mmshare_version>  (346) 
48012

>  <i_f3d_flags>  (346) 
0

>  <s_epik_input>  (346) 
bjFbY0hdW2NIXVtjSF1jKG4xMilubltjSF0y

>  <s_epik_cmdline>  (346) 
J2VwaWtfcHl0aG9uJywgJy1waHQnLCAnMi4wJywgJy1waCcsICc3LjAnLCAnLXRuJywgJzgnLCAnLW1hJywgJzIwMCcsICctaW1hZScsICc8aW5maWxlLm1hZT4nLCAnLW9tYWUnLCAnPG91dGZpbGUubWFlPic=

>  <r_lp_tautomer_probability>  (346) 
1

>  <r_epik_Ionization_Penalty>  (346) 
7.96732e-08

>  <r_epik_Ionization_Penalty_Charging>  (346) 
0

>  <r_epik_Ionization_Penalty_Neutral>  (346) 
7.96732e-08

>  <r_epik_State_Penalty>  (346) 
-0

>  <r_epik_Charging_Adjusted_Penalty>  (346) 
0

>  <i_epik_Tot_Q>  (346) 
0

>  <i_epik_Tot_abs_Q>  (346) 
0

>  <s_lp_Force_Field>  (346) 
OPLS3e

>  <r_lp_Energy>  (346) 
12.3815

>  <b_lp_Chiralities_Consistent>  (346) 
1

>  <s_lp_Variant>  (346) 
103:0-1

>  <s_i_glide_gridfile>  (346) 
pfpi4k_grid

>  <i_i_glide_lignum>  (346) 
19

>  <i_i_glide_rotatable_bonds>  (346) 
0

>  <r_i_docking_score>  (346) 
-3.81576

>  <r_i_glide_ligand_efficiency>  (346) 
-0.423973

>  <r_i_glide_ligand_efficiency_sa>  (346) 
-0.8819

>  <r_i_glide_ligand_efficiency_ln>  (346) 
-1.19346

>  <r_i_glide_gscore>  (346) 
-3.81576

>  <r_i_glide_lipo>  (346) 
0

>  <r_i_glide_hbond>  (346) 
0

>  <r_i_glide_metal>  (346) 
-0

>  <r_i_glide_rewards>  (346) 
-2.25

>  <r_i_glide_evdw>  (346) 
-12.5299

>  <r_i_glide_ecoul>  (346) 
-4.80125

>  <r_i_glide_erotb>  (346) 
0

>  <r_i_glide_esite>  (346) 
-0.219076

>  <r_i_glide_emodel>  (346) 
-23.2193

>  <r_i_glide_energy>  (346) 
-17.3312

>  <r_i_glide_einternal>  (346) 
0

>  <r_i_glide_intrahb_reward>  (346) 
-0

>  <i_i_glide_confnum>  (346) 
1

>  <i_i_glide_posenum>  (346) 
1

>  <r_i_glide_eff_state_penalty>  (346) 
0

>  <ligand_id>  (346) 
103

>  <original_smiles>  (346) 
c1cnn2cnnc2c1

>  <smiles>  (346) 
[H]c1nn2c([H])nnc2c([H])c1[H]

$$$$
104:0:0
     RDKit          3D

 81 85  0  0  1  0  0  0  0  0999 V2000
    4.9066   -2.8924    1.7005 C   0  0  0  0  0  0  0  0  0  0  0  0
    3.9786   -3.4364    0.8799 C   0  0  0  0  0  0  0  0  0  0  0  0
    4.2851   -3.6391   -0.5937 C   0  0  0  0  0  0  0  0  0  0  0  0
    2.5877   -3.8729    1.3299 C   0  0  2  0  0  0  0  0  0  0  0  0
    2.2353   -3.5198    2.7786 C   0  0  0  0  0  0  0  0  0  0  0  0
    1.7847   -2.3271    3.2254 C   0  0  0  0  0  0  0  0  0  0  0  0
    1.7043   -1.1346    2.2810 C   0  0  0  0  0  0  0  0  0  0  0  0
    1.5049    0.2084    2.9776 C   0  0  0  0  0  0  0  0  0  0  0  0
    2.3336    0.3709    4.2573 C   0  0  1  0  0  0  0  0  0  0  0  0
    2.3347    1.8537    4.8359 C   0  0  1  0  0  0  0  0  0  0  0  0
    3.5198    2.0054    5.8352 C   0  0  0  0  0  0  0  0  0  0  0  0
    2.7355    2.9191    3.7557 C   0  0  0  0  0  0  0  0  0  0  0  0
    1.6170    3.7541    3.1473 C   0  0  0  0  0  0  0  0  0  0  0  0
    0.7098    4.3171    4.2372 C   0  0  1  0  0  0  0  0  0  0  0  0
   -0.1514    5.2949    3.6767 O   0  0  0  0  0  0  0  0  0  0  0  0
   -0.0610    3.1901    4.9767 C   0  0  1  0  0  0  0  0  0  0  0  0
   -0.8314    3.8614    6.1406 C   0  0  0  0  0  0  0  0  0  0  0  0
   -1.1077    2.5716    3.9823 C   0  0  0  0  0  0  0  0  0  0  0  0
   -2.1684    1.8570    4.5901 O   0  0  0  0  0  0  0  0  0  0  0  0
    0.9948    2.1878    5.6125 C   0  0  1  0  0  0  0  0  0  0  0  0
    0.3637    0.9418    6.2908 C   0  0  0  0  0  0  0  0  0  0  0  0
    1.3191   -0.2351    6.5637 C   0  0  0  0  0  0  0  0  0  0  0  0
    2.0563   -0.7971    5.3028 C   0  0  2  0  0  0  0  0  0  0  0  0
    3.4597   -1.2708    5.7840 C   0  0  0  0  0  0  0  0  0  0  0  0
    1.2846   -2.0781    4.6765 C   0  0  1  0  0  0  0  0  0  0  0  0
   -0.2662   -1.9182    4.6402 C   0  0  0  0  0  0  0  0  0  0  0  0
    1.4741   -3.3807    5.5464 C   0  0  0  0  0  0  0  0  0  0  0  0
    1.2321   -4.6877    4.7774 C   0  0  0  0  0  0  0  0  0  0  0  0
    2.2033   -4.8131    3.5852 C   0  0  2  0  0  0  0  0  0  0  0  0
    3.6275   -5.1680    4.0663 C   0  0  0  0  0  0  0  0  0  0  0  0
    1.7239   -5.8357    2.5430 C   0  0  0  0  0  0  0  0  0  0  0  0
    2.3960   -5.4075    1.2351 C   0  0  1  0  0  0  0  0  0  0  0  0
    1.6300   -5.7938    0.1162 O   0  0  0  0  0  0  0  0  0  0  0  0
    5.8746   -2.6024    1.3243 H   0  0  0  0  0  0  0  0  0  0  0  0
    4.7178   -2.7306    2.7499 H   0  0  0  0  0  0  0  0  0  0  0  0
    4.2528   -4.6973   -0.8572 H   0  0  0  0  0  0  0  0  0  0  0  0
    5.2768   -3.2644   -0.8552 H   0  0  0  0  0  0  0  0  0  0  0  0
    3.5534   -3.1126   -1.2111 H   0  0  0  0  0  0  0  0  0  0  0  0
    1.8670   -3.3628    0.6819 H   0  0  0  0  0  0  0  0  0  0  0  0
    2.6114   -1.0957    1.6809 H   0  0  0  0  0  0  0  0  0  0  0  0
    0.8783   -1.2975    1.5962 H   0  0  0  0  0  0  0  0  0  0  0  0
    1.7043    0.9928    2.2491 H   0  0  0  0  0  0  0  0  0  0  0  0
    0.4512    0.3138    3.2050 H   0  0  0  0  0  0  0  0  0  0  0  0
    3.3469    0.2149    3.8854 H   0  0  0  0  0  0  0  0  0  0  0  0
    3.6220    3.0334    6.1922 H   0  0  0  0  0  0  0  0  0  0  0  0
    4.4712    1.7388    5.3696 H   0  0  0  0  0  0  0  0  0  0  0  0
    3.4282    1.4262    6.7459 H   0  0  0  0  0  0  0  0  0  0  0  0
    3.4225    3.6639    4.1775 H   0  0  0  0  0  0  0  0  0  0  0  0
    3.3279    2.4578    2.9701 H   0  0  0  0  0  0  0  0  0  0  0  0
    2.0715    4.5696    2.5835 H   0  0  0  0  0  0  0  0  0  0  0  0
    1.0549    3.1693    2.4258 H   0  0  0  0  0  0  0  0  0  0  0  0
    1.3441    4.8426    4.9528 H   0  0  0  0  0  0  0  0  0  0  0  0
   -0.1567    5.1717    2.7242 H   0  0  0  0  0  0  0  0  0  0  0  0
   -1.4155    3.1464    6.7202 H   0  0  0  0  0  0  0  0  0  0  0  0
   -1.5252    4.6088    5.7648 H   0  0  0  0  0  0  0  0  0  0  0  0
   -0.1580    4.3633    6.8366 H   0  0  0  0  0  0  0  0  0  0  0  0
   -1.6054    3.3407    3.3996 H   0  0  0  0  0  0  0  0  0  0  0  0
   -0.6316    1.9354    3.2369 H   0  0  0  0  0  0  0  0  0  0  0  0
   -2.6912    1.4193    3.9192 H   0  0  0  0  0  0  0  0  0  0  0  0
    1.3643    2.7701    6.4667 H   0  0  0  0  0  0  0  0  0  0  0  0
   -0.0659    1.2491    7.2388 H   0  0  0  0  0  0  0  0  0  0  0  0
   -0.4712    0.5562    5.7191 H   0  0  0  0  0  0  0  0  0  0  0  0
    2.0258    0.0634    7.3453 H   0  0  0  0  0  0  0  0  0  0  0  0
    0.7643   -1.0231    7.0585 H   0  0  0  0  0  0  0  0  0  0  0  0
    3.4194   -1.7809    6.7480 H   0  0  0  0  0  0  0  0  0  0  0  0
    4.1657   -0.4591    5.9290 H   0  0  0  0  0  0  0  0  0  0  0  0
    3.9273   -1.9376    5.0590 H   0  0  0  0  0  0  0  0  0  0  0  0
   -0.7159   -1.9400    5.6320 H   0  0  0  0  0  0  0  0  0  0  0  0
   -0.7146   -2.7327    4.0827 H   0  0  0  0  0  0  0  0  0  0  0  0
   -0.6560   -1.0305    4.1679 H   0  0  0  0  0  0  0  0  0  0  0  0
    2.4680   -3.4925    5.9616 H   0  0  0  0  0  0  0  0  0  0  0  0
    0.8263   -3.3591    6.4232 H   0  0  0  0  0  0  0  0  0  0  0  0
    1.3596   -5.5451    5.4397 H   0  0  0  0  0  0  0  0  0  0  0  0
    0.1987   -4.7331    4.4362 H   0  0  0  0  0  0  0  0  0  0  0  0
    3.6282   -6.0767    4.6670 H   0  0  0  0  0  0  0  0  0  0  0  0
    4.0621   -4.3714    4.6669 H   0  0  0  0  0  0  0  0  0  0  0  0
    4.3124   -5.3317    3.2356 H   0  0  0  0  0  0  0  0  0  0  0  0
    1.9574   -6.8652    2.8201 H   0  0  0  0  0  0  0  0  0  0  0  0
    0.6401   -5.7748    2.4332 H   0  0  0  0  0  0  0  0  0  0  0  0
    3.3710   -5.9048    1.1737 H   0  0  0  0  0  0  0  0  0  0  0  0
    2.1894   -5.7252   -0.6557 H   0  0  0  0  0  0  0  0  0  0  0  0
  1  2  2  0
  1 34  1  0
  1 35  1  0
  2  3  1  0
  2  4  1  0
  3 36  1  0
  3 37  1  0
  3 38  1  0
  4 32  1  0
  4  5  1  0
  4 39  1  6
  5 29  1  0
  5  6  2  0
  6 25  1  0
  6  7  1  0
  7  8  1  0
  7 40  1  0
  7 41  1  0
  8  9  1  0
  8 42  1  0
  8 43  1  0
  9 23  1  0
  9 10  1  0
  9 44  1  6
 10 20  1  0
 10 11  1  1
 10 12  1  0
 11 45  1  0
 11 46  1  0
 11 47  1  0
 12 13  1  0
 12 48  1  0
 12 49  1  0
 13 14  1  0
 13 50  1  0
 13 51  1  0
 14 15  1  0
 14 16  1  0
 14 52  1  1
 15 53  1  0
 16 17  1  1
 16 18  1  0
 16 20  1  0
 17 54  1  0
 17 55  1  0
 17 56  1  0
 18 19  1  0
 18 57  1  0
 18 58  1  0
 19 59  1  0
 20 21  1  0
 20 60  1  1
 21 22  1  0
 21 61  1  0
 21 62  1  0
 22 23  1  0
 22 63  1  0
 22 64  1  0
 23 24  1  1
 23 25  1  0
 24 65  1  0
 24 66  1  0
 24 67  1  0
 25 26  1  6
 25 27  1  0
 26 68  1  0
 26 69  1  0
 26 70  1  0
 27 28  1  0
 27 71  1  0
 27 72  1  0
 28 29  1  0
 28 73  1  0
 28 74  1  0
 29 30  1  1
 29 31  1  0
 30 75  1  0
 30 76  1  0
 30 77  1  0
 31 32  1  0
 31 78  1  0
 31 79  1  0
 32 33  1  0
 32 80  1  6
 33 81  1  0
M  END
>  <i_m_ct_stereo_status>  (347) 
1

>  <s_m_source_file>  (347) 
/var/tmp/pbs.5076255.sched01/tmpp4327t_d/123x5hmlc3y.sdf

>  <i_m_source_file_index>  (347) 
20

>  <i_lp_mmshare_version>  (347) 
48012

>  <i_f3d_flags>  (347) 
0

>  <s_epik_input>  (347) 
W0NIMl09QyhbQ0gzXSlbQ0BIXTFbQ0BIXShbT0hdKVtDSDJdW0NAXShbQ0gzXSkoW0NIMl1bQ0gyXTIpQzE9QyhbQ0gyXVtDSDJdMylbQ0BdMihbQ0gzXSlbQ0BAXShbQ0gzXSkoW0NAQEhdM1tDQEBdNDVbQ0gzXSlbQ0gyXVtDSDJdW0NAQEhdNVtDQF0oW0NIM10pKFtDSDJdW09IXSlbQ0BIXShbT0hdKVtDSDJdW0NIMl00

>  <s_epik_cmdline>  (347) 
J2VwaWtfcHl0aG9uJywgJy1waHQnLCAnMi4wJywgJy1waCcsICc3LjAnLCAnLXRuJywgJzgnLCAnLW1hJywgJzIwMCcsICctaW1hZScsICc8aW5maWxlLm1hZT4nLCAnLW9tYWUnLCAnPG91dGZpbGUubWFlPic=

>  <r_lp_tautomer_probability>  (347) 
1

>  <r_epik_Ionization_Penalty>  (347) 
2.39032e-06

>  <r_epik_Ionization_Penalty_Charging>  (347) 
0

>  <r_epik_Ionization_Penalty_Neutral>  (347) 
2.39032e-06

>  <r_epik_State_Penalty>  (347) 
-0

>  <r_epik_Charging_Adjusted_Penalty>  (347) 
0

>  <i_epik_Tot_Q>  (347) 
0

>  <i_epik_Tot_abs_Q>  (347) 
0

>  <s_lp_Force_Field>  (347) 
OPLS3e

>  <r_lp_Energy>  (347) 
90.1505

>  <b_lp_Chiralities_Consistent>  (347) 
1

>  <s_lp_Variant>  (347) 
104:0-1

>  <s_i_glide_gridfile>  (347) 
pfpi4k_grid

>  <i_i_glide_lignum>  (347) 
20

>  <i_i_glide_rotatable_bonds>  (347) 
5

>  <r_i_docking_score>  (347) 
-3.43358

>  <r_i_glide_ligand_efficiency>  (347) 
-0.104048

>  <r_i_glide_ligand_efficiency_sa>  (347) 
-0.333737

>  <r_i_glide_ligand_efficiency_ln>  (347) 
-0.763611

>  <r_i_glide_gscore>  (347) 
-3.43358

>  <r_i_glide_lipo>  (347) 
-0.0754909

>  <r_i_glide_hbond>  (347) 
-0.680716

>  <r_i_glide_metal>  (347) 
-0

>  <r_i_glide_rewards>  (347) 
-0.295225

>  <r_i_glide_evdw>  (347) 
-18.8564

>  <r_i_glide_ecoul>  (347) 
-10.8804

>  <r_i_glide_erotb>  (347) 
0.192727

>  <r_i_glide_esite>  (347) 
0

>  <r_i_glide_emodel>  (347) 
-35.4918

>  <r_i_glide_energy>  (347) 
-29.7368

>  <r_i_glide_einternal>  (347) 
2.14753

>  <r_i_glide_intrahb_reward>  (347) 
-0

>  <i_i_glide_confnum>  (347) 
5

>  <i_i_glide_posenum>  (347) 
16

>  <r_i_glide_eff_state_penalty>  (347) 
0

>  <ligand_id>  (347) 
104

>  <original_smiles>  (347) 
C=C(C)C1C2=C3CCC4C5(C)CCC(O)C(C)(CO)C5CCC4(C)C3(C)CCC2(C)CC1O

>  <smiles>  (347) 
[H]OC([H])([H])C1(C([H])([H])[H])C([H])(O[H])C([H])([H])C([H])([H])C2(C([H])([H])[H])C1([H])C([H])([H])C([H])([H])C1(C([H])([H])[H])C2([H])C([H])([H])C([H])([H])C2=C3C([H])(C(=C([H])[H])C([H])([H])[H])C([H])(O[H])C([H])([H])C3(C([H])([H])[H])C([H])([H])C([H])([H])C21C([H])([H])[H]

$$$$
104:0:1
     RDKit          3D

 81 85  0  0  1  0  0  0  0  0999 V2000
    4.9096   -2.4295    1.1476 C   0  0  0  0  0  0  0  0  0  0  0  0
    3.9386   -2.9874    0.3913 C   0  0  0  0  0  0  0  0  0  0  0  0
    4.1165   -3.1179   -1.1116 C   0  0  0  0  0  0  0  0  0  0  0  0
    2.6087   -3.5098    0.9390 C   0  0  2  0  0  0  0  0  0  0  0  0
    2.3915   -3.2534    2.4365 C   0  0  0  0  0  0  0  0  0  0  0  0
    1.9355   -2.0991    2.9924 C   0  0  0  0  0  0  0  0  0  0  0  0
    1.7221   -0.8634    2.1323 C   0  0  0  0  0  0  0  0  0  0  0  0
    1.5386    0.4332    2.9196 C   0  0  0  0  0  0  0  0  0  0  0  0
    2.4866    0.5618    4.1249 C   0  0  1  0  0  0  0  0  0  0  0  0
    2.4797    2.0079    4.7820 C   0  0  1  0  0  0  0  0  0  0  0  0
    3.7549    2.1601    5.6742 C   0  0  0  0  0  0  0  0  0  0  0  0
    2.7367    3.1511    3.7382 C   0  0  0  0  0  0  0  0  0  0  0  0
    1.5355    3.9601    3.2725 C   0  0  0  0  0  0  0  0  0  0  0  0
    0.7259    4.4317    4.4805 C   0  0  1  0  0  0  0  0  0  0  0  0
   -0.2113    5.4050    4.0413 O   0  0  0  0  0  0  0  0  0  0  0  0
    0.0635    3.2389    5.2235 C   0  0  1  0  0  0  0  0  0  0  0  0
   -0.6236    3.8126    6.4938 C   0  0  0  0  0  0  0  0  0  0  0  0
   -1.0473    2.6325    4.2948 C   0  0  0  0  0  0  0  0  0  0  0  0
   -1.9705    1.7738    4.9360 O   0  0  0  0  0  0  0  0  0  0  0  0
    1.2166    2.2481    5.7042 C   0  0  1  0  0  0  0  0  0  0  0  0
    0.7033    0.9343    6.3649 C   0  0  0  0  0  0  0  0  0  0  0  0
    1.7281   -0.2063    6.4795 C   0  0  0  0  0  0  0  0  0  0  0  0
    2.3482   -0.6740    5.1212 C   0  0  2  0  0  0  0  0  0  0  0  0
    3.8115   -1.1084    5.4403 C   0  0  0  0  0  0  0  0  0  0  0  0
    1.5698   -1.9524    4.4947 C   0  0  1  0  0  0  0  0  0  0  0  0
    0.0118   -1.8646    4.6170 C   0  0  0  0  0  0  0  0  0  0  0  0
    1.8940   -3.2877    5.2705 C   0  0  0  0  0  0  0  0  0  0  0  0
    1.6273   -4.5640    4.4517 C   0  0  0  0  0  0  0  0  0  0  0  0
    2.4790   -4.5776    3.1652 C   0  0  2  0  0  0  0  0  0  0  0  0
    3.9594   -4.8983    3.4912 C   0  0  0  0  0  0  0  0  0  0  0  0
    1.9429   -5.5709    2.1185 C   0  0  0  0  0  0  0  0  0  0  0  0
    2.4718   -5.0478    0.7733 C   0  0  1  0  0  0  0  0  0  0  0  0
    1.6364   -5.4444   -0.3087 O   0  0  0  0  0  0  0  0  0  0  0  0
    5.8253   -2.0733    0.7002 H   0  0  0  0  0  0  0  0  0  0  0  0
    4.8070   -2.3127    2.2163 H   0  0  0  0  0  0  0  0  0  0  0  0
    4.1068   -4.1665   -1.4142 H   0  0  0  0  0  0  0  0  0  0  0  0
    5.0623   -2.6879   -1.4437 H   0  0  0  0  0  0  0  0  0  0  0  0
    3.3064   -2.6039   -1.6361 H   0  0  0  0  0  0  0  0  0  0  0  0
    1.8226   -2.9958    0.3892 H   0  0  0  0  0  0  0  0  0  0  0  0
    2.5644   -0.7497    1.4470 H   0  0  0  0  0  0  0  0  0  0  0  0
    0.8340   -1.0178    1.5243 H   0  0  0  0  0  0  0  0  0  0  0  0
    1.6312    1.2636    2.2288 H   0  0  0  0  0  0  0  0  0  0  0  0
    0.5236    0.4537    3.2558 H   0  0  0  0  0  0  0  0  0  0  0  0
    3.4636    0.4686    3.6486 H   0  0  0  0  0  0  0  0  0  0  0  0
    3.8522    3.1701    6.0778 H   0  0  0  0  0  0  0  0  0  0  0  0
    4.6637    1.9565    5.1073 H   0  0  0  0  0  0  0  0  0  0  0  0
    3.7712    1.5292    6.5568 H   0  0  0  0  0  0  0  0  0  0  0  0
    3.4310    3.8960    4.1300 H   0  0  0  0  0  0  0  0  0  0  0  0
    3.2614    2.7557    2.8692 H   0  0  0  0  0  0  0  0  0  0  0  0
    1.9110    4.8267    2.7243 H   0  0  0  0  0  0  0  0  0  0  0  0
    0.9402    3.4063    2.5568 H   0  0  0  0  0  0  0  0  0  0  0  0
    1.4109    4.9449    5.1564 H   0  0  0  0  0  0  0  0  0  0  0  0
    0.2145    5.9416    3.3857 H   0  0  0  0  0  0  0  0  0  0  0  0
   -1.1164    3.0354    7.0771 H   0  0  0  0  0  0  0  0  0  0  0  0
   -1.3814    4.5546    6.2447 H   0  0  0  0  0  0  0  0  0  0  0  0
    0.1003    4.2979    7.1565 H   0  0  0  0  0  0  0  0  0  0  0  0
   -1.6703    3.4232    3.8715 H   0  0  0  0  0  0  0  0  0  0  0  0
   -0.6377    2.1448    3.4297 H   0  0  0  0  0  0  0  0  0  0  0  0
   -2.5094    1.3535    4.2839 H   0  0  0  0  0  0  0  0  0  0  0  0
    1.6411    2.7973    6.5450 H   0  0  0  0  0  0  0  0  0  0  0  0
    0.3522    1.1778    7.3716 H   0  0  0  0  0  0  0  0  0  0  0  0
   -0.1565    0.5334    5.8616 H   0  0  0  0  0  0  0  0  0  0  0  0
    2.4880    0.0716    7.2037 H   0  0  0  0  0  0  0  0  0  0  0  0
    1.2464   -1.0484    6.9792 H   0  0  0  0  0  0  0  0  0  0  0  0
    3.8826   -1.6726    6.3745 H   0  0  0  0  0  0  0  0  0  0  0  0
    4.4967   -0.2763    5.5677 H   0  0  0  0  0  0  0  0  0  0  0  0
    4.2334   -1.7153    4.6384 H   0  0  0  0  0  0  0  0  0  0  0  0
   -0.3315   -1.9505    5.6466 H   0  0  0  0  0  0  0  0  0  0  0  0
   -0.4713   -2.6696    4.0702 H   0  0  0  0  0  0  0  0  0  0  0  0
   -0.4552   -0.9680    4.2389 H   0  0  0  0  0  0  0  0  0  0  0  0
    2.9270   -3.3791    5.5782 H   0  0  0  0  0  0  0  0  0  0  0  0
    1.3354   -3.3420    6.2041 H   0  0  0  0  0  0  0  0  0  0  0  0
    1.8498   -5.4463    5.0503 H   0  0  0  0  0  0  0  0  0  0  0  0
    0.5682   -4.6322    4.2092 H   0  0  0  0  0  0  0  0  0  0  0  0
    4.0507   -5.8384    4.0370 H   0  0  0  0  0  0  0  0  0  0  0  0
    4.4208   -4.1171    4.0915 H   0  0  0  0  0  0  0  0  0  0  0  0
    4.5649   -4.9891    2.5909 H   0  0  0  0  0  0  0  0  0  0  0  0
    2.2412   -6.5964    2.3153 H   0  0  0  0  0  0  0  0  0  0  0  0
    0.8534   -5.5484    2.1173 H   0  0  0  0  0  0  0  0  0  0  0  0
    3.4535   -5.4932    0.6076 H   0  0  0  0  0  0  0  0  0  0  0  0
    2.1626   -5.4548   -1.0977 H   0  0  0  0  0  0  0  0  0  0  0  0
  1  2  2  0
  1 34  1  0
  1 35  1  0
  2  3  1  0
  2  4  1  0
  3 36  1  0
  3 37  1  0
  3 38  1  0
  4 32  1  0
  4  5  1  0
  4 39  1  6
  5 29  1  0
  5  6  2  0
  6 25  1  0
  6  7  1  0
  7  8  1  0
  7 40  1  0
  7 41  1  0
  8  9  1  0
  8 42  1  0
  8 43  1  0
  9 23  1  0
  9 10  1  0
  9 44  1  6
 10 20  1  0
 10 11  1  1
 10 12  1  0
 11 45  1  0
 11 46  1  0
 11 47  1  0
 12 13  1  0
 12 48  1  0
 12 49  1  0
 13 14  1  0
 13 50  1  0
 13 51  1  0
 14 15  1  0
 14 16  1  0
 14 52  1  1
 15 53  1  0
 16 17  1  1
 16 18  1  0
 16 20  1  0
 17 54  1  0
 17 55  1  0
 17 56  1  0
 18 19  1  0
 18 57  1  0
 18 58  1  0
 19 59  1  0
 20 21  1  0
 20 60  1  1
 21 22  1  0
 21 61  1  0
 21 62  1  0
 22 23  1  0
 22 63  1  0
 22 64  1  0
 23 24  1  1
 23 25  1  0
 24 65  1  0
 24 66  1  0
 24 67  1  0
 25 26  1  6
 25 27  1  0
 26 68  1  0
 26 69  1  0
 26 70  1  0
 27 28  1  0
 27 71  1  0
 27 72  1  0
 28 29  1  0
 28 73  1  0
 28 74  1  0
 29 30  1  1
 29 31  1  0
 30 75  1  0
 30 76  1  0
 30 77  1  0
 31 32  1  0
 31 78  1  0
 31 79  1  0
 32 33  1  0
 32 80  1  6
 33 81  1  0
M  END
>  <i_m_ct_stereo_status>  (348) 
1

>  <s_m_source_file>  (348) 
/var/tmp/pbs.5076255.sched01/tmpp4327t_d/123x5hmlc3y.sdf

>  <i_m_source_file_index>  (348) 
20

>  <i_lp_mmshare_version>  (348) 
48012

>  <i_f3d_flags>  (348) 
0

>  <s_epik_input>  (348) 
W0NIMl09QyhbQ0gzXSlbQ0BIXTFbQ0BIXShbT0hdKVtDSDJdW0NAXShbQ0gzXSkoW0NIMl1bQ0gyXTIpQzE9QyhbQ0gyXVtDSDJdMylbQ0BdMihbQ0gzXSlbQ0BAXShbQ0gzXSkoW0NAQEhdM1tDQEBdNDVbQ0gzXSlbQ0gyXVtDSDJdW0NAQEhdNVtDQF0oW0NIM10pKFtDSDJdW09IXSlbQ0BIXShbT0hdKVtDSDJdW0NIMl00

>  <s_epik_cmdline>  (348) 
J2VwaWtfcHl0aG9uJywgJy1waHQnLCAnMi4wJywgJy1waCcsICc3LjAnLCAnLXRuJywgJzgnLCAnLW1hJywgJzIwMCcsICctaW1hZScsICc8aW5maWxlLm1hZT4nLCAnLW9tYWUnLCAnPG91dGZpbGUubWFlPic=

>  <r_lp_tautomer_probability>  (348) 
1

>  <r_epik_Ionization_Penalty>  (348) 
2.39032e-06

>  <r_epik_Ionization_Penalty_Charging>  (348) 
0

>  <r_epik_Ionization_Penalty_Neutral>  (348) 
2.39032e-06

>  <r_epik_State_Penalty>  (348) 
-0

>  <r_epik_Charging_Adjusted_Penalty>  (348) 
0

>  <i_epik_Tot_Q>  (348) 
0

>  <i_epik_Tot_abs_Q>  (348) 
0

>  <s_lp_Force_Field>  (348) 
OPLS3e

>  <r_lp_Energy>  (348) 
90.1505

>  <b_lp_Chiralities_Consistent>  (348) 
1

>  <s_lp_Variant>  (348) 
104:0-1

>  <s_i_glide_gridfile>  (348) 
pfpi4k_grid

>  <i_i_glide_lignum>  (348) 
20

>  <i_i_glide_rotatable_bonds>  (348) 
5

>  <r_i_docking_score>  (348) 
-3.12154

>  <r_i_glide_ligand_efficiency>  (348) 
-0.0945922

>  <r_i_glide_ligand_efficiency_sa>  (348) 
-0.303408

>  <r_i_glide_ligand_efficiency_ln>  (348) 
-0.694215

>  <r_i_glide_gscore>  (348) 
-3.12154

>  <r_i_glide_lipo>  (348) 
-0.0308375

>  <r_i_glide_hbond>  (348) 
-0.4618

>  <r_i_glide_metal>  (348) 
-0

>  <r_i_glide_rewards>  (348) 
-0.295225

>  <r_i_glide_evdw>  (348) 
-18.1541

>  <r_i_glide_ecoul>  (348) 
-10.7913

>  <r_i_glide_erotb>  (348) 
0.192727

>  <r_i_glide_esite>  (348) 
0

>  <r_i_glide_emodel>  (348) 
-34.2031

>  <r_i_glide_energy>  (348) 
-28.9455

>  <r_i_glide_einternal>  (348) 
2.25359

>  <r_i_glide_intrahb_reward>  (348) 
-0

>  <i_i_glide_confnum>  (348) 
4

>  <i_i_glide_posenum>  (348) 
24

>  <r_i_glide_eff_state_penalty>  (348) 
0

>  <ligand_id>  (348) 
104

>  <original_smiles>  (348) 
C=C(C)C1C2=C3CCC4C5(C)CCC(O)C(C)(CO)C5CCC4(C)C3(C)CCC2(C)CC1O

>  <smiles>  (348) 
[H]OC([H])([H])C1(C([H])([H])[H])C([H])(O[H])C([H])([H])C([H])([H])C2(C([H])([H])[H])C1([H])C([H])([H])C([H])([H])C1(C([H])([H])[H])C2([H])C([H])([H])C([H])([H])C2=C3C([H])(C(=C([H])[H])C([H])([H])[H])C([H])(O[H])C([H])([H])C3(C([H])([H])[H])C([H])([H])C([H])([H])C21C([H])([H])[H]

$$$$
104:0:2
     RDKit          3D

 81 85  0  0  1  0  0  0  0  0999 V2000
    4.7453   -3.4416    2.5900 C   0  0  0  0  0  0  0  0  0  0  0  0
    3.8652   -4.0011    1.7306 C   0  0  0  0  0  0  0  0  0  0  0  0
    4.3041   -4.3933    0.3292 C   0  0  0  0  0  0  0  0  0  0  0  0
    2.3943   -4.2734    2.0574 C   0  0  2  0  0  0  0  0  0  0  0  0
    1.9316   -3.7575    3.4235 C   0  0  0  0  0  0  0  0  0  0  0  0
    1.5492   -2.4822    3.7112 C   0  0  0  0  0  0  0  0  0  0  0  0
    1.6737   -1.3867    2.6615 C   0  0  0  0  0  0  0  0  0  0  0  0
    1.5240    0.0352    3.2126 C   0  0  0  0  0  0  0  0  0  0  0  0
    2.2419    0.2495    4.5574 C   0  0  1  0  0  0  0  0  0  0  0  0
    2.3173    1.7748    4.9990 C   0  0  1  0  0  0  0  0  0  0  0  0
    3.4092    1.9182    6.1096 C   0  0  0  0  0  0  0  0  0  0  0  0
    2.9258    2.6878    3.8819 C   0  0  0  0  0  0  0  0  0  0  0  0
    1.9750    3.5527    3.0635 C   0  0  0  0  0  0  0  0  0  0  0  0
    1.0348    4.3015    4.0005 C   0  0  1  0  0  0  0  0  0  0  0  0
    0.4027    5.3479    3.2856 O   0  0  0  0  0  0  0  0  0  0  0  0
    0.0634    3.3298    4.7324 C   0  0  1  0  0  0  0  0  0  0  0  0
   -0.7675    4.1526    5.7490 C   0  0  0  0  0  0  0  0  0  0  0  0
   -0.9351    2.6551    3.7260 C   0  0  0  0  0  0  0  0  0  0  0  0
   -1.6927    3.5466    2.9280 O   0  0  0  0  0  0  0  0  0  0  0  0
    0.9433    2.3037    5.5793 C   0  0  1  0  0  0  0  0  0  0  0  0
    0.1284    1.1785    6.2823 C   0  0  0  0  0  0  0  0  0  0  0  0
    0.9399   -0.0426    6.7688 C   0  0  0  0  0  0  0  0  0  0  0  0
    1.7549   -0.7883    5.6619 C   0  0  2  0  0  0  0  0  0  0  0  0
    3.0530   -1.3311    6.3370 C   0  0  0  0  0  0  0  0  0  0  0  0
    0.9439   -2.0573    5.0751 C   0  0  1  0  0  0  0  0  0  0  0  0
   -0.5730   -1.7791    4.8540 C   0  0  0  0  0  0  0  0  0  0  0  0
    0.9164   -3.2819    6.0698 C   0  0  0  0  0  0  0  0  0  0  0  0
    0.6352   -4.6353    5.3959 C   0  0  0  0  0  0  0  0  0  0  0  0
    1.7042   -4.9508    4.3326 C   0  0  2  0  0  0  0  0  0  0  0  0
    3.0337   -5.3789    4.9969 C   0  0  0  0  0  0  0  0  0  0  0  0
    1.2445   -6.0330    3.3444 C   0  0  0  0  0  0  0  0  0  0  0  0
    2.0740   -5.7885    2.0803 C   0  0  1  0  0  0  0  0  0  0  0  0
    1.3588   -6.2261    0.9386 O   0  0  0  0  0  0  0  0  0  0  0  0
    5.7691   -3.2736    2.2970 H   0  0  0  0  0  0  0  0  0  0  0  0
    4.4630   -3.1478    3.5890 H   0  0  0  0  0  0  0  0  0  0  0  0
    4.2010   -5.4693    0.1742 H   0  0  0  0  0  0  0  0  0  0  0  0
    5.3481   -4.1290    0.1468 H   0  0  0  0  0  0  0  0  0  0  0  0
    3.6918   -3.8849   -0.4206 H   0  0  0  0  0  0  0  0  0  0  0  0
    1.8204   -3.7717    1.2890 H   0  0  0  0  0  0  0  0  0  0  0  0
    2.6439   -1.4796    2.1727 H   0  0  0  0  0  0  0  0  0  0  0  0
    0.9182   -1.5448    1.8918 H   0  0  0  0  0  0  0  0  0  0  0  0
    1.8830    0.7192    2.4483 H   0  0  0  0  0  0  0  0  0  0  0  0
    0.4774    0.2636    3.3145 H   0  0  0  0  0  0  0  0  0  0  0  0
    3.2669   -0.0342    4.3122 H   0  0  0  0  0  0  0  0  0  0  0  0
    3.5701    2.9625    6.3809 H   0  0  0  0  0  0  0  0  0  0  0  0
    4.3715    1.5261    5.7689 H   0  0  0  0  0  0  0  0  0  0  0  0
    3.1709    1.4354    7.0504 H   0  0  0  0  0  0  0  0  0  0  0  0
    3.6388    3.4021    4.3086 H   0  0  0  0  0  0  0  0  0  0  0  0
    3.5351    2.0802    3.2223 H   0  0  0  0  0  0  0  0  0  0  0  0
    2.5726    4.2652    2.4967 H   0  0  0  0  0  0  0  0  0  0  0  0
    1.4438    2.9739    2.3149 H   0  0  0  0  0  0  0  0  0  0  0  0
    1.6470    4.8042    4.7517 H   0  0  0  0  0  0  0  0  0  0  0  0
    0.2695    5.0672    2.3763 H   0  0  0  0  0  0  0  0  0  0  0  0
   -1.4650    3.5202    6.3012 H   0  0  0  0  0  0  0  0  0  0  0  0
   -1.3475    4.9293    5.2499 H   0  0  0  0  0  0  0  0  0  0  0  0
   -0.1222    4.6465    6.4796 H   0  0  0  0  0  0  0  0  0  0  0  0
   -0.4204    2.0318    3.0063 H   0  0  0  0  0  0  0  0  0  0  0  0
   -1.6650    2.0377    4.2475 H   0  0  0  0  0  0  0  0  0  0  0  0
   -1.1294    3.8296    2.2102 H   0  0  0  0  0  0  0  0  0  0  0  0
    1.2734    2.9163    6.4237 H   0  0  0  0  0  0  0  0  0  0  0  0
   -0.3570    1.6040    7.1557 H   0  0  0  0  0  0  0  0  0  0  0  0
   -0.6872    0.8302    5.6643 H   0  0  0  0  0  0  0  0  0  0  0  0
    1.5833    0.2640    7.5945 H   0  0  0  0  0  0  0  0  0  0  0  0
    0.2709   -0.7328    7.2736 H   0  0  0  0  0  0  0  0  0  0  0  0
    2.8635   -1.7420    7.3299 H   0  0  0  0  0  0  0  0  0  0  0  0
    3.8103   -0.5706    6.4854 H   0  0  0  0  0  0  0  0  0  0  0  0
    3.5243   -2.1025    5.7259 H   0  0  0  0  0  0  0  0  0  0  0  0
   -1.1267   -1.6656    5.7854 H   0  0  0  0  0  0  0  0  0  0  0  0
   -1.0070   -2.6211    4.3280 H   0  0  0  0  0  0  0  0  0  0  0  0
   -0.8308   -0.9172    4.2568 H   0  0  0  0  0  0  0  0  0  0  0  0
    1.8479   -3.4372    6.5988 H   0  0  0  0  0  0  0  0  0  0  0  0
    0.1865   -3.1230    6.8624 H   0  0  0  0  0  0  0  0  0  0  0  0
    0.6136   -5.4309    6.1395 H   0  0  0  0  0  0  0  0  0  0  0  0
   -0.3555   -4.6298    4.9465 H   0  0  0  0  0  0  0  0  0  0  0  0
    2.8847   -6.2229    5.6703 H   0  0  0  0  0  0  0  0  0  0  0  0
    3.4759   -4.5652    5.5703 H   0  0  0  0  0  0  0  0  0  0  0  0
    3.7799   -5.6792    4.2612 H   0  0  0  0  0  0  0  0  0  0  0  0
    1.3487   -7.0433    3.7352 H   0  0  0  0  0  0  0  0  0  0  0  0
    0.1918   -5.8912    3.1103 H   0  0  0  0  0  0  0  0  0  0  0  0
    3.0014   -6.3642    2.1568 H   0  0  0  0  0  0  0  0  0  0  0  0
    1.3824   -7.1711    0.9283 H   0  0  0  0  0  0  0  0  0  0  0  0
  1  2  2  0
  1 34  1  0
  1 35  1  0
  2  3  1  0
  2  4  1  0
  3 36  1  0
  3 37  1  0
  3 38  1  0
  4 32  1  0
  4  5  1  0
  4 39  1  6
  5 29  1  0
  5  6  2  0
  6 25  1  0
  6  7  1  0
  7  8  1  0
  7 40  1  0
  7 41  1  0
  8  9  1  0
  8 42  1  0
  8 43  1  0
  9 23  1  0
  9 10  1  0
  9 44  1  6
 10 20  1  0
 10 11  1  1
 10 12  1  0
 11 45  1  0
 11 46  1  0
 11 47  1  0
 12 13  1  0
 12 48  1  0
 12 49  1  0
 13 14  1  0
 13 50  1  0
 13 51  1  0
 14 15  1  0
 14 16  1  0
 14 52  1  1
 15 53  1  0
 16 17  1  1
 16 18  1  0
 16 20  1  0
 17 54  1  0
 17 55  1  0
 17 56  1  0
 18 19  1  0
 18 57  1  0
 18 58  1  0
 19 59  1  0
 20 21  1  0
 20 60  1  1
 21 22  1  0
 21 61  1  0
 21 62  1  0
 22 23  1  0
 22 63  1  0
 22 64  1  0
 23 24  1  1
 23 25  1  0
 24 65  1  0
 24 66  1  0
 24 67  1  0
 25 26  1  6
 25 27  1  0
 26 68  1  0
 26 69  1  0
 26 70  1  0
 27 28  1  0
 27 71  1  0
 27 72  1  0
 28 29  1  0
 28 73  1  0
 28 74  1  0
 29 30  1  1
 29 31  1  0
 30 75  1  0
 30 76  1  0
 30 77  1  0
 31 32  1  0
 31 78  1  0
 31 79  1  0
 32 33  1  0
 32 80  1  1
 33 81  1  0
M  END
>  <i_m_ct_stereo_status>  (349) 
1

>  <s_m_source_file>  (349) 
/var/tmp/pbs.5076255.sched01/tmpp4327t_d/123x5hmlc3y.sdf

>  <i_m_source_file_index>  (349) 
20

>  <i_lp_mmshare_version>  (349) 
48012

>  <i_f3d_flags>  (349) 
0

>  <s_epik_input>  (349) 
W0NIMl09QyhbQ0gzXSlbQ0BIXTFbQ0BIXShbT0hdKVtDSDJdW0NAXShbQ0gzXSkoW0NIMl1bQ0gyXTIpQzE9QyhbQ0gyXVtDSDJdMylbQ0BdMihbQ0gzXSlbQ0BAXShbQ0gzXSkoW0NAQEhdM1tDQEBdNDVbQ0gzXSlbQ0gyXVtDSDJdW0NAQEhdNVtDQF0oW0NIM10pKFtDSDJdW09IXSlbQ0BIXShbT0hdKVtDSDJdW0NIMl00

>  <s_epik_cmdline>  (349) 
J2VwaWtfcHl0aG9uJywgJy1waHQnLCAnMi4wJywgJy1waCcsICc3LjAnLCAnLXRuJywgJzgnLCAnLW1hJywgJzIwMCcsICctaW1hZScsICc8aW5maWxlLm1hZT4nLCAnLW9tYWUnLCAnPG91dGZpbGUubWFlPic=

>  <r_lp_tautomer_probability>  (349) 
1

>  <r_epik_Ionization_Penalty>  (349) 
2.39032e-06

>  <r_epik_Ionization_Penalty_Charging>  (349) 
0

>  <r_epik_Ionization_Penalty_Neutral>  (349) 
2.39032e-06

>  <r_epik_State_Penalty>  (349) 
-0

>  <r_epik_Charging_Adjusted_Penalty>  (349) 
0

>  <i_epik_Tot_Q>  (349) 
0

>  <i_epik_Tot_abs_Q>  (349) 
0

>  <s_lp_Force_Field>  (349) 
OPLS3e

>  <r_lp_Energy>  (349) 
90.1505

>  <b_lp_Chiralities_Consistent>  (349) 
1

>  <s_lp_Variant>  (349) 
104:0-1

>  <s_i_glide_gridfile>  (349) 
pfpi4k_grid

>  <i_i_glide_lignum>  (349) 
20

>  <i_i_glide_rotatable_bonds>  (349) 
5

>  <r_i_docking_score>  (349) 
-2.68925

>  <r_i_glide_ligand_efficiency>  (349) 
-0.0814924

>  <r_i_glide_ligand_efficiency_sa>  (349) 
-0.26139

>  <r_i_glide_ligand_efficiency_ln>  (349) 
-0.598075

>  <r_i_glide_gscore>  (349) 
-2.68925

>  <r_i_glide_lipo>  (349) 
-0.09863

>  <r_i_glide_hbond>  (349) 
-0.110421

>  <r_i_glide_metal>  (349) 
-0

>  <r_i_glide_rewards>  (349) 
-0.295225

>  <r_i_glide_evdw>  (349) 
-19.5221

>  <r_i_glide_ecoul>  (349) 
-9.34397

>  <r_i_glide_erotb>  (349) 
0.192727

>  <r_i_glide_esite>  (349) 
0

>  <r_i_glide_emodel>  (349) 
-33.3723

>  <r_i_glide_energy>  (349) 
-28.8661

>  <r_i_glide_einternal>  (349) 
1.55766

>  <r_i_glide_intrahb_reward>  (349) 
-0

>  <i_i_glide_confnum>  (349) 
5

>  <i_i_glide_posenum>  (349) 
26

>  <r_i_glide_eff_state_penalty>  (349) 
0

>  <ligand_id>  (349) 
104

>  <original_smiles>  (349) 
C=C(C)C1C2=C3CCC4C5(C)CCC(O)C(C)(CO)C5CCC4(C)C3(C)CCC2(C)CC1O

>  <smiles>  (349) 
[H]OC([H])([H])C1(C([H])([H])[H])C([H])(O[H])C([H])([H])C([H])([H])C2(C([H])([H])[H])C1([H])C([H])([H])C([H])([H])C1(C([H])([H])[H])C2([H])C([H])([H])C([H])([H])C2=C3C([H])(C(=C([H])[H])C([H])([H])[H])C([H])(O[H])C([H])([H])C3(C([H])([H])[H])C([H])([H])C([H])([H])C21C([H])([H])[H]

$$$$
105:0:0
     RDKit          3D

 66 74  0  0  1  0  0  0  0  0999 V2000
    6.3236   -3.3509   -1.9557 C   0  0  0  0  0  0  0  0  0  0  0  0
    5.0976   -3.0767   -1.1663 N   0  0  1  0  0  0  0  0  0  0  0  0
    5.3408   -1.6980   -0.5315 C   0  0  0  0  0  0  0  0  0  0  0  0
    4.4198   -1.0870    0.6114 C   0  0  0  0  0  0  0  0  0  0  0  0
    3.5469   -1.9860    1.6023 C   0  0  1  0  0  0  0  0  0  0  0  0
    4.0066   -1.9504    3.0771 C   0  0  0  0  0  0  0  0  0  0  0  0
    3.0094   -0.8503    3.3677 C   0  0  0  0  0  0  0  0  0  0  0  0
    2.2582   -1.2726    2.1119 C   0  0  1  0  0  0  0  0  0  0  0  0
    1.7785   -0.1825    1.3534 O   0  0  0  0  0  0  0  0  0  0  0  0
    3.5214   -3.3832    0.9474 C   0  0  2  0  0  0  0  0  0  0  0  0
    2.4802   -3.1604   -0.3210 C   0  0  0  0  0  0  0  0  0  0  0  0
    2.8058   -2.4187   -1.5909 C   0  0  2  0  0  0  0  0  0  0  0  0
    1.9216   -2.6600   -2.6723 O   0  0  0  0  0  0  0  0  0  0  0  0
    2.6086   -2.2882   -3.8674 C   0  0  0  0  0  0  0  0  0  0  0  0
    4.0921   -2.3696   -3.4890 C   0  0  0  0  0  0  0  0  0  0  0  0
    3.9852   -3.0937   -2.1422 C   0  0  1  0  0  0  0  0  0  0  0  0
    2.6133   -4.6663    1.2262 C   0  0  2  0  0  0  0  0  0  0  0  0
    2.5283   -6.2529    1.6757 C   0  0  0  0  0  0  0  0  0  0  0  0
    3.7202   -6.6295    2.5833 C   0  0  1  0  0  0  0  0  0  0  0  0
    4.7211   -7.7774    2.6252 C   0  0  0  0  0  0  0  0  0  0  0  0
    5.1736   -8.5040    1.5042 C   0  0  0  0  0  0  0  0  0  0  0  0
    6.5718   -8.6026    1.2938 C   0  0  0  0  0  0  0  0  0  0  0  0
    7.4283   -7.7400    2.0189 C   0  0  0  0  0  0  0  0  0  0  0  0
    6.8532   -6.9559    3.0500 C   0  0  0  0  0  0  0  0  0  0  0  0
    5.6815   -7.4559    3.6231 C   0  0  0  0  0  0  0  0  0  0  0  0
    6.8359   -5.4275    2.8635 C   0  0  0  0  0  0  0  0  0  0  0  0
    5.8177   -5.1651    1.7059 C   0  0  1  0  0  0  0  0  0  0  0  0
    4.4565   -5.4866    1.9965 C   0  0  1  0  0  0  0  0  0  0  0  0
    3.9420   -5.1386    0.5398 C   0  0  2  0  0  0  0  0  0  0  0  0
    5.0681   -4.3044   -0.1322 N   0  0  0  0  0  0  0  0  0  0  0  0
    5.1825   -3.7977    1.1181 C   0  0  1  0  0  0  0  0  0  0  0  0
    6.5838   -2.5414   -2.6526 H   0  0  0  0  0  0  0  0  0  0  0  0
    6.1234   -4.2501   -2.5481 H   0  0  0  0  0  0  0  0  0  0  0  0
    7.1684   -3.5228   -1.2741 H   0  0  0  0  0  0  0  0  0  0  0  0
    6.3684   -1.6563   -0.1621 H   0  0  0  0  0  0  0  0  0  0  0  0
    5.3532   -0.9582   -1.3318 H   0  0  0  0  0  0  0  0  0  0  0  0
    5.0947   -0.4752    1.2102 H   0  0  0  0  0  0  0  0  0  0  0  0
    3.8253   -0.3176    0.1159 H   0  0  0  0  0  0  0  0  0  0  0  0
    3.7657   -2.8469    3.6422 H   0  0  0  0  0  0  0  0  0  0  0  0
    5.0487   -1.6706    3.2142 H   0  0  0  0  0  0  0  0  0  0  0  0
    2.4546   -0.9799    4.2950 H   0  0  0  0  0  0  0  0  0  0  0  0
    3.4436    0.1454    3.2864 H   0  0  0  0  0  0  0  0  0  0  0  0
    1.4442   -1.9715    2.3506 H   0  0  0  0  0  0  0  0  0  0  0  0
    1.3477   -0.5277    0.5583 H   0  0  0  0  0  0  0  0  0  0  0  0
    2.0666   -4.0769   -0.7680 H   0  0  0  0  0  0  0  0  0  0  0  0
    1.6023   -2.6756    0.0815 H   0  0  0  0  0  0  0  0  0  0  0  0
    2.9318   -1.3453   -1.4724 H   0  0  0  0  0  0  0  0  0  0  0  0
    2.3366   -3.0163   -4.6290 H   0  0  0  0  0  0  0  0  0  0  0  0
    2.3399   -1.2928   -4.2321 H   0  0  0  0  0  0  0  0  0  0  0  0
    4.6574   -2.9394   -4.2205 H   0  0  0  0  0  0  0  0  0  0  0  0
    4.5195   -1.3679   -3.3918 H   0  0  0  0  0  0  0  0  0  0  0  0
    3.7447   -4.1362   -2.3446 H   0  0  0  0  0  0  0  0  0  0  0  0
    2.4121   -4.2926    2.2357 H   0  0  0  0  0  0  0  0  0  0  0  0
    1.6121   -6.4195    2.2439 H   0  0  0  0  0  0  0  0  0  0  0  0
    2.4098   -6.9761    0.8654 H   0  0  0  0  0  0  0  0  0  0  0  0
    3.3863   -6.4424    3.6070 H   0  0  0  0  0  0  0  0  0  0  0  0
    4.4871   -8.8478    0.7402 H   0  0  0  0  0  0  0  0  0  0  0  0
    6.9732   -9.1378    0.4457 H   0  0  0  0  0  0  0  0  0  0  0  0
    8.4042   -7.5079    1.6208 H   0  0  0  0  0  0  0  0  0  0  0  0
    5.3093   -6.8766    4.4521 H   0  0  0  0  0  0  0  0  0  0  0  0
    6.5522   -4.9509    3.8030 H   0  0  0  0  0  0  0  0  0  0  0  0
    7.8302   -5.0797    2.5793 H   0  0  0  0  0  0  0  0  0  0  0  0
    6.2233   -5.8199    0.9237 H   0  0  0  0  0  0  0  0  0  0  0  0
    4.2796   -4.7905    2.8367 H   0  0  0  0  0  0  0  0  0  0  0  0
    3.8268   -5.9968   -0.1298 H   0  0  0  0  0  0  0  0  0  0  0  0
    5.9090   -3.0134    1.3041 H   0  0  0  0  0  0  0  0  0  0  0  0
  2  1  1  6
  1 32  1  0
  1 33  1  0
  1 34  1  0
  2 16  1  0
  2 30  1  0
  2  3  1  0
  3  4  1  0
  3 35  1  0
  3 36  1  0
  5  4  1  6
  4 37  1  0
  4 38  1  0
  5  8  1  0
  5  6  1  0
  5 10  1  0
  6  7  1  0
  6 39  1  0
  6 40  1  0
  7  8  1  0
  7 41  1  0
  7 42  1  0
  8  9  1  0
  8 43  1  1
  9 44  1  0
 10 31  1  0
 10 11  1  6
 10 17  1  0
 11 12  1  0
 11 45  1  0
 11 46  1  0
 12 16  1  0
 12 13  1  0
 12 47  1  1
 13 14  1  0
 14 15  1  0
 14 48  1  0
 14 49  1  0
 15 16  1  0
 15 50  1  0
 15 51  1  0
 16 52  1  6
 17 29  1  0
 17 18  1  0
 17 53  1  6
 18 19  1  0
 18 54  1  0
 18 55  1  0
 19 28  1  0
 19 20  1  0
 19 56  1  1
 20 25  2  0
 20 21  1  0
 21 22  2  0
 21 57  1  0
 22 23  1  0
 22 58  1  0
 23 24  2  0
 23 59  1  0
 24 25  1  0
 24 26  1  0
 25 60  1  0
 26 27  1  0
 26 61  1  0
 26 62  1  0
 27 31  1  0
 27 28  1  0
 27 63  1  6
 28 29  1  0
 28 64  1  1
 29 30  1  0
 29 65  1  6
 30 31  1  0
 31 66  1  6
M  CHG  1   2   1
M  END
>  <i_m_ct_stereo_status>  (350) 
1

>  <s_m_source_file>  (350) 
/var/tmp/pbs.5076255.sched01/tmpp4327t_d/123x5hmlc3y.sdf

>  <i_m_source_file_index>  (350) 
21

>  <i_lp_mmshare_version>  (350) 
48012

>  <i_f3d_flags>  (350) 
0

>  <s_epik_input>  (350) 
W0NIMl0xW0NIMl1PW0NAQEhdKFtDSDJdMilbQ0BASF0xW05AQCtdKFtDSDNdKShbQ0gyXVtDSDJdMylONFtDQEBIXTVbQ0BIXTZbQ0gyXWMoW2NIXTcpW2NIXVtjSF1bY0hdYzdbQ0BIXShbQ0gyXTgpW0NAQEhdNltDQEhdNFtDQEhdOFtDQF0yNVtDQEBdMzlbQ0gyXVtDSDJdW0NASF05W09IXQ==

>  <s_epik_cmdline>  (350) 
J2VwaWtfcHl0aG9uJywgJy1waHQnLCAnMi4wJywgJy1waCcsICc3LjAnLCAnLXRuJywgJzgnLCAnLW1hJywgJzIwMCcsICctaW1hZScsICc8aW5maWxlLm1hZT4nLCAnLW9tYWUnLCAnPG91dGZpbGUubWFlPic=

>  <r_lp_tautomer_probability>  (350) 
1

>  <r_epik_Ionization_Penalty>  (350) 
5.56343e-07

>  <r_epik_Ionization_Penalty_Charging>  (350) 
0

>  <r_epik_Ionization_Penalty_Neutral>  (350) 
5.56343e-07

>  <r_epik_State_Penalty>  (350) 
-0

>  <r_epik_Charging_Adjusted_Penalty>  (350) 
0

>  <i_epik_Tot_Q>  (350) 
1

>  <i_epik_Tot_abs_Q>  (350) 
1

>  <s_lp_Force_Field>  (350) 
OPLS3e

>  <r_lp_Energy>  (350) 
495.172

>  <b_lp_Chiralities_Consistent>  (350) 
1

>  <s_lp_Variant>  (350) 
105:0-1

>  <s_i_glide_gridfile>  (350) 
pfpi4k_grid

>  <i_i_glide_lignum>  (350) 
21

>  <i_i_glide_rotatable_bonds>  (350) 
1

>  <r_i_docking_score>  (350) 
-3.60262

>  <r_i_glide_ligand_efficiency>  (350) 
-0.116214

>  <r_i_glide_ligand_efficiency_sa>  (350) 
-0.365071

>  <r_i_glide_ligand_efficiency_ln>  (350) 
-0.812501

>  <r_i_glide_gscore>  (350) 
-3.60262

>  <r_i_glide_lipo>  (350) 
-0.896358

>  <r_i_glide_hbond>  (350) 
-0.16

>  <r_i_glide_metal>  (350) 
-0

>  <r_i_glide_rewards>  (350) 
-0.548325

>  <r_i_glide_evdw>  (350) 
-20.6029

>  <r_i_glide_ecoul>  (350) 
-6.45192

>  <r_i_glide_erotb>  (350) 
0

>  <r_i_glide_esite>  (350) 
0

>  <r_i_glide_emodel>  (350) 
-32.5442

>  <r_i_glide_energy>  (350) 
-27.0549

>  <r_i_glide_einternal>  (350) 
1.02927

>  <r_i_glide_intrahb_reward>  (350) 
-0

>  <i_i_glide_confnum>  (350) 
4

>  <i_i_glide_posenum>  (350) 
28

>  <r_i_glide_eff_state_penalty>  (350) 
0

>  <ligand_id>  (350) 
105

>  <original_smiles>  (350) 
C[N+]12CCC3(CCC3O)C3(CC4OCCC41)C1CC4c5cccc(c5)CC5C4C1N2C53

>  <smiles>  (350) 
[H]OC1([H])C([H])([H])C([H])([H])C12C([H])([H])C([H])([H])[N+]1(C([H])([H])[H])N3C4([H])C5([H])C6([H])c7c([H])c([H])c([H])c(c7[H])C([H])([H])C5([H])C3([H])C2(C([H])([H])C2([H])OC([H])([H])C([H])([H])C21[H])C4([H])C6([H])[H]

$$$$
105:0:1
     RDKit          3D

 66 74  0  0  1  0  0  0  0  0999 V2000
    1.2793    1.4399    1.8194 C   0  0  0  0  0  0  0  0  0  0  0  0
    1.6345    0.4294    2.8501 N   0  0  1  0  0  0  0  0  0  0  0  0
    2.4505    1.1840    3.9131 C   0  0  0  0  0  0  0  0  0  0  0  0
    3.2874    0.4416    5.0676 C   0  0  0  0  0  0  0  0  0  0  0  0
    3.8187   -1.0595    4.9361 C   0  0  1  0  0  0  0  0  0  0  0  0
    5.3558   -1.1778    4.8617 C   0  0  0  0  0  0  0  0  0  0  0  0
    5.4114   -1.4160    6.3572 C   0  0  0  0  0  0  0  0  0  0  0  0
    3.9431   -1.8405    6.2867 C   0  0  1  0  0  0  0  0  0  0  0  0
    3.1466   -1.4319    7.3858 O   0  0  0  0  0  0  0  0  0  0  0  0
    3.0563   -1.6412    3.7320 C   0  0  2  0  0  0  0  0  0  0  0  0
    1.5477   -1.8989    4.3797 C   0  0  0  0  0  0  0  0  0  0  0  0
    0.5783   -0.7938    4.6918 C   0  0  2  0  0  0  0  0  0  0  0  0
   -0.7378   -1.1968    5.0305 O   0  0  0  0  0  0  0  0  0  0  0  0
   -1.6123   -0.1183    4.6872 C   0  0  0  0  0  0  0  0  0  0  0  0
   -0.7907    0.8187    3.7842 C   0  0  0  0  0  0  0  0  0  0  0  0
    0.3572   -0.1109    3.3883 C   0  0  1  0  0  0  0  0  0  0  0  0
    2.8807   -3.1423    3.2039 C   0  0  2  0  0  0  0  0  0  0  0  0
    3.1022   -4.2357    1.9879 C   0  0  0  0  0  0  0  0  0  0  0  0
    4.3113   -3.8447    1.1118 C   0  0  1  0  0  0  0  0  0  0  0  0
    4.5740   -3.7375   -0.3874 C   0  0  0  0  0  0  0  0  0  0  0  0
    3.5839   -3.4180   -1.3482 C   0  0  0  0  0  0  0  0  0  0  0  0
    3.8311   -2.3256   -2.2210 C   0  0  0  0  0  0  0  0  0  0  0  0
    4.9072   -1.4522   -1.9207 C   0  0  0  0  0  0  0  0  0  0  0  0
    5.7679   -1.7940   -0.8531 C   0  0  0  0  0  0  0  0  0  0  0  0
    5.8562   -3.1655   -0.5569 C   0  0  0  0  0  0  0  0  0  0  0  0
    5.7552   -0.8966    0.4048 C   0  0  0  0  0  0  0  0  0  0  0  0
    4.3538   -1.1396    1.0593 C   0  0  1  0  0  0  0  0  0  0  0  0
    4.1338   -2.4527    1.5783 C   0  0  1  0  0  0  0  0  0  0  0  0
    2.6327   -2.1648    2.0028 C   0  0  2  0  0  0  0  0  0  0  0  0
    2.4731   -0.6245    1.9879 N   0  0  0  0  0  0  0  0  0  0  0  0
    3.7319   -0.6684    2.4814 C   0  0  1  0  0  0  0  0  0  0  0  0
    0.7638    2.3107    2.2370 H   0  0  0  0  0  0  0  0  0  0  0  0
    0.6469    0.9810    1.0517 H   0  0  0  0  0  0  0  0  0  0  0  0
    2.1914    1.7963    1.3284 H   0  0  0  0  0  0  0  0  0  0  0  0
    3.1464    1.8686    3.4121 H   0  0  0  0  0  0  0  0  0  0  0  0
    1.7886    1.8810    4.4246 H   0  0  0  0  0  0  0  0  0  0  0  0
    4.1431    1.0936    5.2501 H   0  0  0  0  0  0  0  0  0  0  0  0
    2.7252    0.5834    5.9891 H   0  0  0  0  0  0  0  0  0  0  0  0
    5.7067   -2.0488    4.3129 H   0  0  0  0  0  0  0  0  0  0  0  0
    5.8651   -0.2769    4.5197 H   0  0  0  0  0  0  0  0  0  0  0  0
    6.0927   -2.2140    6.6481 H   0  0  0  0  0  0  0  0  0  0  0  0
    5.5877   -0.4993    6.9188 H   0  0  0  0  0  0  0  0  0  0  0  0
    3.8464   -2.9222    6.1468 H   0  0  0  0  0  0  0  0  0  0  0  0
    2.2518   -1.3576    7.0965 H   0  0  0  0  0  0  0  0  0  0  0  0
    0.8855   -2.5490    3.7868 H   0  0  0  0  0  0  0  0  0  0  0  0
    1.6535   -2.4825    5.2938 H   0  0  0  0  0  0  0  0  0  0  0  0
    0.8786   -0.1483    5.5076 H   0  0  0  0  0  0  0  0  0  0  0  0
   -2.4741   -0.5327    4.1676 H   0  0  0  0  0  0  0  0  0  0  0  0
   -1.9780    0.3984    5.5750 H   0  0  0  0  0  0  0  0  0  0  0  0
   -1.3572    1.1837    2.9269 H   0  0  0  0  0  0  0  0  0  0  0  0
   -0.4506    1.6830    4.3597 H   0  0  0  0  0  0  0  0  0  0  0  0
   -0.0230   -0.8132    2.6530 H   0  0  0  0  0  0  0  0  0  0  0  0
    3.8001   -3.4215    3.7276 H   0  0  0  0  0  0  0  0  0  0  0  0
    3.3114   -5.2124    2.4261 H   0  0  0  0  0  0  0  0  0  0  0  0
    2.2201   -4.4522    1.3807 H   0  0  0  0  0  0  0  0  0  0  0  0
    5.1800   -4.3385    1.5571 H   0  0  0  0  0  0  0  0  0  0  0  0
    2.6077   -3.8738   -1.3285 H   0  0  0  0  0  0  0  0  0  0  0  0
    3.0804   -2.0259   -2.9338 H   0  0  0  0  0  0  0  0  0  0  0  0
    4.8671   -0.4427   -2.3084 H   0  0  0  0  0  0  0  0  0  0  0  0
    6.5707   -3.4033    0.2170 H   0  0  0  0  0  0  0  0  0  0  0  0
    6.5875   -1.1392    1.0687 H   0  0  0  0  0  0  0  0  0  0  0  0
    5.8617    0.1464    0.1067 H   0  0  0  0  0  0  0  0  0  0  0  0
    3.6895   -0.9318    0.2121 H   0  0  0  0  0  0  0  0  0  0  0  0
    4.9361   -2.4825    2.3365 H   0  0  0  0  0  0  0  0  0  0  0  0
    1.8799   -2.4958    1.2812 H   0  0  0  0  0  0  0  0  0  0  0  0
    4.2273    0.2652    2.7344 H   0  0  0  0  0  0  0  0  0  0  0  0
  2  1  1  6
  1 32  1  0
  1 33  1  0
  1 34  1  0
  2 16  1  0
  2 30  1  0
  2  3  1  0
  3  4  1  0
  3 35  1  0
  3 36  1  0
  5  4  1  1
  4 37  1  0
  4 38  1  0
  5  8  1  0
  5  6  1  0
  5 10  1  0
  6  7  1  0
  6 39  1  0
  6 40  1  0
  7  8  1  0
  7 41  1  0
  7 42  1  0
  8  9  1  0
  8 43  1  6
  9 44  1  0
 10 31  1  0
 10 11  1  1
 10 17  1  0
 11 12  1  0
 11 45  1  0
 11 46  1  0
 12 16  1  0
 12 13  1  0
 12 47  1  1
 13 14  1  0
 14 15  1  0
 14 48  1  0
 14 49  1  0
 15 16  1  0
 15 50  1  0
 15 51  1  0
 16 52  1  6
 17 29  1  0
 17 18  1  0
 17 53  1  1
 18 19  1  0
 18 54  1  0
 18 55  1  0
 19 28  1  0
 19 20  1  0
 19 56  1  1
 20 25  2  0
 20 21  1  0
 21 22  2  0
 21 57  1  0
 22 23  1  0
 22 58  1  0
 23 24  2  0
 23 59  1  0
 24 25  1  0
 24 26  1  0
 25 60  1  0
 26 27  1  0
 26 61  1  0
 26 62  1  0
 27 31  1  0
 27 28  1  0
 27 63  1  6
 28 29  1  0
 28 64  1  1
 29 30  1  0
 29 65  1  6
 30 31  1  0
 31 66  1  1
M  CHG  1   2   1
M  END
>  <i_m_ct_stereo_status>  (351) 
1

>  <s_m_source_file>  (351) 
/var/tmp/pbs.5076255.sched01/tmpp4327t_d/123x5hmlc3y.sdf

>  <i_m_source_file_index>  (351) 
21

>  <i_lp_mmshare_version>  (351) 
48012

>  <i_f3d_flags>  (351) 
0

>  <s_epik_input>  (351) 
W0NIMl0xW0NIMl1PW0NAQEhdKFtDSDJdMilbQ0BASF0xW05AQCtdKFtDSDNdKShbQ0gyXVtDSDJdMylONFtDQEBIXTVbQ0BIXTZbQ0gyXWMoW2NIXTcpW2NIXVtjSF1bY0hdYzdbQ0BIXShbQ0gyXTgpW0NAQEhdNltDQEhdNFtDQEhdOFtDQF0yNVtDQEBdMzlbQ0gyXVtDSDJdW0NASF05W09IXQ==

>  <s_epik_cmdline>  (351) 
J2VwaWtfcHl0aG9uJywgJy1waHQnLCAnMi4wJywgJy1waCcsICc3LjAnLCAnLXRuJywgJzgnLCAnLW1hJywgJzIwMCcsICctaW1hZScsICc8aW5maWxlLm1hZT4nLCAnLW9tYWUnLCAnPG91dGZpbGUubWFlPic=

>  <r_lp_tautomer_probability>  (351) 
1

>  <r_epik_Ionization_Penalty>  (351) 
5.56343e-07

>  <r_epik_Ionization_Penalty_Charging>  (351) 
0

>  <r_epik_Ionization_Penalty_Neutral>  (351) 
5.56343e-07

>  <r_epik_State_Penalty>  (351) 
-0

>  <r_epik_Charging_Adjusted_Penalty>  (351) 
0

>  <i_epik_Tot_Q>  (351) 
1

>  <i_epik_Tot_abs_Q>  (351) 
1

>  <s_lp_Force_Field>  (351) 
OPLS3e

>  <r_lp_Energy>  (351) 
495.172

>  <b_lp_Chiralities_Consistent>  (351) 
1

>  <s_lp_Variant>  (351) 
105:0-1

>  <s_i_glide_gridfile>  (351) 
pfpi4k_grid

>  <i_i_glide_lignum>  (351) 
21

>  <i_i_glide_rotatable_bonds>  (351) 
1

>  <r_i_docking_score>  (351) 
-2.69238

>  <r_i_glide_ligand_efficiency>  (351) 
-0.0868508

>  <r_i_glide_ligand_efficiency_sa>  (351) 
-0.272831

>  <r_i_glide_ligand_efficiency_ln>  (351) 
-0.607213

>  <r_i_glide_gscore>  (351) 
-2.69238

>  <r_i_glide_lipo>  (351) 
-0.339075

>  <r_i_glide_hbond>  (351) 
0

>  <r_i_glide_metal>  (351) 
-0

>  <r_i_glide_rewards>  (351) 
-0.548325

>  <r_i_glide_evdw>  (351) 
-24.5022

>  <r_i_glide_ecoul>  (351) 
-3.74356

>  <r_i_glide_erotb>  (351) 
0

>  <r_i_glide_esite>  (351) 
-0.0183327

>  <r_i_glide_emodel>  (351) 
-32.5782

>  <r_i_glide_energy>  (351) 
-28.2457

>  <r_i_glide_einternal>  (351) 
1.00896

>  <r_i_glide_intrahb_reward>  (351) 
-0

>  <i_i_glide_confnum>  (351) 
2

>  <i_i_glide_posenum>  (351) 
5

>  <r_i_glide_eff_state_penalty>  (351) 
0

>  <ligand_id>  (351) 
105

>  <original_smiles>  (351) 
C[N+]12CCC3(CCC3O)C3(CC4OCCC41)C1CC4c5cccc(c5)CC5C4C1N2C53

>  <smiles>  (351) 
[H]OC1([H])C([H])([H])C([H])([H])C12C([H])([H])C([H])([H])[N+]1(C([H])([H])[H])N3C4([H])C5([H])C6([H])c7c([H])c([H])c([H])c(c7[H])C([H])([H])C5([H])C3([H])C2(C([H])([H])C2([H])OC([H])([H])C([H])([H])C21[H])C4([H])C6([H])[H]

$$$$
105:0:2
     RDKit          3D

 66 74  0  0  1  0  0  0  0  0999 V2000
    1.2119    1.5598    1.9107 C   0  0  0  0  0  0  0  0  0  0  0  0
    1.5568    0.4907    2.8789 N   0  0  1  0  0  0  0  0  0  0  0  0
    2.4340    1.1770    3.9322 C   0  0  0  0  0  0  0  0  0  0  0  0
    3.2774    0.3629    5.0245 C   0  0  0  0  0  0  0  0  0  0  0  0
    3.7431   -1.1585    4.8271 C   0  0  1  0  0  0  0  0  0  0  0  0
    5.2757   -1.3437    4.7034 C   0  0  0  0  0  0  0  0  0  0  0  0
    5.3768   -1.6454    6.1856 C   0  0  0  0  0  0  0  0  0  0  0  0
    3.8853   -1.9758    6.1563 C   0  0  1  0  0  0  0  0  0  0  0  0
    3.1381   -1.5746    7.2843 O   0  0  0  0  0  0  0  0  0  0  0  0
    2.9117   -1.6586    3.6331 C   0  0  2  0  0  0  0  0  0  0  0  0
    1.4172   -1.8778    4.3234 C   0  0  0  0  0  0  0  0  0  0  0  0
    0.5065   -0.7490    4.7080 C   0  0  2  0  0  0  0  0  0  0  0  0
   -0.8144   -1.1075    5.0749 O   0  0  0  0  0  0  0  0  0  0  0  0
   -1.6482    0.0237    4.8089 C   0  0  0  0  0  0  0  0  0  0  0  0
   -0.8156    0.9538    3.9075 C   0  0  0  0  0  0  0  0  0  0  0  0
    0.2710   -0.0137    3.4376 C   0  0  1  0  0  0  0  0  0  0  0  0
    2.6570   -3.1294    3.0639 C   0  0  2  0  0  0  0  0  0  0  0  0
    2.7903   -4.1810    1.8014 C   0  0  0  0  0  0  0  0  0  0  0  0
    3.9886   -3.8065    0.9024 C   0  0  1  0  0  0  0  0  0  0  0  0
    4.2024   -3.6517   -0.6024 C   0  0  0  0  0  0  0  0  0  0  0  0
    3.2016   -3.2521   -1.5169 C   0  0  0  0  0  0  0  0  0  0  0  0
    3.4708   -2.1420   -2.3623 C   0  0  0  0  0  0  0  0  0  0  0  0
    4.5956   -1.3261   -2.0632 C   0  0  0  0  0  0  0  0  0  0  0  0
    5.4668   -1.7456   -1.0334 C   0  0  0  0  0  0  0  0  0  0  0  0
    5.5067   -3.1304   -0.7935 C   0  0  0  0  0  0  0  0  0  0  0  0
    5.5338   -0.9032    0.2624 C   0  0  0  0  0  0  0  0  0  0  0  0
    4.1443   -1.1111    0.9448 C   0  0  1  0  0  0  0  0  0  0  0  0
    3.8851   -2.4293    1.4256 C   0  0  1  0  0  0  0  0  0  0  0  0
    2.4150   -2.0936    1.9077 C   0  0  2  0  0  0  0  0  0  0  0  0
    2.3195   -0.5517    1.9444 N   0  0  0  0  0  0  0  0  0  0  0  0
    3.5893   -0.6664    2.3970 C   0  0  1  0  0  0  0  0  0  0  0  0
    0.7530    2.4380    2.3716 H   0  0  0  0  0  0  0  0  0  0  0  0
    0.5415    1.1670    1.1448 H   0  0  0  0  0  0  0  0  0  0  0  0
    2.1205    1.8997    1.4061 H   0  0  0  0  0  0  0  0  0  0  0  0
    3.1450    1.8525    3.4416 H   0  0  0  0  0  0  0  0  0  0  0  0
    1.8247    1.8797    4.4990 H   0  0  0  0  0  0  0  0  0  0  0  0
    4.1634    0.9725    5.2113 H   0  0  0  0  0  0  0  0  0  0  0  0
    2.7350    0.5170    5.9562 H   0  0  0  0  0  0  0  0  0  0  0  0
    5.5701   -2.2106    4.1178 H   0  0  0  0  0  0  0  0  0  0  0  0
    5.8145   -0.4536    4.3770 H   0  0  0  0  0  0  0  0  0  0  0  0
    6.0173   -2.4922    6.4248 H   0  0  0  0  0  0  0  0  0  0  0  0
    5.6193   -0.7632    6.7750 H   0  0  0  0  0  0  0  0  0  0  0  0
    3.7248   -3.0478    5.9985 H   0  0  0  0  0  0  0  0  0  0  0  0
    3.3340   -0.6526    7.4235 H   0  0  0  0  0  0  0  0  0  0  0  0
    0.7123   -2.4780    3.7289 H   0  0  0  0  0  0  0  0  0  0  0  0
    1.5304   -2.4956    5.2133 H   0  0  0  0  0  0  0  0  0  0  0  0
    0.8588   -0.1464    5.5346 H   0  0  0  0  0  0  0  0  0  0  0  0
   -2.5530   -0.3293    4.3201 H   0  0  0  0  0  0  0  0  0  0  0  0
   -1.9570    0.5220    5.7278 H   0  0  0  0  0  0  0  0  0  0  0  0
   -1.3944    1.3777    3.0860 H   0  0  0  0  0  0  0  0  0  0  0  0
   -0.4165    1.7794    4.5019 H   0  0  0  0  0  0  0  0  0  0  0  0
   -0.1745   -0.6676    2.6955 H   0  0  0  0  0  0  0  0  0  0  0  0
    3.5799   -3.4675    3.5447 H   0  0  0  0  0  0  0  0  0  0  0  0
    2.9694   -5.1840    2.1894 H   0  0  0  0  0  0  0  0  0  0  0  0
    1.8851   -4.3401    1.2122 H   0  0  0  0  0  0  0  0  0  0  0  0
    4.8481   -4.3569    1.2978 H   0  0  0  0  0  0  0  0  0  0  0  0
    2.2041   -3.6688   -1.4847 H   0  0  0  0  0  0  0  0  0  0  0  0
    2.7104   -1.7844   -3.0376 H   0  0  0  0  0  0  0  0  0  0  0  0
    4.5853   -0.3012   -2.4139 H   0  0  0  0  0  0  0  0  0  0  0  0
    6.2316   -3.4336   -0.0541 H   0  0  0  0  0  0  0  0  0  0  0  0
    6.3739   -1.2149    0.8868 H   0  0  0  0  0  0  0  0  0  0  0  0
    5.6795    0.1377    0.0245 H   0  0  0  0  0  0  0  0  0  0  0  0
    3.4616   -0.8454    0.1287 H   0  0  0  0  0  0  0  0  0  0  0  0
    4.7088   -2.5220    2.1544 H   0  0  0  0  0  0  0  0  0  0  0  0
    1.6324   -2.3656    1.1973 H   0  0  0  0  0  0  0  0  0  0  0  0
    4.1370    0.2336    2.6711 H   0  0  0  0  0  0  0  0  0  0  0  0
  2  1  1  6
  1 32  1  0
  1 33  1  0
  1 34  1  0
  2 16  1  0
  2 30  1  0
  2  3  1  0
  3  4  1  0
  3 35  1  0
  3 36  1  0
  5  4  1  1
  4 37  1  0
  4 38  1  0
  5  8  1  0
  5  6  1  0
  5 10  1  0
  6  7  1  0
  6 39  1  0
  6 40  1  0
  7  8  1  0
  7 41  1  0
  7 42  1  0
  8  9  1  0
  8 43  1  6
  9 44  1  0
 10 31  1  0
 10 11  1  1
 10 17  1  0
 11 12  1  0
 11 45  1  0
 11 46  1  0
 12 16  1  0
 12 13  1  0
 12 47  1  1
 13 14  1  0
 14 15  1  0
 14 48  1  0
 14 49  1  0
 15 16  1  0
 15 50  1  0
 15 51  1  0
 16 52  1  6
 17 29  1  0
 17 18  1  0
 17 53  1  1
 18 19  1  0
 18 54  1  0
 18 55  1  0
 19 28  1  0
 19 20  1  0
 19 56  1  1
 20 25  2  0
 20 21  1  0
 21 22  2  0
 21 57  1  0
 22 23  1  0
 22 58  1  0
 23 24  2  0
 23 59  1  0
 24 25  1  0
 24 26  1  0
 25 60  1  0
 26 27  1  0
 26 61  1  0
 26 62  1  0
 27 31  1  0
 27 28  1  0
 27 63  1  6
 28 29  1  0
 28 64  1  1
 29 30  1  0
 29 65  1  6
 30 31  1  0
 31 66  1  1
M  CHG  1   2   1
M  END
>  <i_m_ct_stereo_status>  (352) 
1

>  <s_m_source_file>  (352) 
/var/tmp/pbs.5076255.sched01/tmpp4327t_d/123x5hmlc3y.sdf

>  <i_m_source_file_index>  (352) 
21

>  <i_lp_mmshare_version>  (352) 
48012

>  <i_f3d_flags>  (352) 
0

>  <s_epik_input>  (352) 
W0NIMl0xW0NIMl1PW0NAQEhdKFtDSDJdMilbQ0BASF0xW05AQCtdKFtDSDNdKShbQ0gyXVtDSDJdMylONFtDQEBIXTVbQ0BIXTZbQ0gyXWMoW2NIXTcpW2NIXVtjSF1bY0hdYzdbQ0BIXShbQ0gyXTgpW0NAQEhdNltDQEhdNFtDQEhdOFtDQF0yNVtDQEBdMzlbQ0gyXVtDSDJdW0NASF05W09IXQ==

>  <s_epik_cmdline>  (352) 
J2VwaWtfcHl0aG9uJywgJy1waHQnLCAnMi4wJywgJy1waCcsICc3LjAnLCAnLXRuJywgJzgnLCAnLW1hJywgJzIwMCcsICctaW1hZScsICc8aW5maWxlLm1hZT4nLCAnLW9tYWUnLCAnPG91dGZpbGUubWFlPic=

>  <r_lp_tautomer_probability>  (352) 
1

>  <r_epik_Ionization_Penalty>  (352) 
5.56343e-07

>  <r_epik_Ionization_Penalty_Charging>  (352) 
0

>  <r_epik_Ionization_Penalty_Neutral>  (352) 
5.56343e-07

>  <r_epik_State_Penalty>  (352) 
-0

>  <r_epik_Charging_Adjusted_Penalty>  (352) 
0

>  <i_epik_Tot_Q>  (352) 
1

>  <i_epik_Tot_abs_Q>  (352) 
1

>  <s_lp_Force_Field>  (352) 
OPLS3e

>  <r_lp_Energy>  (352) 
495.172

>  <b_lp_Chiralities_Consistent>  (352) 
1

>  <s_lp_Variant>  (352) 
105:0-1

>  <s_i_glide_gridfile>  (352) 
pfpi4k_grid

>  <i_i_glide_lignum>  (352) 
21

>  <i_i_glide_rotatable_bonds>  (352) 
1

>  <r_i_docking_score>  (352) 
-2.62841

>  <r_i_glide_ligand_efficiency>  (352) 
-0.0847874

>  <r_i_glide_ligand_efficiency_sa>  (352) 
-0.266349

>  <r_i_glide_ligand_efficiency_ln>  (352) 
-0.592787

>  <r_i_glide_gscore>  (352) 
-2.62841

>  <r_i_glide_lipo>  (352) 
-0.292279

>  <r_i_glide_hbond>  (352) 
0

>  <r_i_glide_metal>  (352) 
-0

>  <r_i_glide_rewards>  (352) 
-0.548325

>  <r_i_glide_evdw>  (352) 
-24.9832

>  <r_i_glide_ecoul>  (352) 
-3.46694

>  <r_i_glide_erotb>  (352) 
0

>  <r_i_glide_esite>  (352) 
-0.0186027

>  <r_i_glide_emodel>  (352) 
-33.0431

>  <r_i_glide_energy>  (352) 
-28.4501

>  <r_i_glide_einternal>  (352) 
0.00316381

>  <r_i_glide_intrahb_reward>  (352) 
-0

>  <i_i_glide_confnum>  (352) 
2

>  <i_i_glide_posenum>  (352) 
16

>  <r_i_glide_eff_state_penalty>  (352) 
0

>  <ligand_id>  (352) 
105

>  <original_smiles>  (352) 
C[N+]12CCC3(CCC3O)C3(CC4OCCC41)C1CC4c5cccc(c5)CC5C4C1N2C53

>  <smiles>  (352) 
[H]OC1([H])C([H])([H])C([H])([H])C12C([H])([H])C([H])([H])[N+]1(C([H])([H])[H])N3C4([H])C5([H])C6([H])c7c([H])c([H])c([H])c(c7[H])C([H])([H])C5([H])C3([H])C2(C([H])([H])C2([H])OC([H])([H])C([H])([H])C21[H])C4([H])C6([H])[H]

$$$$
106:0:0
     RDKit          3D

 83 87  0  0  1  0  0  0  0  0999 V2000
   -1.8719   -9.1061    2.5202 C   0  0  0  0  0  0  0  0  0  0  0  0
   -0.3448   -8.9907    2.6339 C   0  0  2  0  0  0  0  0  0  0  0  0
    0.2982  -10.3777    2.8035 C   0  0  0  0  0  0  0  0  0  0  0  0
    1.8283  -10.2807    2.9122 C   0  0  0  0  0  0  0  0  0  0  0  0
    2.2978   -9.4024    4.1027 C   0  0  1  0  0  0  0  0  0  0  0  0
    1.8433  -10.0565    5.4318 C   0  0  0  0  0  0  0  0  0  0  0  0
    3.8577   -9.3599    4.1854 C   0  0  0  0  0  0  0  0  0  0  0  0
    4.5801   -8.3275    3.2828 C   0  0  1  0  0  0  0  0  0  0  0  0
    4.5379   -8.9287    1.9972 O   0  0  0  0  0  0  0  0  0  0  0  0
    3.9732   -6.8681    3.3427 C   0  0  2  0  0  0  0  0  0  0  0  0
    4.0547   -6.4426    4.8488 C   0  0  0  0  0  0  0  0  0  0  0  0
    2.4834   -7.0875    2.9644 C   0  0  0  0  0  0  0  0  0  0  0  0
    1.9768   -6.5794    1.8241 C   0  0  0  0  0  0  0  0  0  0  0  0
    2.6962   -5.6636    0.8760 C   0  0  0  0  0  0  0  0  0  0  0  0
    3.7806   -4.8115    1.5730 C   0  0  1  0  0  0  0  0  0  0  0  0
    3.2495   -3.4335    2.1723 C   0  0  1  0  0  0  0  0  0  0  0  0
    2.8407   -2.5741    0.9310 C   0  0  0  0  0  0  0  0  0  0  0  0
    2.0183   -3.6432    3.0979 C   0  0  0  0  0  0  0  0  0  0  0  0
    1.5054   -2.3711    3.7887 C   0  0  1  0  0  0  0  0  0  0  0  0
    0.3997   -2.6891    4.6061 O   0  0  0  0  0  0  0  0  0  0  0  0
    2.5921   -1.6329    4.5976 C   0  0  1  0  0  0  0  0  0  0  0  0
    2.8834   -2.3531    5.7834 O   0  0  0  0  0  0  0  0  0  0  0  0
    3.8729   -1.3530    3.7511 C   0  0  0  0  0  0  0  0  0  0  0  0
    3.5654   -0.1856    2.7747 C   0  0  0  0  0  0  0  0  0  0  0  0
    4.9921   -0.7727    4.6604 C   0  0  0  0  0  0  0  0  0  0  0  0
    4.3613   -2.6552    2.9808 C   0  0  1  0  0  0  0  0  0  0  0  0
    5.1436   -3.6236    3.8918 C   0  0  0  0  0  0  0  0  0  0  0  0
    5.7434   -4.8210    3.1425 C   0  0  0  0  0  0  0  0  0  0  0  0
    4.7360   -5.7521    2.4041 C   0  0  1  0  0  0  0  0  0  0  0  0
    5.6682   -6.4240    1.3411 C   0  0  0  0  0  0  0  0  0  0  0  0
    1.6700   -7.9787    3.9446 C   0  0  1  0  0  0  0  0  0  0  0  0
    0.1126   -8.0488    3.7749 C   0  0  1  0  0  0  0  0  0  0  0  0
   -0.5798   -6.6788    3.7742 C   0  0  0  0  0  0  0  0  0  0  0  0
   -2.3116   -9.4382    3.4609 H   0  0  0  0  0  0  0  0  0  0  0  0
   -2.1409   -9.8357    1.7592 H   0  0  0  0  0  0  0  0  0  0  0  0
   -2.3425   -8.1628    2.2407 H   0  0  0  0  0  0  0  0  0  0  0  0
   -0.0004   -8.6055    1.6817 H   0  0  0  0  0  0  0  0  0  0  0  0
   -0.1217  -10.8894    3.6685 H   0  0  0  0  0  0  0  0  0  0  0  0
    0.0468  -11.0015    1.9458 H   0  0  0  0  0  0  0  0  0  0  0  0
    2.2541  -11.2828    2.9827 H   0  0  0  0  0  0  0  0  0  0  0  0
    2.1905   -9.8677    1.9712 H   0  0  0  0  0  0  0  0  0  0  0  0
    2.1530   -9.4597    6.2925 H   0  0  0  0  0  0  0  0  0  0  0  0
    2.2804  -11.0508    5.5483 H   0  0  0  0  0  0  0  0  0  0  0  0
    0.7652  -10.1848    5.5212 H   0  0  0  0  0  0  0  0  0  0  0  0
    4.1659   -9.1935    5.2176 H   0  0  0  0  0  0  0  0  0  0  0  0
    4.2490  -10.3565    3.9779 H   0  0  0  0  0  0  0  0  0  0  0  0
    5.6264   -8.2932    3.5902 H   0  0  0  0  0  0  0  0  0  0  0  0
    4.7498   -9.8482    2.0710 H   0  0  0  0  0  0  0  0  0  0  0  0
    5.0681   -6.2361    5.1858 H   0  0  0  0  0  0  0  0  0  0  0  0
    3.7185   -7.1941    5.5530 H   0  0  0  0  0  0  0  0  0  0  0  0
    3.4183   -5.5976    5.0748 H   0  0  0  0  0  0  0  0  0  0  0  0
    0.9788   -6.8071    1.5062 H   0  0  0  0  0  0  0  0  0  0  0  0
    3.1337   -6.2703    0.0849 H   0  0  0  0  0  0  0  0  0  0  0  0
    1.9373   -5.0558    0.3914 H   0  0  0  0  0  0  0  0  0  0  0  0
    4.4042   -4.4556    0.7519 H   0  0  0  0  0  0  0  0  0  0  0  0
    1.9349   -1.9971    1.0879 H   0  0  0  0  0  0  0  0  0  0  0  0
    2.6440   -3.1457    0.0275 H   0  0  0  0  0  0  0  0  0  0  0  0
    3.6263   -1.8803    0.6347 H   0  0  0  0  0  0  0  0  0  0  0  0
    1.1980   -4.0721    2.5310 H   0  0  0  0  0  0  0  0  0  0  0  0
    2.2524   -4.3765    3.8583 H   0  0  0  0  0  0  0  0  0  0  0  0
    1.1070   -1.6917    3.0438 H   0  0  0  0  0  0  0  0  0  0  0  0
    0.0826   -1.8884    4.9919 H   0  0  0  0  0  0  0  0  0  0  0  0
    2.1870   -0.6778    4.9335 H   0  0  0  0  0  0  0  0  0  0  0  0
    3.2687   -3.1784    5.5393 H   0  0  0  0  0  0  0  0  0  0  0  0
    4.3600   -0.0552    2.0372 H   0  0  0  0  0  0  0  0  0  0  0  0
    3.4660    0.7627    3.3072 H   0  0  0  0  0  0  0  0  0  0  0  0
    2.6291   -0.3047    2.2383 H   0  0  0  0  0  0  0  0  0  0  0  0
    5.9016   -0.5850    4.0852 H   0  0  0  0  0  0  0  0  0  0  0  0
    5.2521   -1.4273    5.4944 H   0  0  0  0  0  0  0  0  0  0  0  0
    4.6894    0.1749    5.1109 H   0  0  0  0  0  0  0  0  0  0  0  0
    5.1060   -2.3152    2.2577 H   0  0  0  0  0  0  0  0  0  0  0  0
    5.9863   -3.1031    4.3313 H   0  0  0  0  0  0  0  0  0  0  0  0
    4.5551   -3.9253    4.7427 H   0  0  0  0  0  0  0  0  0  0  0  0
    6.4270   -4.3767    2.4170 H   0  0  0  0  0  0  0  0  0  0  0  0
    6.4020   -5.3962    3.7912 H   0  0  0  0  0  0  0  0  0  0  0  0
    6.2183   -5.6977    0.7409 H   0  0  0  0  0  0  0  0  0  0  0  0
    5.1244   -7.0222    0.6127 H   0  0  0  0  0  0  0  0  0  0  0  0
    6.4295   -7.0536    1.8015 H   0  0  0  0  0  0  0  0  0  0  0  0
    1.7524   -7.4847    4.9071 H   0  0  0  0  0  0  0  0  0  0  0  0
   -0.2696   -8.5068    4.6851 H   0  0  0  0  0  0  0  0  0  0  0  0
   -0.5397   -6.2264    2.7915 H   0  0  0  0  0  0  0  0  0  0  0  0
   -0.1278   -5.9978    4.4954 H   0  0  0  0  0  0  0  0  0  0  0  0
   -1.6334   -6.7748    4.0367 H   0  0  0  0  0  0  0  0  0  0  0  0
  1  2  1  0
  1 34  1  0
  1 35  1  0
  1 36  1  0
  2 32  1  0
  2  3  1  0
  2 37  1  6
  3  4  1  0
  3 38  1  0
  3 39  1  0
  4  5  1  0
  4 40  1  0
  4 41  1  0
  5 31  1  0
  5  6  1  1
  5  7  1  0
  6 42  1  0
  6 43  1  0
  6 44  1  0
  7  8  1  0
  7 45  1  0
  7 46  1  0
  8  9  1  0
  8 10  1  0
  8 47  1  1
  9 48  1  0
 10 29  1  0
 10 11  1  1
 10 12  1  0
 11 49  1  0
 11 50  1  0
 11 51  1  0
 12 13  2  0
 12 31  1  0
 13 14  1  0
 13 52  1  0
 14 15  1  0
 14 53  1  0
 14 54  1  0
 15 29  1  0
 15 16  1  0
 15 55  1  6
 16 26  1  0
 16 17  1  6
 16 18  1  0
 17 56  1  0
 17 57  1  0
 17 58  1  0
 18 19  1  0
 18 59  1  0
 18 60  1  0
 19 20  1  0
 19 21  1  0
 19 61  1  6
 20 62  1  0
 21 22  1  0
 21 23  1  0
 21 63  1  1
 22 64  1  0
 23 24  1  0
 23 25  1  0
 23 26  1  0
 24 65  1  0
 24 66  1  0
 24 67  1  0
 25 68  1  0
 25 69  1  0
 25 70  1  0
 26 27  1  0
 26 71  1  6
 27 28  1  0
 27 72  1  0
 27 73  1  0
 28 29  1  0
 28 74  1  0
 28 75  1  0
 29 30  1  6
 30 76  1  0
 30 77  1  0
 30 78  1  0
 31 32  1  0
 31 79  1  1
 32 33  1  0
 32 80  1  1
 33 81  1  0
 33 82  1  0
 33 83  1  0
M  END
>  <i_m_ct_stereo_status>  (353) 
1

>  <s_m_source_file>  (353) 
/var/tmp/pbs.5076255.sched01/tmpp4327t_d/123x5hmlc3y.sdf

>  <i_m_source_file_index>  (353) 
22

>  <i_lp_mmshare_version>  (353) 
48012

>  <i_f3d_flags>  (353) 
0

>  <s_epik_input>  (353) 
W0NIMl0xW0NIMl1bQ0BASF0oW0NIM10pW0NASF0oW0NIM10pW0NAQEhdKFtDQEBdMTJbQ0gzXSlDPTNbQ0BAXShbQ0gzXSkoW0NAQEhdKFtDSDJdMilbT0hdKVtDQEBdNChbQ0gzXSlbQ0BASF0oW0NIMl1bQ0hdMylbQ0BdNShbQ0gzXSlbQ0BIXShbQ0gyXVtDSDJdNClDKFtDSDNdKShbQ0gzXSlbQ0BIXShbT0hdKVtDQEBIXShbQ0gyXTUpW09IXQ==

>  <s_epik_cmdline>  (353) 
J2VwaWtfcHl0aG9uJywgJy1waHQnLCAnMi4wJywgJy1waCcsICc3LjAnLCAnLXRuJywgJzgnLCAnLW1hJywgJzIwMCcsICctaW1hZScsICc8aW5maWxlLm1hZT4nLCAnLW9tYWUnLCAnPG91dGZpbGUubWFlPic=

>  <r_lp_tautomer_probability>  (353) 
1

>  <r_epik_Ionization_Penalty>  (353) 
2.64715e-06

>  <r_epik_Ionization_Penalty_Charging>  (353) 
0

>  <r_epik_Ionization_Penalty_Neutral>  (353) 
2.64715e-06

>  <r_epik_State_Penalty>  (353) 
-0

>  <r_epik_Charging_Adjusted_Penalty>  (353) 
0

>  <i_epik_Tot_Q>  (353) 
0

>  <i_epik_Tot_abs_Q>  (353) 
0

>  <s_lp_Force_Field>  (353) 
OPLS3e

>  <r_lp_Energy>  (353) 
113.976

>  <b_lp_Chiralities_Consistent>  (353) 
1

>  <s_lp_Variant>  (353) 
106:0-1

>  <s_i_glide_gridfile>  (353) 
pfpi4k_grid

>  <i_i_glide_lignum>  (353) 
22

>  <i_i_glide_rotatable_bonds>  (353) 
3

>  <r_i_docking_score>  (353) 
-2.50177

>  <r_i_glide_ligand_efficiency>  (353) 
-0.0758113

>  <r_i_glide_ligand_efficiency_sa>  (353) 
-0.243167

>  <r_i_glide_ligand_efficiency_ln>  (353) 
-0.556381

>  <r_i_glide_gscore>  (353) 
-2.50177

>  <r_i_glide_lipo>  (353) 
-0.681629

>  <r_i_glide_hbond>  (353) 
0

>  <r_i_glide_metal>  (353) 
-0

>  <r_i_glide_rewards>  (353) 
-0.28148

>  <r_i_glide_evdw>  (353) 
-30.1943

>  <r_i_glide_ecoul>  (353) 
-0.193008

>  <r_i_glide_erotb>  (353) 
0

>  <r_i_glide_esite>  (353) 
0

>  <r_i_glide_emodel>  (353) 
-34.6834

>  <r_i_glide_energy>  (353) 
-30.3873

>  <r_i_glide_einternal>  (353) 
0.883729

>  <r_i_glide_intrahb_reward>  (353) 
-0

>  <i_i_glide_confnum>  (353) 
2

>  <i_i_glide_posenum>  (353) 
2

>  <r_i_glide_eff_state_penalty>  (353) 
0

>  <ligand_id>  (353) 
106

>  <original_smiles>  (353) 
CC1CCC2(C)CC(O)C3(C)C(=CCC4C5(C)CC(O)C(O)C(C)(C)C5CCC43C)C2C1C

>  <smiles>  (353) 
[H]OC1([H])C([H])([H])C2(C([H])([H])[H])C([H])(C([H])([H])C([H])([H])C3(C([H])([H])[H])C2([H])C([H])([H])C([H])=C2C4([H])C([H])(C([H])([H])[H])C([H])(C([H])([H])[H])C([H])([H])C([H])([H])C4(C([H])([H])[H])C([H])([H])C([H])(O[H])C23C([H])([H])[H])C(C([H])([H])[H])(C([H])([H])[H])C1([H])O[H]

$$$$
106:0:1
     RDKit          3D

 83 87  0  0  1  0  0  0  0  0999 V2000
   -1.9068   -9.0463    2.7212 C   0  0  0  0  0  0  0  0  0  0  0  0
   -0.3772   -8.9208    2.7606 C   0  0  2  0  0  0  0  0  0  0  0  0
    0.2701  -10.3107    2.8538 C   0  0  0  0  0  0  0  0  0  0  0  0
    1.8034  -10.2218    2.9056 C   0  0  0  0  0  0  0  0  0  0  0  0
    2.3237   -9.3902    4.1104 C   0  0  1  0  0  0  0  0  0  0  0  0
    1.9267  -10.0980    5.4311 C   0  0  0  0  0  0  0  0  0  0  0  0
    3.8868   -9.3514    4.1278 C   0  0  0  0  0  0  0  0  0  0  0  0
    4.5697   -8.2813    3.2376 C   0  0  1  0  0  0  0  0  0  0  0  0
    4.4689   -8.8269    1.9319 O   0  0  0  0  0  0  0  0  0  0  0  0
    3.9692   -6.8266    3.3828 C   0  0  2  0  0  0  0  0  0  0  0  0
    4.1162   -6.4621    4.8993 C   0  0  0  0  0  0  0  0  0  0  0  0
    2.4640   -7.0312    3.0587 C   0  0  0  0  0  0  0  0  0  0  0  0
    1.9106   -6.4798    1.9634 C   0  0  0  0  0  0  0  0  0  0  0  0
    2.5905   -5.5282    1.0193 C   0  0  0  0  0  0  0  0  0  0  0  0
    3.7034   -4.7009    1.7061 C   0  0  1  0  0  0  0  0  0  0  0  0
    3.1965   -3.3479    2.3837 C   0  0  1  0  0  0  0  0  0  0  0  0
    2.7365   -2.4372    1.1998 C   0  0  0  0  0  0  0  0  0  0  0  0
    2.0025   -3.5946    3.3501 C   0  0  0  0  0  0  0  0  0  0  0  0
    1.5172   -2.3525    4.1122 C   0  0  1  0  0  0  0  0  0  0  0  0
    0.4542   -2.7209    4.9670 O   0  0  0  0  0  0  0  0  0  0  0  0
    2.6388   -1.6581    4.9080 C   0  0  1  0  0  0  0  0  0  0  0  0
    2.9587   -2.4488    6.0414 O   0  0  0  0  0  0  0  0  0  0  0  0
    3.8875   -1.3374    4.0215 C   0  0  0  0  0  0  0  0  0  0  0  0
    3.5459   -0.1294    3.1071 C   0  0  0  0  0  0  0  0  0  0  0  0
    5.0435   -0.7925    4.9049 C   0  0  0  0  0  0  0  0  0  0  0  0
    4.3439   -2.6044    3.1776 C   0  0  1  0  0  0  0  0  0  0  0  0
    5.1673   -3.6070    4.0113 C   0  0  0  0  0  0  0  0  0  0  0  0
    5.7310   -4.7733    3.1890 C   0  0  0  0  0  0  0  0  0  0  0  0
    4.6918   -5.6731    2.4561 C   0  0  1  0  0  0  0  0  0  0  0  0
    5.5775   -6.3026    1.3291 C   0  0  0  0  0  0  0  0  0  0  0  0
    1.6915   -7.9623    4.0353 C   0  0  1  0  0  0  0  0  0  0  0  0
    0.1299   -8.0279    3.9230 C   0  0  1  0  0  0  0  0  0  0  0  0
   -0.5599   -6.6575    4.0225 C   0  0  0  0  0  0  0  0  0  0  0  0
   -2.2963   -9.4280    3.6662 H   0  0  0  0  0  0  0  0  0  0  0  0
   -2.2170   -9.7346    1.9361 H   0  0  0  0  0  0  0  0  0  0  0  0
   -2.3918   -8.0913    2.5195 H   0  0  0  0  0  0  0  0  0  0  0  0
   -0.0856   -8.5035    1.7991 H   0  0  0  0  0  0  0  0  0  0  0  0
   -0.1194  -10.8521    3.7154 H   0  0  0  0  0  0  0  0  0  0  0  0
   -0.0183  -10.9022    1.9831 H   0  0  0  0  0  0  0  0  0  0  0  0
    2.2270  -11.2261    2.9214 H   0  0  0  0  0  0  0  0  0  0  0  0
    2.1270   -9.7737    1.9683 H   0  0  0  0  0  0  0  0  0  0  0  0
    2.2741   -9.5351    6.3008 H   0  0  0  0  0  0  0  0  0  0  0  0
    2.3681  -11.0958    5.4873 H   0  0  0  0  0  0  0  0  0  0  0  0
    0.8526  -10.2304    5.5602 H   0  0  0  0  0  0  0  0  0  0  0  0
    4.2387   -9.2262    5.1521 H   0  0  0  0  0  0  0  0  0  0  0  0
    4.2677  -10.3380    3.8621 H   0  0  0  0  0  0  0  0  0  0  0  0
    5.6283   -8.2598    3.4993 H   0  0  0  0  0  0  0  0  0  0  0  0
    4.6778   -9.7518    1.9597 H   0  0  0  0  0  0  0  0  0  0  0  0
    5.1443   -6.2706    5.1995 H   0  0  0  0  0  0  0  0  0  0  0  0
    3.8097   -7.2426    5.5861 H   0  0  0  0  0  0  0  0  0  0  0  0
    3.4916   -5.6266    5.1862 H   0  0  0  0  0  0  0  0  0  0  0  0
    0.8976   -6.6934    1.6813 H   0  0  0  0  0  0  0  0  0  0  0  0
    2.9900   -6.1085    0.1888 H   0  0  0  0  0  0  0  0  0  0  0  0
    1.8128   -4.9001    0.5953 H   0  0  0  0  0  0  0  0  0  0  0  0
    4.2919   -4.3111    0.8734 H   0  0  0  0  0  0  0  0  0  0  0  0
    1.8370   -1.8670    1.4143 H   0  0  0  0  0  0  0  0  0  0  0  0
    2.5049   -2.9729    0.2818 H   0  0  0  0  0  0  0  0  0  0  0  0
    3.5115   -1.7325    0.8996 H   0  0  0  0  0  0  0  0  0  0  0  0
    1.1573   -3.9998    2.8020 H   0  0  0  0  0  0  0  0  0  0  0  0
    2.2731   -4.3618    4.0632 H   0  0  0  0  0  0  0  0  0  0  0  0
    1.0919   -1.6388    3.4144 H   0  0  0  0  0  0  0  0  0  0  0  0
    0.8130   -3.2835    5.6402 H   0  0  0  0  0  0  0  0  0  0  0  0
    2.2526   -0.7179    5.3033 H   0  0  0  0  0  0  0  0  0  0  0  0
    3.3927   -3.2340    5.7427 H   0  0  0  0  0  0  0  0  0  0  0  0
    4.3115    0.0308    2.3436 H   0  0  0  0  0  0  0  0  0  0  0  0
    3.4736    0.7976    3.6810 H   0  0  0  0  0  0  0  0  0  0  0  0
    2.5878   -0.2246    2.6046 H   0  0  0  0  0  0  0  0  0  0  0  0
    5.9261   -0.5786    4.2950 H   0  0  0  0  0  0  0  0  0  0  0  0
    5.3405   -1.4805    5.6989 H   0  0  0  0  0  0  0  0  0  0  0  0
    4.7637    0.1387    5.4037 H   0  0  0  0  0  0  0  0  0  0  0  0
    5.0580   -2.2325    2.4380 H   0  0  0  0  0  0  0  0  0  0  0  0
    6.0319   -3.1062    4.4339 H   0  0  0  0  0  0  0  0  0  0  0  0
    4.6170   -3.9433    4.8753 H   0  0  0  0  0  0  0  0  0  0  0  0
    6.3827   -4.2993    2.4522 H   0  0  0  0  0  0  0  0  0  0  0  0
    6.4158   -5.3747    3.7847 H   0  0  0  0  0  0  0  0  0  0  0  0
    6.1018   -5.5515    0.7356 H   0  0  0  0  0  0  0  0  0  0  0  0
    5.0031   -6.8712    0.6004 H   0  0  0  0  0  0  0  0  0  0  0  0
    6.3569   -6.9490    1.7320 H   0  0  0  0  0  0  0  0  0  0  0  0
    1.8157   -7.5082    5.0137 H   0  0  0  0  0  0  0  0  0  0  0  0
   -0.2129   -8.5259    4.8263 H   0  0  0  0  0  0  0  0  0  0  0  0
   -0.5496   -6.1409    3.0716 H   0  0  0  0  0  0  0  0  0  0  0  0
   -0.0797   -6.0224    4.7666 H   0  0  0  0  0  0  0  0  0  0  0  0
   -1.6063   -6.7651    4.3129 H   0  0  0  0  0  0  0  0  0  0  0  0
  1  2  1  0
  1 34  1  0
  1 35  1  0
  1 36  1  0
  2 32  1  0
  2  3  1  0
  2 37  1  6
  3  4  1  0
  3 38  1  0
  3 39  1  0
  4  5  1  0
  4 40  1  0
  4 41  1  0
  5 31  1  0
  5  6  1  1
  5  7  1  0
  6 42  1  0
  6 43  1  0
  6 44  1  0
  7  8  1  0
  7 45  1  0
  7 46  1  0
  8  9  1  0
  8 10  1  0
  8 47  1  1
  9 48  1  0
 10 29  1  0
 10 11  1  1
 10 12  1  0
 11 49  1  0
 11 50  1  0
 11 51  1  0
 12 13  2  0
 12 31  1  0
 13 14  1  0
 13 52  1  0
 14 15  1  0
 14 53  1  0
 14 54  1  0
 15 29  1  0
 15 16  1  0
 15 55  1  6
 16 26  1  0
 16 17  1  6
 16 18  1  0
 17 56  1  0
 17 57  1  0
 17 58  1  0
 18 19  1  0
 18 59  1  0
 18 60  1  0
 19 20  1  0
 19 21  1  0
 19 61  1  6
 20 62  1  0
 21 22  1  0
 21 23  1  0
 21 63  1  1
 22 64  1  0
 23 24  1  0
 23 25  1  0
 23 26  1  0
 24 65  1  0
 24 66  1  0
 24 67  1  0
 25 68  1  0
 25 69  1  0
 25 70  1  0
 26 27  1  0
 26 71  1  6
 27 28  1  0
 27 72  1  0
 27 73  1  0
 28 29  1  0
 28 74  1  0
 28 75  1  0
 29 30  1  6
 30 76  1  0
 30 77  1  0
 30 78  1  0
 31 32  1  0
 31 79  1  1
 32 33  1  0
 32 80  1  1
 33 81  1  0
 33 82  1  0
 33 83  1  0
M  END
>  <i_m_ct_stereo_status>  (354) 
1

>  <s_m_source_file>  (354) 
/var/tmp/pbs.5076255.sched01/tmpp4327t_d/123x5hmlc3y.sdf

>  <i_m_source_file_index>  (354) 
22

>  <i_lp_mmshare_version>  (354) 
48012

>  <i_f3d_flags>  (354) 
0

>  <s_epik_input>  (354) 
W0NIMl0xW0NIMl1bQ0BASF0oW0NIM10pW0NASF0oW0NIM10pW0NAQEhdKFtDQEBdMTJbQ0gzXSlDPTNbQ0BAXShbQ0gzXSkoW0NAQEhdKFtDSDJdMilbT0hdKVtDQEBdNChbQ0gzXSlbQ0BASF0oW0NIMl1bQ0hdMylbQ0BdNShbQ0gzXSlbQ0BIXShbQ0gyXVtDSDJdNClDKFtDSDNdKShbQ0gzXSlbQ0BIXShbT0hdKVtDQEBIXShbQ0gyXTUpW09IXQ==

>  <s_epik_cmdline>  (354) 
J2VwaWtfcHl0aG9uJywgJy1waHQnLCAnMi4wJywgJy1waCcsICc3LjAnLCAnLXRuJywgJzgnLCAnLW1hJywgJzIwMCcsICctaW1hZScsICc8aW5maWxlLm1hZT4nLCAnLW9tYWUnLCAnPG91dGZpbGUubWFlPic=

>  <r_lp_tautomer_probability>  (354) 
1

>  <r_epik_Ionization_Penalty>  (354) 
2.64715e-06

>  <r_epik_Ionization_Penalty_Charging>  (354) 
0

>  <r_epik_Ionization_Penalty_Neutral>  (354) 
2.64715e-06

>  <r_epik_State_Penalty>  (354) 
-0

>  <r_epik_Charging_Adjusted_Penalty>  (354) 
0

>  <i_epik_Tot_Q>  (354) 
0

>  <i_epik_Tot_abs_Q>  (354) 
0

>  <s_lp_Force_Field>  (354) 
OPLS3e

>  <r_lp_Energy>  (354) 
113.976

>  <b_lp_Chiralities_Consistent>  (354) 
1

>  <s_lp_Variant>  (354) 
106:0-1

>  <s_i_glide_gridfile>  (354) 
pfpi4k_grid

>  <i_i_glide_lignum>  (354) 
22

>  <i_i_glide_rotatable_bonds>  (354) 
3

>  <r_i_docking_score>  (354) 
-2.30267

>  <r_i_glide_ligand_efficiency>  (354) 
-0.0697779

>  <r_i_glide_ligand_efficiency_sa>  (354) 
-0.223815

>  <r_i_glide_ligand_efficiency_ln>  (354) 
-0.512102

>  <r_i_glide_gscore>  (354) 
-2.30267

>  <r_i_glide_lipo>  (354) 
-0.469739

>  <r_i_glide_hbond>  (354) 
0

>  <r_i_glide_metal>  (354) 
-0

>  <r_i_glide_rewards>  (354) 
-0.28148

>  <r_i_glide_evdw>  (354) 
-29.8389

>  <r_i_glide_ecoul>  (354) 
-0.396712

>  <r_i_glide_erotb>  (354) 
0

>  <r_i_glide_esite>  (354) 
0

>  <r_i_glide_emodel>  (354) 
-34.2812

>  <r_i_glide_energy>  (354) 
-30.2356

>  <r_i_glide_einternal>  (354) 
0.564476

>  <r_i_glide_intrahb_reward>  (354) 
-0

>  <i_i_glide_confnum>  (354) 
2

>  <i_i_glide_posenum>  (354) 
34

>  <r_i_glide_eff_state_penalty>  (354) 
0

>  <ligand_id>  (354) 
106

>  <original_smiles>  (354) 
CC1CCC2(C)CC(O)C3(C)C(=CCC4C5(C)CC(O)C(O)C(C)(C)C5CCC43C)C2C1C

>  <smiles>  (354) 
[H]OC1([H])C([H])([H])C2(C([H])([H])[H])C([H])(C([H])([H])C([H])([H])C3(C([H])([H])[H])C2([H])C([H])([H])C([H])=C2C4([H])C([H])(C([H])([H])[H])C([H])(C([H])([H])[H])C([H])([H])C([H])([H])C4(C([H])([H])[H])C([H])([H])C([H])(O[H])C23C([H])([H])[H])C(C([H])([H])[H])(C([H])([H])[H])C1([H])O[H]

$$$$
106:0:2
     RDKit          3D

 83 87  0  0  1  0  0  0  0  0999 V2000
    0.6073    0.3005    3.9198 C   0  0  0  0  0  0  0  0  0  0  0  0
    1.2541   -0.7405    4.8548 C   0  0  2  0  0  0  0  0  0  0  0  0
    2.0920   -0.0342    5.9359 C   0  0  0  0  0  0  0  0  0  0  0  0
    2.7824   -1.0406    6.8732 C   0  0  0  0  0  0  0  0  0  0  0  0
    3.7218   -2.0323    6.1319 C   0  0  1  0  0  0  0  0  0  0  0  0
    4.8913   -1.2459    5.4861 C   0  0  0  0  0  0  0  0  0  0  0  0
    4.4080   -3.0137    7.1402 C   0  0  0  0  0  0  0  0  0  0  0  0
    3.6020   -4.2717    7.5545 C   0  0  1  0  0  0  0  0  0  0  0  0
    2.6749   -3.7619    8.4979 O   0  0  0  0  0  0  0  0  0  0  0  0
    2.9534   -5.0624    6.3502 C   0  0  2  0  0  0  0  0  0  0  0  0
    4.1515   -5.4592    5.4227 C   0  0  0  0  0  0  0  0  0  0  0  0
    2.0965   -3.9834    5.6334 C   0  0  0  0  0  0  0  0  0  0  0  0
    0.7544   -4.0781    5.5960 C   0  0  0  0  0  0  0  0  0  0  0  0
   -0.0555   -5.2355    6.1069 C   0  0  0  0  0  0  0  0  0  0  0  0
    0.7141   -6.5756    6.0480 C   0  0  1  0  0  0  0  0  0  0  0  0
    0.5907   -7.3493    4.6582 C   0  0  1  0  0  0  0  0  0  0  0  0
   -0.9098   -7.7743    4.5431 C   0  0  0  0  0  0  0  0  0  0  0  0
    0.9543   -6.4410    3.4523 C   0  0  0  0  0  0  0  0  0  0  0  0
    0.9397   -7.1537    2.0883 C   0  0  1  0  0  0  0  0  0  0  0  0
    1.3026   -6.2358    1.0801 O   0  0  0  0  0  0  0  0  0  0  0  0
    1.8522   -8.3935    2.0488 C   0  0  1  0  0  0  0  0  0  0  0  0
    3.2057   -7.9821    2.0257 O   0  0  0  0  0  0  0  0  0  0  0  0
    1.5562   -9.3910    3.2130 C   0  0  0  0  0  0  0  0  0  0  0  0
    0.2308  -10.1287    2.8918 C   0  0  0  0  0  0  0  0  0  0  0  0
    2.6144  -10.5312    3.2263 C   0  0  0  0  0  0  0  0  0  0  0  0
    1.4895   -8.6483    4.6173 C   0  0  1  0  0  0  0  0  0  0  0  0
    2.8890   -8.3765    5.2091 C   0  0  0  0  0  0  0  0  0  0  0  0
    2.8568   -7.7683    6.6138 C   0  0  0  0  0  0  0  0  0  0  0  0
    2.1053   -6.4093    6.7715 C   0  0  1  0  0  0  0  0  0  0  0  0
    1.7713   -6.4310    8.3011 C   0  0  0  0  0  0  0  0  0  0  0  0
    2.8869   -2.7844    5.0424 C   0  0  1  0  0  0  0  0  0  0  0  0
    2.1230   -1.7864    4.1015 C   0  0  1  0  0  0  0  0  0  0  0  0
    1.4234   -2.4598    2.9024 C   0  0  0  0  0  0  0  0  0  0  0  0
    1.3548    0.8332    3.3306 H   0  0  0  0  0  0  0  0  0  0  0  0
    0.0473    1.0418    4.4908 H   0  0  0  0  0  0  0  0  0  0  0  0
   -0.0953   -0.1630    3.2271 H   0  0  0  0  0  0  0  0  0  0  0  0
    0.4347   -1.2391    5.3682 H   0  0  0  0  0  0  0  0  0  0  0  0
    2.8260    0.6236    5.4716 H   0  0  0  0  0  0  0  0  0  0  0  0
    1.4492    0.6162    6.5289 H   0  0  0  0  0  0  0  0  0  0  0  0
    3.3320   -0.5047    7.6472 H   0  0  0  0  0  0  0  0  0  0  0  0
    1.9969   -1.5926    7.3870 H   0  0  0  0  0  0  0  0  0  0  0  0
    5.5679   -1.9179    4.9544 H   0  0  0  0  0  0  0  0  0  0  0  0
    5.4766   -0.7232    6.2450 H   0  0  0  0  0  0  0  0  0  0  0  0
    4.5758   -0.4948    4.7647 H   0  0  0  0  0  0  0  0  0  0  0  0
    5.3704   -3.3372    6.7456 H   0  0  0  0  0  0  0  0  0  0  0  0
    4.6945   -2.4590    8.0346 H   0  0  0  0  0  0  0  0  0  0  0  0
    4.2713   -4.9394    8.0987 H   0  0  0  0  0  0  0  0  0  0  0  0
    3.1525   -3.3985    9.2280 H   0  0  0  0  0  0  0  0  0  0  0  0
    4.7843   -6.2381    5.8444 H   0  0  0  0  0  0  0  0  0  0  0  0
    4.8572   -4.6614    5.2251 H   0  0  0  0  0  0  0  0  0  0  0  0
    3.8300   -5.7558    4.4333 H   0  0  0  0  0  0  0  0  0  0  0  0
    0.1513   -3.2969    5.1748 H   0  0  0  0  0  0  0  0  0  0  0  0
   -0.3699   -5.0026    7.1235 H   0  0  0  0  0  0  0  0  0  0  0  0
   -0.9663   -5.2614    5.5184 H   0  0  0  0  0  0  0  0  0  0  0  0
    0.1471   -7.2361    6.7047 H   0  0  0  0  0  0  0  0  0  0  0  0
   -1.3172   -7.6956    3.5402 H   0  0  0  0  0  0  0  0  0  0  0  0
   -1.5844   -7.1811    5.1506 H   0  0  0  0  0  0  0  0  0  0  0  0
   -1.0700   -8.7960    4.8889 H   0  0  0  0  0  0  0  0  0  0  0  0
    0.2681   -5.5997    3.4045 H   0  0  0  0  0  0  0  0  0  0  0  0
    1.9335   -6.0078    3.6115 H   0  0  0  0  0  0  0  0  0  0  0  0
   -0.0701   -7.4579    1.8365 H   0  0  0  0  0  0  0  0  0  0  0  0
    2.2422   -6.1165    1.1431 H   0  0  0  0  0  0  0  0  0  0  0  0
    1.7040   -8.9123    1.1030 H   0  0  0  0  0  0  0  0  0  0  0  0
    3.7390   -8.7574    1.9193 H   0  0  0  0  0  0  0  0  0  0  0  0
   -0.1287  -10.7012    3.7502 H   0  0  0  0  0  0  0  0  0  0  0  0
    0.3529  -10.8351    2.0728 H   0  0  0  0  0  0  0  0  0  0  0  0
   -0.5713   -9.4681    2.5737 H   0  0  0  0  0  0  0  0  0  0  0  0
    2.4210  -11.2311    4.0439 H   0  0  0  0  0  0  0  0  0  0  0  0
    3.6387  -10.1735    3.3337 H   0  0  0  0  0  0  0  0  0  0  0  0
    2.6018  -11.1062    2.2983 H   0  0  0  0  0  0  0  0  0  0  0  0
    1.0526   -9.3667    5.3142 H   0  0  0  0  0  0  0  0  0  0  0  0
    3.4322   -9.3108    5.3265 H   0  0  0  0  0  0  0  0  0  0  0  0
    3.4869   -7.7932    4.5242 H   0  0  0  0  0  0  0  0  0  0  0  0
    2.3703   -8.5324    7.2229 H   0  0  0  0  0  0  0  0  0  0  0  0
    3.8589   -7.7100    7.0345 H   0  0  0  0  0  0  0  0  0  0  0  0
    1.2488   -7.3392    8.6062 H   0  0  0  0  0  0  0  0  0  0  0  0
    1.1136   -5.6214    8.6073 H   0  0  0  0  0  0  0  0  0  0  0  0
    2.6680   -6.3950    8.9185 H   0  0  0  0  0  0  0  0  0  0  0  0
    3.5974   -3.2303    4.3512 H   0  0  0  0  0  0  0  0  0  0  0  0
    2.8983   -1.2025    3.6110 H   0  0  0  0  0  0  0  0  0  0  0  0
    0.4501   -2.8701    3.1526 H   0  0  0  0  0  0  0  0  0  0  0  0
    2.0323   -3.2673    2.4946 H   0  0  0  0  0  0  0  0  0  0  0  0
    1.2664   -1.7461    2.0945 H   0  0  0  0  0  0  0  0  0  0  0  0
  1  2  1  0
  1 34  1  0
  1 35  1  0
  1 36  1  0
  2 32  1  0
  2  3  1  0
  2 37  1  1
  3  4  1  0
  3 38  1  0
  3 39  1  0
  4  5  1  0
  4 40  1  0
  4 41  1  0
  5 31  1  0
  5  6  1  6
  5  7  1  0
  6 42  1  0
  6 43  1  0
  6 44  1  0
  7  8  1  0
  7 45  1  0
  7 46  1  0
  8  9  1  0
  8 10  1  0
  8 47  1  1
  9 48  1  0
 10 29  1  0
 10 11  1  6
 10 12  1  0
 11 49  1  0
 11 50  1  0
 11 51  1  0
 12 13  2  0
 12 31  1  0
 13 14  1  0
 13 52  1  0
 14 15  1  0
 14 53  1  0
 14 54  1  0
 15 29  1  0
 15 16  1  0
 15 55  1  1
 16 26  1  0
 16 17  1  6
 16 18  1  0
 17 56  1  0
 17 57  1  0
 17 58  1  0
 18 19  1  0
 18 59  1  0
 18 60  1  0
 19 20  1  0
 19 21  1  0
 19 61  1  6
 20 62  1  0
 21 22  1  0
 21 23  1  0
 21 63  1  6
 22 64  1  0
 23 24  1  0
 23 25  1  0
 23 26  1  0
 24 65  1  0
 24 66  1  0
 24 67  1  0
 25 68  1  0
 25 69  1  0
 25 70  1  0
 26 27  1  0
 26 71  1  1
 27 28  1  0
 27 72  1  0
 27 73  1  0
 28 29  1  0
 28 74  1  0
 28 75  1  0
 29 30  1  1
 30 76  1  0
 30 77  1  0
 30 78  1  0
 31 32  1  0
 31 79  1  6
 32 33  1  0
 32 80  1  6
 33 81  1  0
 33 82  1  0
 33 83  1  0
M  END
>  <i_m_ct_stereo_status>  (355) 
1

>  <s_m_source_file>  (355) 
/var/tmp/pbs.5076255.sched01/tmpp4327t_d/123x5hmlc3y.sdf

>  <i_m_source_file_index>  (355) 
22

>  <i_lp_mmshare_version>  (355) 
48012

>  <i_f3d_flags>  (355) 
0

>  <s_epik_input>  (355) 
W0NIMl0xW0NIMl1bQ0BASF0oW0NIM10pW0NASF0oW0NIM10pW0NAQEhdKFtDQEBdMTJbQ0gzXSlDPTNbQ0BAXShbQ0gzXSkoW0NAQEhdKFtDSDJdMilbT0hdKVtDQEBdNChbQ0gzXSlbQ0BASF0oW0NIMl1bQ0hdMylbQ0BdNShbQ0gzXSlbQ0BIXShbQ0gyXVtDSDJdNClDKFtDSDNdKShbQ0gzXSlbQ0BIXShbT0hdKVtDQEBIXShbQ0gyXTUpW09IXQ==

>  <s_epik_cmdline>  (355) 
J2VwaWtfcHl0aG9uJywgJy1waHQnLCAnMi4wJywgJy1waCcsICc3LjAnLCAnLXRuJywgJzgnLCAnLW1hJywgJzIwMCcsICctaW1hZScsICc8aW5maWxlLm1hZT4nLCAnLW9tYWUnLCAnPG91dGZpbGUubWFlPic=

>  <r_lp_tautomer_probability>  (355) 
1

>  <r_epik_Ionization_Penalty>  (355) 
2.64715e-06

>  <r_epik_Ionization_Penalty_Charging>  (355) 
0

>  <r_epik_Ionization_Penalty_Neutral>  (355) 
2.64715e-06

>  <r_epik_State_Penalty>  (355) 
-0

>  <r_epik_Charging_Adjusted_Penalty>  (355) 
0

>  <i_epik_Tot_Q>  (355) 
0

>  <i_epik_Tot_abs_Q>  (355) 
0

>  <s_lp_Force_Field>  (355) 
OPLS3e

>  <r_lp_Energy>  (355) 
113.976

>  <b_lp_Chiralities_Consistent>  (355) 
1

>  <s_lp_Variant>  (355) 
106:0-1

>  <s_i_glide_gridfile>  (355) 
pfpi4k_grid

>  <i_i_glide_lignum>  (355) 
22

>  <i_i_glide_rotatable_bonds>  (355) 
3

>  <r_i_docking_score>  (355) 
-2.17365

>  <r_i_glide_ligand_efficiency>  (355) 
-0.0658683

>  <r_i_glide_ligand_efficiency_sa>  (355) 
-0.211275

>  <r_i_glide_ligand_efficiency_ln>  (355) 
-0.483409

>  <r_i_glide_gscore>  (355) 
-2.17365

>  <r_i_glide_lipo>  (355) 
-0.0714463

>  <r_i_glide_hbond>  (355) 
0

>  <r_i_glide_metal>  (355) 
-0

>  <r_i_glide_rewards>  (355) 
-0.28148

>  <r_i_glide_evdw>  (355) 
-25.3159

>  <r_i_glide_ecoul>  (355) 
-3.69952

>  <r_i_glide_erotb>  (355) 
0

>  <r_i_glide_esite>  (355) 
0

>  <r_i_glide_emodel>  (355) 
-32.6481

>  <r_i_glide_energy>  (355) 
-29.0155

>  <r_i_glide_einternal>  (355) 
0.76233

>  <r_i_glide_intrahb_reward>  (355) 
-0

>  <i_i_glide_confnum>  (355) 
1

>  <i_i_glide_posenum>  (355) 
1

>  <r_i_glide_eff_state_penalty>  (355) 
0

>  <ligand_id>  (355) 
106

>  <original_smiles>  (355) 
CC1CCC2(C)CC(O)C3(C)C(=CCC4C5(C)CC(O)C(O)C(C)(C)C5CCC43C)C2C1C

>  <smiles>  (355) 
[H]OC1([H])C([H])([H])C2(C([H])([H])[H])C([H])(C([H])([H])C([H])([H])C3(C([H])([H])[H])C2([H])C([H])([H])C([H])=C2C4([H])C([H])(C([H])([H])[H])C([H])(C([H])([H])[H])C([H])([H])C([H])([H])C4(C([H])([H])[H])C([H])([H])C([H])(O[H])C23C([H])([H])[H])C(C([H])([H])[H])(C([H])([H])[H])C1([H])O[H]

$$$$
107:0:0
     RDKit          3D

 48 52  0  0  1  0  0  0  0  0999 V2000
    4.6288   -2.9396   -2.1143 C   0  0  0  0  0  0  0  0  0  0  0  0
    4.8187   -3.4957   -0.7162 C   0  0  0  0  0  0  0  0  0  0  0  0
    4.2326   -3.0582    0.4115 C   0  0  0  0  0  0  0  0  0  0  0  0
    3.2121   -1.8921    0.5591 C   0  0  0  0  0  0  0  0  0  0  0  0
    3.1743   -1.1914    1.9951 C   0  0  1  0  0  0  0  0  0  0  0  0
    2.6861    0.2382    1.8203 C   0  0  0  0  0  0  0  0  0  0  0  0
    1.6560    0.8053    2.4631 C   0  0  0  0  0  0  0  0  0  0  0  0
    1.3527    2.1431    2.2661 N   0  0  0  0  0  0  0  0  0  0  0  0
    1.4550    3.1980    3.2637 C   0  0  0  0  0  0  0  0  0  0  0  0
    0.8056    0.0450    3.4007 C   0  0  0  0  0  0  0  0  0  0  0  0
   -0.3905    0.6051    3.9242 C   0  0  0  0  0  0  0  0  0  0  0  0
   -1.2171   -0.1211    4.7927 C   0  0  0  0  0  0  0  0  0  0  0  0
   -0.8798   -1.4378    5.1376 C   0  0  0  0  0  0  0  0  0  0  0  0
   -1.6846   -2.1508    5.9667 F   0  0  0  0  0  0  0  0  0  0  0  0
    0.2816   -2.0231    4.6009 C   0  0  0  0  0  0  0  0  0  0  0  0
    1.1324   -1.2954    3.7330 C   0  0  0  0  0  0  0  0  0  0  0  0
    2.3413   -2.0117    3.1091 C   0  0  2  0  0  0  0  0  0  0  0  0
    3.1759   -2.8222    4.2260 C   0  0  0  0  0  0  0  0  0  0  0  0
    4.7146   -3.0810    3.9475 C   0  0  1  0  0  0  0  0  0  0  0  0
    5.2204   -4.5510    3.7542 C   0  0  0  0  0  0  0  0  0  0  0  0
    5.3670   -4.7696    2.2123 C   0  0  0  0  0  0  0  0  0  0  0  0
    4.5183   -3.5952    1.7914 C   0  0  1  0  0  0  0  0  0  0  0  0
    4.9956   -2.5120    2.6621 N   0  0  0  0  0  0  0  0  0  0  0  0
    4.6190   -1.2403    2.4776 C   0  0  0  0  0  0  0  0  0  0  0  0
    5.2937   -0.2482    2.7516 O   0  0  0  0  0  0  0  0  0  0  0  0
    4.3516   -3.7411   -2.7972 H   0  0  0  0  0  0  0  0  0  0  0  0
    5.5679   -2.5137   -2.4632 H   0  0  0  0  0  0  0  0  0  0  0  0
    3.8615   -2.1677   -2.1600 H   0  0  0  0  0  0  0  0  0  0  0  0
    5.5243   -4.3120   -0.6387 H   0  0  0  0  0  0  0  0  0  0  0  0
    3.4437   -1.1501   -0.2070 H   0  0  0  0  0  0  0  0  0  0  0  0
    2.2169   -2.2713    0.3199 H   0  0  0  0  0  0  0  0  0  0  0  0
    0.9989    4.1137    2.8821 H   0  0  0  0  0  0  0  0  0  0  0  0
    2.4977    3.4062    3.5045 H   0  0  0  0  0  0  0  0  0  0  0  0
    0.9490    2.9373    4.1931 H   0  0  0  0  0  0  0  0  0  0  0  0
   -0.7082    1.5951    3.6394 H   0  0  0  0  0  0  0  0  0  0  0  0
   -2.1176    0.3343    5.1737 H   0  0  0  0  0  0  0  0  0  0  0  0
    0.5066   -3.0513    4.8412 H   0  0  0  0  0  0  0  0  0  0  0  0
    1.8260   -2.7814    2.5301 H   0  0  0  0  0  0  0  0  0  0  0  0
    3.1254   -2.2714    5.1628 H   0  0  0  0  0  0  0  0  0  0  0  0
    2.6785   -3.7733    4.4292 H   0  0  0  0  0  0  0  0  0  0  0  0
    5.3260   -2.5770    4.6975 H   0  0  0  0  0  0  0  0  0  0  0  0
    6.1909   -4.6869    4.2353 H   0  0  0  0  0  0  0  0  0  0  0  0
    4.5374   -5.2659    4.2184 H   0  0  0  0  0  0  0  0  0  0  0  0
    6.3980   -4.6525    1.8716 H   0  0  0  0  0  0  0  0  0  0  0  0
    4.9748   -5.7342    1.8874 H   0  0  0  0  0  0  0  0  0  0  0  0
    3.5284   -3.9837    2.0285 H   0  0  0  0  0  0  0  0  0  0  0  0
    3.2834    0.8568    1.1616 H   0  0  0  0  0  0  0  0  0  0  0  0
    1.2797    2.4949    1.3156 H   0  0  0  0  0  0  0  0  0  0  0  0
  1  2  1  0
  1 26  1  0
  1 27  1  0
  1 28  1  0
  2  3  2  3
  2 29  1  0
  3 22  1  0
  3  4  1  0
  5  4  1  6
  4 30  1  0
  4 31  1  0
  5 17  1  0
  5 24  1  0
  5  6  1  0
  6 47  1  0
  6  7  2  0
  7 10  1  0
  7  8  1  0
  8  9  1  0
  8 48  1  0
  9 32  1  0
  9 33  1  0
  9 34  1  0
 10 16  2  0
 10 11  1  0
 11 12  2  0
 11 35  1  0
 12 13  1  0
 12 36  1  0
 13 14  1  0
 13 15  2  0
 15 16  1  0
 15 37  1  0
 16 17  1  0
 17 18  1  0
 17 38  1  6
 18 19  1  0
 18 39  1  0
 18 40  1  0
 19 23  1  0
 19 20  1  0
 19 41  1  1
 20 21  1  0
 20 42  1  0
 20 43  1  0
 21 22  1  0
 21 44  1  0
 21 45  1  0
 22 23  1  0
 22 46  1  1
 23 24  1  0
 24 25  2  0
M  END
>  <i_m_ct_stereo_status>  (356) 
1

>  <s_m_source_file>  (356) 
/var/tmp/pbs.5076255.sched01/tmpp4327t_d/123x5hmlc3y.sdf

>  <i_m_source_file_index>  (356) 
23

>  <i_lp_mmshare_version>  (356) 
48012

>  <i_f3d_flags>  (356) 
0

>  <s_epik_input>  (356) 
W0NIM10vW0NIXT1DKFxbQ0gyXTEpW0NAQEhdKFtDSDJdW0NIMl0yKU4oQzM9TylbQ0BIXTJbQ0gyXVtDQEhdKFtDQF0xMzQpYzVjKEMoXFtDSDJdNCk9TlxbQ0gzXSlbY0hdW2NIXWMoRilbY0hdNQ==

>  <s_epik_cmdline>  (356) 
J2VwaWtfcHl0aG9uJywgJy1waHQnLCAnMi4wJywgJy1waCcsICc3LjAnLCAnLXRuJywgJzgnLCAnLW1hJywgJzIwMCcsICctaW1hZScsICc8aW5maWxlLm1hZT4nLCAnLW9tYWUnLCAnPG91dGZpbGUubWFlPic=

>  <r_lp_tautomer_probability>  (356) 
1

>  <r_epik_Ionization_Penalty>  (356) 
0.000337918

>  <r_epik_Ionization_Penalty_Charging>  (356) 
0.000123933

>  <r_epik_Ionization_Penalty_Neutral>  (356) 
0.000213985

>  <r_epik_State_Penalty>  (356) 
-0

>  <r_epik_Charging_Adjusted_Penalty>  (356) 
0.000123933

>  <i_epik_Tot_Q>  (356) 
0

>  <i_epik_Tot_abs_Q>  (356) 
0

>  <s_epik_Chemistry_Notes>  (356) 
This compound has an imine and may undergo hydrolysis.

>  <s_lp_Force_Field>  (356) 
OPLS3e

>  <r_lp_Energy>  (356) 
93.089

>  <b_lp_Chiralities_Consistent>  (356) 
1

>  <s_lp_Variant>  (356) 
107:0-1

>  <s_i_glide_gridfile>  (356) 
pfpi4k_grid

>  <i_i_glide_lignum>  (356) 
23

>  <i_i_glide_rotatable_bonds>  (356) 
1

>  <r_i_docking_score>  (356) 
-3.03577

>  <r_i_glide_ligand_efficiency>  (356) 
-0.121431

>  <r_i_glide_ligand_efficiency_sa>  (356) 
-0.355066

>  <r_i_glide_ligand_efficiency_ln>  (356) 
-0.71957

>  <r_i_glide_gscore>  (356) 
-3.03577

>  <r_i_glide_lipo>  (356) 
-0.184535

>  <r_i_glide_hbond>  (356) 
-0.110019

>  <r_i_glide_metal>  (356) 
-0

>  <r_i_glide_rewards>  (356) 
-1.25571

>  <r_i_glide_evdw>  (356) 
-21.5745

>  <r_i_glide_ecoul>  (356) 
-1.8775

>  <r_i_glide_erotb>  (356) 
0

>  <r_i_glide_esite>  (356) 
-0.12516

>  <r_i_glide_emodel>  (356) 
-24.2695

>  <r_i_glide_energy>  (356) 
-23.452

>  <r_i_glide_einternal>  (356) 
6.49864

>  <r_i_glide_intrahb_reward>  (356) 
-0

>  <i_i_glide_confnum>  (356) 
1

>  <i_i_glide_posenum>  (356) 
23

>  <r_i_glide_eff_state_penalty>  (356) 
0

>  <ligand_id>  (356) 
107

>  <original_smiles>  (356) 
CC=C1CC23CC(=NC)c4ccc(F)cc4C2CC2CCC1N2C3=O

>  <smiles>  (356) 
[H]C(=C1C([H])([H])C23C(=O)N4C1([H])C([H])([H])C([H])([H])C4([H])C([H])([H])C2([H])c1c([H])c(F)c([H])c([H])c1C(N([H])C([H])([H])[H])=C3[H])C([H])([H])[H]

$$$$
107:0:1
     RDKit          3D

 48 52  0  0  1  0  0  0  0  0999 V2000
    4.1465   -3.0670   -3.3478 C   0  0  0  0  0  0  0  0  0  0  0  0
    4.5869   -3.7551   -2.0710 C   0  0  0  0  0  0  0  0  0  0  0  0
    4.2182   -3.4369   -0.8176 C   0  0  0  0  0  0  0  0  0  0  0  0
    3.2512   -2.3007   -0.3717 C   0  0  0  0  0  0  0  0  0  0  0  0
    3.4821   -1.7421    1.1116 C   0  0  1  0  0  0  0  0  0  0  0  0
    2.9881   -0.3004    1.1772 C   0  0  0  0  0  0  0  0  0  0  0  0
    2.0953    0.1991    2.0450 C   0  0  0  0  0  0  0  0  0  0  0  0
    1.7603    1.5462    2.0342 N   0  0  0  0  0  0  0  0  0  0  0  0
    2.0495    2.5038    3.0922 C   0  0  0  0  0  0  0  0  0  0  0  0
    1.4189   -0.6605    3.0335 C   0  0  0  0  0  0  0  0  0  0  0  0
    0.3436   -0.1620    3.8152 C   0  0  0  0  0  0  0  0  0  0  0  0
   -0.3151   -0.9738    4.7449 C   0  0  0  0  0  0  0  0  0  0  0  0
    0.0656   -2.3144    4.8956 C   0  0  0  0  0  0  0  0  0  0  0  0
   -0.5792   -3.1034    5.7906 F   0  0  0  0  0  0  0  0  0  0  0  0
    1.1001   -2.8373    4.1017 C   0  0  0  0  0  0  0  0  0  0  0  0
    1.7866   -2.0234    3.1697 C   0  0  0  0  0  0  0  0  0  0  0  0
    2.8532   -2.6700    2.2702 C   0  0  2  0  0  0  0  0  0  0  0  0
    3.8626   -3.5842    3.1293 C   0  0  0  0  0  0  0  0  0  0  0  0
    5.3180   -3.8025    2.5511 C   0  0  1  0  0  0  0  0  0  0  0  0
    5.7709   -5.2430    2.1328 C   0  0  0  0  0  0  0  0  0  0  0  0
    5.6355   -5.3105    0.5767 C   0  0  0  0  0  0  0  0  0  0  0  0
    4.7372   -4.1051    0.4287 C   0  0  1  0  0  0  0  0  0  0  0  0
    5.3740   -3.1088    1.2988 N   0  0  0  0  0  0  0  0  0  0  0  0
    4.9872   -1.8279    1.3142 C   0  0  0  0  0  0  0  0  0  0  0  0
    5.7129   -0.8630    1.5544 O   0  0  0  0  0  0  0  0  0  0  0  0
    3.7424   -3.8040   -4.0399 H   0  0  0  0  0  0  0  0  0  0  0  0
    5.0078   -2.5970   -3.8176 H   0  0  0  0  0  0  0  0  0  0  0  0
    3.3870   -2.3052   -3.1748 H   0  0  0  0  0  0  0  0  0  0  0  0
    5.2781   -4.5764   -2.2012 H   0  0  0  0  0  0  0  0  0  0  0  0
    3.3437   -1.4865   -1.0905 H   0  0  0  0  0  0  0  0  0  0  0  0
    2.2287   -2.6710   -0.4678 H   0  0  0  0  0  0  0  0  0  0  0  0
    1.5462    3.4480    2.8788 H   0  0  0  0  0  0  0  0  0  0  0  0
    3.1212    2.6831    3.1706 H   0  0  0  0  0  0  0  0  0  0  0  0
    1.7066    2.1509    4.0644 H   0  0  0  0  0  0  0  0  0  0  0  0
   -0.0120    0.8467    3.6920 H   0  0  0  0  0  0  0  0  0  0  0  0
   -1.1234   -0.5648    5.3317 H   0  0  0  0  0  0  0  0  0  0  0  0
    1.3551   -3.8836    4.2007 H   0  0  0  0  0  0  0  0  0  0  0  0
    2.2341   -3.3836    1.7219 H   0  0  0  0  0  0  0  0  0  0  0  0
    3.9946   -3.1252    4.1092 H   0  0  0  0  0  0  0  0  0  0  0  0
    3.4006   -4.5523    3.3310 H   0  0  0  0  0  0  0  0  0  0  0  0
    6.0437   -3.3522    3.2235 H   0  0  0  0  0  0  0  0  0  0  0  0
    6.8136   -5.4118    2.4143 H   0  0  0  0  0  0  0  0  0  0  0  0
    5.1797   -6.0072    2.6428 H   0  0  0  0  0  0  0  0  0  0  0  0
    6.5928   -5.1533    0.0739 H   0  0  0  0  0  0  0  0  0  0  0  0
    5.1804   -6.2428    0.2330 H   0  0  0  0  0  0  0  0  0  0  0  0
    3.8010   -4.5209    0.8021 H   0  0  0  0  0  0  0  0  0  0  0  0
    3.4725    0.3785    0.4869 H   0  0  0  0  0  0  0  0  0  0  0  0
    1.5742    1.9738    1.1351 H   0  0  0  0  0  0  0  0  0  0  0  0
  1  2  1  0
  1 26  1  0
  1 27  1  0
  1 28  1  0
  2  3  2  3
  2 29  1  0
  3 22  1  0
  3  4  1  0
  5  4  1  6
  4 30  1  0
  4 31  1  0
  5 17  1  0
  5 24  1  0
  5  6  1  0
  6 47  1  0
  6  7  2  0
  7 10  1  0
  7  8  1  0
  8  9  1  0
  8 48  1  0
  9 32  1  0
  9 33  1  0
  9 34  1  0
 10 16  2  0
 10 11  1  0
 11 12  2  0
 11 35  1  0
 12 13  1  0
 12 36  1  0
 13 14  1  0
 13 15  2  0
 15 16  1  0
 15 37  1  0
 16 17  1  0
 17 18  1  0
 17 38  1  6
 18 19  1  0
 18 39  1  0
 18 40  1  0
 19 23  1  0
 19 20  1  0
 19 41  1  1
 20 21  1  0
 20 42  1  0
 20 43  1  0
 21 22  1  0
 21 44  1  0
 21 45  1  0
 22 23  1  0
 22 46  1  1
 23 24  1  0
 24 25  2  0
M  END
>  <i_m_ct_stereo_status>  (357) 
1

>  <s_m_source_file>  (357) 
/var/tmp/pbs.5076255.sched01/tmpp4327t_d/123x5hmlc3y.sdf

>  <i_m_source_file_index>  (357) 
23

>  <i_lp_mmshare_version>  (357) 
48012

>  <i_f3d_flags>  (357) 
0

>  <s_epik_input>  (357) 
W0NIM10vW0NIXT1DKFxbQ0gyXTEpW0NAQEhdKFtDSDJdW0NIMl0yKU4oQzM9TylbQ0BIXTJbQ0gyXVtDQEhdKFtDQF0xMzQpYzVjKEMoXFtDSDJdNCk9TlxbQ0gzXSlbY0hdW2NIXWMoRilbY0hdNQ==

>  <s_epik_cmdline>  (357) 
J2VwaWtfcHl0aG9uJywgJy1waHQnLCAnMi4wJywgJy1waCcsICc3LjAnLCAnLXRuJywgJzgnLCAnLW1hJywgJzIwMCcsICctaW1hZScsICc8aW5maWxlLm1hZT4nLCAnLW9tYWUnLCAnPG91dGZpbGUubWFlPic=

>  <r_lp_tautomer_probability>  (357) 
1

>  <r_epik_Ionization_Penalty>  (357) 
0.000337918

>  <r_epik_Ionization_Penalty_Charging>  (357) 
0.000123933

>  <r_epik_Ionization_Penalty_Neutral>  (357) 
0.000213985

>  <r_epik_State_Penalty>  (357) 
-0

>  <r_epik_Charging_Adjusted_Penalty>  (357) 
0.000123933

>  <i_epik_Tot_Q>  (357) 
0

>  <i_epik_Tot_abs_Q>  (357) 
0

>  <s_epik_Chemistry_Notes>  (357) 
This compound has an imine and may undergo hydrolysis.

>  <s_lp_Force_Field>  (357) 
OPLS3e

>  <r_lp_Energy>  (357) 
93.089

>  <b_lp_Chiralities_Consistent>  (357) 
1

>  <s_lp_Variant>  (357) 
107:0-1

>  <s_i_glide_gridfile>  (357) 
pfpi4k_grid

>  <i_i_glide_lignum>  (357) 
23

>  <i_i_glide_rotatable_bonds>  (357) 
1

>  <r_i_docking_score>  (357) 
-2.768

>  <r_i_glide_ligand_efficiency>  (357) 
-0.11072

>  <r_i_glide_ligand_efficiency_sa>  (357) 
-0.323748

>  <r_i_glide_ligand_efficiency_ln>  (357) 
-0.6561

>  <r_i_glide_gscore>  (357) 
-2.768

>  <r_i_glide_lipo>  (357) 
-0.41974

>  <r_i_glide_hbond>  (357) 
0

>  <r_i_glide_metal>  (357) 
-0

>  <r_i_glide_rewards>  (357) 
-1.24743

>  <r_i_glide_evdw>  (357) 
-23.0493

>  <r_i_glide_ecoul>  (357) 
0.54694

>  <r_i_glide_erotb>  (357) 
0

>  <r_i_glide_esite>  (357) 
-0.0304157

>  <r_i_glide_emodel>  (357) 
-22.9082

>  <r_i_glide_energy>  (357) 
-22.5024

>  <r_i_glide_einternal>  (357) 
6.43614

>  <r_i_glide_intrahb_reward>  (357) 
-0

>  <i_i_glide_confnum>  (357) 
2

>  <i_i_glide_posenum>  (357) 
20

>  <r_i_glide_eff_state_penalty>  (357) 
0

>  <ligand_id>  (357) 
107

>  <original_smiles>  (357) 
CC=C1CC23CC(=NC)c4ccc(F)cc4C2CC2CCC1N2C3=O

>  <smiles>  (357) 
[H]C(=C1C([H])([H])C23C(=O)N4C1([H])C([H])([H])C([H])([H])C4([H])C([H])([H])C2([H])c1c([H])c(F)c([H])c([H])c1C(N([H])C([H])([H])[H])=C3[H])C([H])([H])[H]

$$$$
107:0:2
     RDKit          3D

 48 52  0  0  1  0  0  0  0  0999 V2000
    2.8244   -1.2306    1.2860 C   0  0  0  0  0  0  0  0  0  0  0  0
    3.5246   -0.6186    2.4836 C   0  0  0  0  0  0  0  0  0  0  0  0
    2.9613    0.1435    3.4360 C   0  0  0  0  0  0  0  0  0  0  0  0
    1.4688    0.5735    3.5454 C   0  0  0  0  0  0  0  0  0  0  0  0
    1.2112    1.9331    4.3462 C   0  0  1  0  0  0  0  0  0  0  0  0
   -0.0787    2.5550    3.8353 C   0  0  0  0  0  0  0  0  0  0  0  0
   -1.1452    2.8956    4.5793 C   0  0  0  0  0  0  0  0  0  0  0  0
   -2.2670    3.5098    4.0424 N   0  0  0  0  0  0  0  0  0  0  0  0
   -2.5202    3.8153    2.6461 C   0  0  0  0  0  0  0  0  0  0  0  0
   -1.1878    2.6456    6.0326 C   0  0  0  0  0  0  0  0  0  0  0  0
   -2.3733    2.8842    6.7838 C   0  0  0  0  0  0  0  0  0  0  0  0
   -2.4226    2.6231    8.1604 C   0  0  0  0  0  0  0  0  0  0  0  0
   -1.2904    2.1232    8.8163 C   0  0  0  0  0  0  0  0  0  0  0  0
   -1.3322    1.8524   10.1412 F   0  0  0  0  0  0  0  0  0  0  0  0
   -0.1146    1.8688    8.0896 C   0  0  0  0  0  0  0  0  0  0  0  0
   -0.0483    2.1258    6.7006 C   0  0  0  0  0  0  0  0  0  0  0  0
    1.2425    1.7660    5.9506 C   0  0  2  0  0  0  0  0  0  0  0  0
    2.5496    2.2998    6.7361 C   0  0  0  0  0  0  0  0  0  0  0  0
    3.8513    2.5863    5.8774 C   0  0  1  0  0  0  0  0  0  0  0  0
    5.1333    1.7168    6.1128 C   0  0  0  0  0  0  0  0  0  0  0  0
    5.1622    0.6508    4.9667 C   0  0  0  0  0  0  0  0  0  0  0  0
    3.7144    0.7941    4.5672 C   0  0  1  0  0  0  0  0  0  0  0  0
    3.5245    2.2483    4.5255 N   0  0  0  0  0  0  0  0  0  0  0  0
    2.4159    2.8055    4.0235 C   0  0  0  0  0  0  0  0  0  0  0  0
    2.3495    3.9190    3.5053 O   0  0  0  0  0  0  0  0  0  0  0  0
    3.0173   -2.3013    1.2412 H   0  0  0  0  0  0  0  0  0  0  0  0
    3.2102   -0.7788    0.3749 H   0  0  0  0  0  0  0  0  0  0  0  0
    1.7475   -1.0725    1.3028 H   0  0  0  0  0  0  0  0  0  0  0  0
    4.5903   -0.7987    2.5421 H   0  0  0  0  0  0  0  0  0  0  0  0
    1.0791    0.6707    2.5309 H   0  0  0  0  0  0  0  0  0  0  0  0
    0.9032   -0.2365    4.0109 H   0  0  0  0  0  0  0  0  0  0  0  0
   -3.4205    4.4198    2.5420 H   0  0  0  0  0  0  0  0  0  0  0  0
   -2.6526    2.8959    2.0789 H   0  0  0  0  0  0  0  0  0  0  0  0
   -1.6908    4.3775    2.2192 H   0  0  0  0  0  0  0  0  0  0  0  0
   -3.2726    3.2511    6.3165 H   0  0  0  0  0  0  0  0  0  0  0  0
   -3.3313    2.7980    8.7152 H   0  0  0  0  0  0  0  0  0  0  0  0
    0.7352    1.4559    8.6104 H   0  0  0  0  0  0  0  0  0  0  0  0
    1.2526    0.6843    6.1004 H   0  0  0  0  0  0  0  0  0  0  0  0
    2.2992    3.2369    7.2284 H   0  0  0  0  0  0  0  0  0  0  0  0
    2.7932    1.6091    7.5465 H   0  0  0  0  0  0  0  0  0  0  0  0
    4.1096    3.6459    5.9227 H   0  0  0  0  0  0  0  0  0  0  0  0
    6.0295    2.3374    6.0603 H   0  0  0  0  0  0  0  0  0  0  0  0
    5.1236    1.2650    7.1070 H   0  0  0  0  0  0  0  0  0  0  0  0
    5.8268    0.9329    4.1465 H   0  0  0  0  0  0  0  0  0  0  0  0
    5.4186   -0.3456    5.3274 H   0  0  0  0  0  0  0  0  0  0  0  0
    3.2348    0.2834    5.4024 H   0  0  0  0  0  0  0  0  0  0  0  0
   -0.0729    2.7770    2.7736 H   0  0  0  0  0  0  0  0  0  0  0  0
   -3.0765    3.5597    4.6434 H   0  0  0  0  0  0  0  0  0  0  0  0
  1  2  1  0
  1 26  1  0
  1 27  1  0
  1 28  1  0
  2  3  2  3
  2 29  1  0
  3 22  1  0
  3  4  1  0
  5  4  1  6
  4 30  1  0
  4 31  1  0
  5 17  1  0
  5 24  1  0
  5  6  1  0
  6 47  1  0
  6  7  2  0
  7 10  1  0
  7  8  1  0
  8  9  1  0
  8 48  1  0
  9 32  1  0
  9 33  1  0
  9 34  1  0
 10 16  2  0
 10 11  1  0
 11 12  2  0
 11 35  1  0
 12 13  1  0
 12 36  1  0
 13 14  1  0
 13 15  2  0
 15 16  1  0
 15 37  1  0
 16 17  1  0
 17 18  1  0
 17 38  1  6
 18 19  1  0
 18 39  1  0
 18 40  1  0
 19 23  1  0
 19 20  1  0
 19 41  1  6
 20 21  1  0
 20 42  1  0
 20 43  1  0
 21 22  1  0
 21 44  1  0
 21 45  1  0
 22 23  1  0
 22 46  1  1
 23 24  1  0
 24 25  2  0
M  END
>  <i_m_ct_stereo_status>  (358) 
1

>  <s_m_source_file>  (358) 
/var/tmp/pbs.5076255.sched01/tmpp4327t_d/123x5hmlc3y.sdf

>  <i_m_source_file_index>  (358) 
23

>  <i_lp_mmshare_version>  (358) 
48012

>  <i_f3d_flags>  (358) 
0

>  <s_epik_input>  (358) 
W0NIM10vW0NIXT1DKFxbQ0gyXTEpW0NAQEhdKFtDSDJdW0NIMl0yKU4oQzM9TylbQ0BIXTJbQ0gyXVtDQEhdKFtDQF0xMzQpYzVjKEMoXFtDSDJdNCk9TlxbQ0gzXSlbY0hdW2NIXWMoRilbY0hdNQ==

>  <s_epik_cmdline>  (358) 
J2VwaWtfcHl0aG9uJywgJy1waHQnLCAnMi4wJywgJy1waCcsICc3LjAnLCAnLXRuJywgJzgnLCAnLW1hJywgJzIwMCcsICctaW1hZScsICc8aW5maWxlLm1hZT4nLCAnLW9tYWUnLCAnPG91dGZpbGUubWFlPic=

>  <r_lp_tautomer_probability>  (358) 
1

>  <r_epik_Ionization_Penalty>  (358) 
0.000337918

>  <r_epik_Ionization_Penalty_Charging>  (358) 
0.000123933

>  <r_epik_Ionization_Penalty_Neutral>  (358) 
0.000213985

>  <r_epik_State_Penalty>  (358) 
-0

>  <r_epik_Charging_Adjusted_Penalty>  (358) 
0.000123933

>  <i_epik_Tot_Q>  (358) 
0

>  <i_epik_Tot_abs_Q>  (358) 
0

>  <s_epik_Chemistry_Notes>  (358) 
This compound has an imine and may undergo hydrolysis.

>  <s_lp_Force_Field>  (358) 
OPLS3e

>  <r_lp_Energy>  (358) 
93.089

>  <b_lp_Chiralities_Consistent>  (358) 
1

>  <s_lp_Variant>  (358) 
107:0-1

>  <s_i_glide_gridfile>  (358) 
pfpi4k_grid

>  <i_i_glide_lignum>  (358) 
23

>  <i_i_glide_rotatable_bonds>  (358) 
1

>  <r_i_docking_score>  (358) 
-2.35642

>  <r_i_glide_ligand_efficiency>  (358) 
-0.094257

>  <r_i_glide_ligand_efficiency_sa>  (358) 
-0.275609

>  <r_i_glide_ligand_efficiency_ln>  (358) 
-0.558543

>  <r_i_glide_gscore>  (358) 
-2.35642

>  <r_i_glide_lipo>  (358) 
-0.276201

>  <r_i_glide_hbond>  (358) 
0

>  <r_i_glide_metal>  (358) 
-0

>  <r_i_glide_rewards>  (358) 
-1.10169

>  <r_i_glide_evdw>  (358) 
-19.4588

>  <r_i_glide_ecoul>  (358) 
0.906376

>  <r_i_glide_erotb>  (358) 
0

>  <r_i_glide_esite>  (358) 
-0.141546

>  <r_i_glide_emodel>  (358) 
-22.0856

>  <r_i_glide_energy>  (358) 
-18.5525

>  <r_i_glide_einternal>  (358) 
0.0319992

>  <r_i_glide_intrahb_reward>  (358) 
-0

>  <i_i_glide_confnum>  (358) 
1

>  <i_i_glide_posenum>  (358) 
9

>  <r_i_glide_eff_state_penalty>  (358) 
0

>  <ligand_id>  (358) 
107

>  <original_smiles>  (358) 
CC=C1CC23CC(=NC)c4ccc(F)cc4C2CC2CCC1N2C3=O

>  <smiles>  (358) 
[H]C(=C1C([H])([H])C23C(=O)N4C1([H])C([H])([H])C([H])([H])C4([H])C([H])([H])C2([H])c1c([H])c(F)c([H])c([H])c1C(N([H])C([H])([H])[H])=C3[H])C([H])([H])[H]

$$$$
107:1:0
     RDKit          3D

 48 52  0  0  1  0  0  0  0  0999 V2000
    3.0017   -2.8552   -3.9873 C   0  0  0  0  0  0  0  0  0  0  0  0
    2.5658   -2.9972   -2.5447 C   0  0  0  0  0  0  0  0  0  0  0  0
    3.3393   -3.1093   -1.4482 C   0  0  0  0  0  0  0  0  0  0  0  0
    2.7761   -3.2270    0.0008 C   0  0  0  0  0  0  0  0  0  0  0  0
    3.7385   -2.6895    1.1620 C   0  0  1  0  0  0  0  0  0  0  0  0
    2.8774   -2.2338    2.3371 C   0  0  0  0  0  0  0  0  0  0  0  0
    2.9758   -2.6542    3.6107 C   0  0  0  0  0  0  0  0  0  0  0  0
    2.1760   -2.1096    4.6127 N   0  0  0  0  0  0  0  0  0  0  0  0
    2.6499   -1.3981    5.8010 C   0  0  0  0  0  0  0  0  0  0  0  0
    3.9312   -3.7151    3.9968 C   0  0  0  0  0  0  0  0  0  0  0  0
    3.8843   -4.3014    5.2908 C   0  0  0  0  0  0  0  0  0  0  0  0
    4.7964   -5.2939    5.6647 C   0  0  0  0  0  0  0  0  0  0  0  0
    5.7325   -5.7790    4.7409 C   0  0  0  0  0  0  0  0  0  0  0  0
    6.5910   -6.7698    5.0888 F   0  0  0  0  0  0  0  0  0  0  0  0
    5.7536   -5.2529    3.4396 C   0  0  0  0  0  0  0  0  0  0  0  0
    4.8668   -4.2177    3.0563 C   0  0  0  0  0  0  0  0  0  0  0  0
    4.8818   -3.7425    1.5903 C   0  0  2  0  0  0  0  0  0  0  0  0
    6.3837   -3.4662    1.0765 C   0  0  0  0  0  0  0  0  0  0  0  0
    6.5827   -2.4251   -0.0995 C   0  0  1  0  0  0  0  0  0  0  0  0
    7.1430   -2.9298   -1.4670 C   0  0  0  0  0  0  0  0  0  0  0  0
    5.9161   -3.0828   -2.4189 C   0  0  0  0  0  0  0  0  0  0  0  0
    4.8500   -3.0896   -1.3466 C   0  0  1  0  0  0  0  0  0  0  0  0
    5.2671   -1.9770   -0.4744 N   0  0  0  0  0  0  0  0  0  0  0  0
    4.4965   -1.5261    0.5270 C   0  0  0  0  0  0  0  0  0  0  0  0
    4.4926   -0.3713    0.9642 O   0  0  0  0  0  0  0  0  0  0  0  0
    2.3696   -3.4908   -4.6043 H   0  0  0  0  0  0  0  0  0  0  0  0
    4.0344   -3.1458   -4.1637 H   0  0  0  0  0  0  0  0  0  0  0  0
    2.8525   -1.8248   -4.3058 H   0  0  0  0  0  0  0  0  0  0  0  0
    1.4965   -2.9745   -2.3887 H   0  0  0  0  0  0  0  0  0  0  0  0
    1.8244   -2.6844    0.0265 H   0  0  0  0  0  0  0  0  0  0  0  0
    2.5331   -4.2782    0.1887 H   0  0  0  0  0  0  0  0  0  0  0  0
    1.8130   -1.1932    6.4710 H   0  0  0  0  0  0  0  0  0  0  0  0
    3.1110   -0.4490    5.5286 H   0  0  0  0  0  0  0  0  0  0  0  0
    3.3883   -1.9705    6.3660 H   0  0  0  0  0  0  0  0  0  0  0  0
    3.1292   -4.0180    6.0031 H   0  0  0  0  0  0  0  0  0  0  0  0
    4.7568   -5.7037    6.6604 H   0  0  0  0  0  0  0  0  0  0  0  0
    6.4412   -5.6740    2.7201 H   0  0  0  0  0  0  0  0  0  0  0  0
    4.5841   -4.6679    1.0843 H   0  0  0  0  0  0  0  0  0  0  0  0
    6.9615   -3.0793    1.9130 H   0  0  0  0  0  0  0  0  0  0  0  0
    6.8567   -4.4161    0.8167 H   0  0  0  0  0  0  0  0  0  0  0  0
    7.1621   -1.5706    0.2578 H   0  0  0  0  0  0  0  0  0  0  0  0
    7.8750   -2.2476   -1.8920 H   0  0  0  0  0  0  0  0  0  0  0  0
    7.6987   -3.8557   -1.3236 H   0  0  0  0  0  0  0  0  0  0  0  0
    5.7976   -2.2208   -3.0786 H   0  0  0  0  0  0  0  0  0  0  0  0
    5.9455   -3.9953   -3.0173 H   0  0  0  0  0  0  0  0  0  0  0  0
    5.0049   -4.0869   -0.9340 H   0  0  0  0  0  0  0  0  0  0  0  0
    2.1631   -1.4531    2.0993 H   0  0  0  0  0  0  0  0  0  0  0  0
    1.2634   -1.7998    4.3055 H   0  0  0  0  0  0  0  0  0  0  0  0
  1  2  1  0
  1 26  1  0
  1 27  1  0
  1 28  1  0
  2  3  2  3
  2 29  1  0
  3 22  1  0
  3  4  1  0
  5  4  1  6
  4 30  1  0
  4 31  1  0
  5 17  1  0
  5 24  1  0
  5  6  1  0
  6 47  1  0
  6  7  2  0
  7 10  1  0
  7  8  1  0
  8  9  1  0
  8 48  1  0
  9 32  1  0
  9 33  1  0
  9 34  1  0
 10 16  2  0
 10 11  1  0
 11 12  2  0
 11 35  1  0
 12 13  1  0
 12 36  1  0
 13 14  1  0
 13 15  2  0
 15 16  1  0
 15 37  1  0
 16 17  1  0
 17 18  1  0
 17 38  1  6
 18 19  1  0
 18 39  1  0
 18 40  1  0
 19 23  1  0
 19 20  1  0
 19 41  1  1
 20 21  1  0
 20 42  1  0
 20 43  1  0
 21 22  1  0
 21 44  1  0
 21 45  1  0
 22 23  1  0
 22 46  1  1
 23 24  1  0
 24 25  2  0
M  END
>  <i_m_ct_stereo_status>  (359) 
1

>  <s_m_source_file>  (359) 
/var/tmp/pbs.5076255.sched01/tmpp4327t_d/123x5hmlc3y.sdf

>  <i_m_source_file_index>  (359) 
24

>  <i_lp_mmshare_version>  (359) 
48012

>  <i_f3d_flags>  (359) 
0

>  <s_epik_input>  (359) 
W0NIM10vW0NIXT1DKFxbQ0gyXTEpW0NAQEhdKFtDSDJdW0NIMl0yKU4oQzM9TylbQ0BIXTJbQ0gyXVtDQEhdKFtDQF0xMzQpYzVjKEMoXFtDSDJdNCk9TlxbQ0gzXSlbY0hdW2NIXWMoRilbY0hdNQ==

>  <s_epik_cmdline>  (359) 
J2VwaWtfcHl0aG9uJywgJy1waHQnLCAnMi4wJywgJy1waCcsICc3LjAnLCAnLXRuJywgJzgnLCAnLW1hJywgJzIwMCcsICctaW1hZScsICc8aW5maWxlLm1hZT4nLCAnLW9tYWUnLCAnPG91dGZpbGUubWFlPic=

>  <r_lp_tautomer_probability>  (359) 
1

>  <r_epik_Ionization_Penalty>  (359) 
0.000337918

>  <r_epik_Ionization_Penalty_Charging>  (359) 
0.000123933

>  <r_epik_Ionization_Penalty_Neutral>  (359) 
0.000213985

>  <r_epik_State_Penalty>  (359) 
-0

>  <r_epik_Charging_Adjusted_Penalty>  (359) 
0.000123933

>  <i_epik_Tot_Q>  (359) 
0

>  <i_epik_Tot_abs_Q>  (359) 
0

>  <s_epik_Chemistry_Notes>  (359) 
This compound has an imine and may undergo hydrolysis.

>  <s_lp_Force_Field>  (359) 
OPLS3e

>  <r_lp_Energy>  (359) 
94.844

>  <b_lp_Chiralities_Consistent>  (359) 
1

>  <s_lp_Variant>  (359) 
107:0-2

>  <s_i_glide_gridfile>  (359) 
pfpi4k_grid

>  <i_i_glide_lignum>  (359) 
24

>  <i_i_glide_rotatable_bonds>  (359) 
1

>  <r_i_docking_score>  (359) 
-2.62148

>  <r_i_glide_ligand_efficiency>  (359) 
-0.104859

>  <r_i_glide_ligand_efficiency_sa>  (359) 
-0.30661

>  <r_i_glide_ligand_efficiency_ln>  (359) 
-0.621368

>  <r_i_glide_gscore>  (359) 
-2.62148

>  <r_i_glide_lipo>  (359) 
-0.442017

>  <r_i_glide_hbond>  (359) 
0

>  <r_i_glide_metal>  (359) 
-0

>  <r_i_glide_rewards>  (359) 
-1.10169

>  <r_i_glide_evdw>  (359) 
-21.2725

>  <r_i_glide_ecoul>  (359) 
0.058724

>  <r_i_glide_erotb>  (359) 
0

>  <r_i_glide_esite>  (359) 
-0.022949

>  <r_i_glide_emodel>  (359) 
-20.8506

>  <r_i_glide_energy>  (359) 
-21.2138

>  <r_i_glide_einternal>  (359) 
6.14288

>  <r_i_glide_intrahb_reward>  (359) 
-0

>  <i_i_glide_confnum>  (359) 
2

>  <i_i_glide_posenum>  (359) 
12

>  <r_i_glide_eff_state_penalty>  (359) 
0

>  <ligand_id>  (359) 
107

>  <original_smiles>  (359) 
CC=C1CC23CC(=NC)c4ccc(F)cc4C2CC2CCC1N2C3=O

>  <smiles>  (359) 
[H]C(=C1C([H])([H])C23C(=O)N4C1([H])C([H])([H])C([H])([H])C4([H])C([H])([H])C2([H])c1c([H])c(F)c([H])c([H])c1C(N([H])C([H])([H])[H])=C3[H])C([H])([H])[H]

$$$$
107:1:1
     RDKit          3D

 48 52  0  0  1  0  0  0  0  0999 V2000
    3.6754   -2.8048   -4.1311 C   0  0  0  0  0  0  0  0  0  0  0  0
    2.9990   -3.0673   -2.8044 C   0  0  0  0  0  0  0  0  0  0  0  0
    3.5762   -3.2342   -1.6009 C   0  0  0  0  0  0  0  0  0  0  0  0
    2.7814   -3.4994   -0.2908 C   0  0  0  0  0  0  0  0  0  0  0  0
    3.4737   -2.9862    1.0561 C   0  0  1  0  0  0  0  0  0  0  0  0
    2.3875   -2.6589    2.0788 C   0  0  0  0  0  0  0  0  0  0  0  0
    2.2843   -3.1616    3.3199 C   0  0  0  0  0  0  0  0  0  0  0  0
    1.2835   -2.7350    4.1876 N   0  0  0  0  0  0  0  0  0  0  0  0
    1.5026   -2.0546    5.4652 C   0  0  0  0  0  0  0  0  0  0  0  0
    3.2237   -4.1937    3.8097 C   0  0  0  0  0  0  0  0  0  0  0  0
    2.9891   -4.8702    5.0392 C   0  0  0  0  0  0  0  0  0  0  0  0
    3.8729   -5.8478    5.5079 C   0  0  0  0  0  0  0  0  0  0  0  0
    4.9832   -6.2206    4.7380 C   0  0  0  0  0  0  0  0  0  0  0  0
    5.8225   -7.1939    5.1740 F   0  0  0  0  0  0  0  0  0  0  0  0
    5.2037   -5.5996    3.4975 C   0  0  0  0  0  0  0  0  0  0  0  0
    4.3392   -4.5836    3.0239 C   0  0  0  0  0  0  0  0  0  0  0  0
    4.5825   -4.0088    1.6169 C   0  0  2  0  0  0  0  0  0  0  0  0
    6.1307   -3.6268    1.4013 C   0  0  0  0  0  0  0  0  0  0  0  0
    6.4733   -2.4966    0.3499 C   0  0  1  0  0  0  0  0  0  0  0  0
    7.3046   -2.8825   -0.9191 C   0  0  0  0  0  0  0  0  0  0  0  0
    6.2706   -3.0002   -2.0833 C   0  0  0  0  0  0  0  0  0  0  0  0
    5.0388   -3.1460   -1.2264 C   0  0  1  0  0  0  0  0  0  0  0  0
    5.2233   -2.0828   -0.2259 N   0  0  0  0  0  0  0  0  0  0  0  0
    4.2583   -1.7439    0.6429 C   0  0  0  0  0  0  0  0  0  0  0  0
    4.1080   -0.6293    1.1428 O   0  0  0  0  0  0  0  0  0  0  0  0
    3.2047   -3.4573   -4.8577 H   0  0  0  0  0  0  0  0  0  0  0  0
    4.7356   -3.0361   -4.1299 H   0  0  0  0  0  0  0  0  0  0  0  0
    3.5172   -1.7703   -4.4322 H   0  0  0  0  0  0  0  0  0  0  0  0
    1.9195   -3.1207   -2.8477 H   0  0  0  0  0  0  0  0  0  0  0  0
    1.8170   -3.0146   -0.4254 H   0  0  0  0  0  0  0  0  0  0  0  0
    2.5758   -4.5729   -0.2209 H   0  0  0  0  0  0  0  0  0  0  0  0
    0.5595   -1.9511    6.0037 H   0  0  0  0  0  0  0  0  0  0  0  0
    1.9295   -1.0634    5.3150 H   0  0  0  0  0  0  0  0  0  0  0  0
    2.1906   -2.5905    6.1197 H   0  0  0  0  0  0  0  0  0  0  0  0
    2.1087   -4.6771    5.6254 H   0  0  0  0  0  0  0  0  0  0  0  0
    3.6805   -6.3319    6.4524 H   0  0  0  0  0  0  0  0  0  0  0  0
    6.0336   -5.9345    2.8918 H   0  0  0  0  0  0  0  0  0  0  0  0
    4.4367   -4.9095    1.0117 H   0  0  0  0  0  0  0  0  0  0  0  0
    6.5067   -3.2612    2.3512 H   0  0  0  0  0  0  0  0  0  0  0  0
    6.7071   -4.5287    1.1813 H   0  0  0  0  0  0  0  0  0  0  0  0
    6.9292   -1.6419    0.8538 H   0  0  0  0  0  0  0  0  0  0  0  0
    8.0469   -2.1152   -1.1482 H   0  0  0  0  0  0  0  0  0  0  0  0
    7.8662   -3.8054   -0.7543 H   0  0  0  0  0  0  0  0  0  0  0  0
    6.2034   -2.0955   -2.6841 H   0  0  0  0  0  0  0  0  0  0  0  0
    6.4683   -3.8540   -2.7363 H   0  0  0  0  0  0  0  0  0  0  0  0
    5.1744   -4.1662   -0.8629 H   0  0  0  0  0  0  0  0  0  0  0  0
    1.6843   -1.8952    1.7642 H   0  0  0  0  0  0  0  0  0  0  0  0
    0.4099   -2.4761    3.7440 H   0  0  0  0  0  0  0  0  0  0  0  0
  1  2  1  0
  1 26  1  0
  1 27  1  0
  1 28  1  0
  2  3  2  3
  2 29  1  0
  3 22  1  0
  3  4  1  0
  5  4  1  6
  4 30  1  0
  4 31  1  0
  5 17  1  0
  5 24  1  0
  5  6  1  0
  6 47  1  0
  6  7  2  0
  7 10  1  0
  7  8  1  0
  8  9  1  0
  8 48  1  0
  9 32  1  0
  9 33  1  0
  9 34  1  0
 10 16  2  0
 10 11  1  0
 11 12  2  0
 11 35  1  0
 12 13  1  0
 12 36  1  0
 13 14  1  0
 13 15  2  0
 15 16  1  0
 15 37  1  0
 16 17  1  0
 17 18  1  0
 17 38  1  6
 18 19  1  0
 18 39  1  0
 18 40  1  0
 19 23  1  0
 19 20  1  0
 19 41  1  1
 20 21  1  0
 20 42  1  0
 20 43  1  0
 21 22  1  0
 21 44  1  0
 21 45  1  0
 22 23  1  0
 22 46  1  1
 23 24  1  0
 24 25  2  0
M  END
>  <i_m_ct_stereo_status>  (360) 
1

>  <s_m_source_file>  (360) 
/var/tmp/pbs.5076255.sched01/tmpp4327t_d/123x5hmlc3y.sdf

>  <i_m_source_file_index>  (360) 
24

>  <i_lp_mmshare_version>  (360) 
48012

>  <i_f3d_flags>  (360) 
0

>  <s_epik_input>  (360) 
W0NIM10vW0NIXT1DKFxbQ0gyXTEpW0NAQEhdKFtDSDJdW0NIMl0yKU4oQzM9TylbQ0BIXTJbQ0gyXVtDQEhdKFtDQF0xMzQpYzVjKEMoXFtDSDJdNCk9TlxbQ0gzXSlbY0hdW2NIXWMoRilbY0hdNQ==

>  <s_epik_cmdline>  (360) 
J2VwaWtfcHl0aG9uJywgJy1waHQnLCAnMi4wJywgJy1waCcsICc3LjAnLCAnLXRuJywgJzgnLCAnLW1hJywgJzIwMCcsICctaW1hZScsICc8aW5maWxlLm1hZT4nLCAnLW9tYWUnLCAnPG91dGZpbGUubWFlPic=

>  <r_lp_tautomer_probability>  (360) 
1

>  <r_epik_Ionization_Penalty>  (360) 
0.000337918

>  <r_epik_Ionization_Penalty_Charging>  (360) 
0.000123933

>  <r_epik_Ionization_Penalty_Neutral>  (360) 
0.000213985

>  <r_epik_State_Penalty>  (360) 
-0

>  <r_epik_Charging_Adjusted_Penalty>  (360) 
0.000123933

>  <i_epik_Tot_Q>  (360) 
0

>  <i_epik_Tot_abs_Q>  (360) 
0

>  <s_epik_Chemistry_Notes>  (360) 
This compound has an imine and may undergo hydrolysis.

>  <s_lp_Force_Field>  (360) 
OPLS3e

>  <r_lp_Energy>  (360) 
94.844

>  <b_lp_Chiralities_Consistent>  (360) 
1

>  <s_lp_Variant>  (360) 
107:0-2

>  <s_i_glide_gridfile>  (360) 
pfpi4k_grid

>  <i_i_glide_lignum>  (360) 
24

>  <i_i_glide_rotatable_bonds>  (360) 
1

>  <r_i_docking_score>  (360) 
-2.56801

>  <r_i_glide_ligand_efficiency>  (360) 
-0.10272

>  <r_i_glide_ligand_efficiency_sa>  (360) 
-0.300356

>  <r_i_glide_ligand_efficiency_ln>  (360) 
-0.608695

>  <r_i_glide_gscore>  (360) 
-2.56801

>  <r_i_glide_lipo>  (360) 
-0.338843

>  <r_i_glide_hbond>  (360) 
0

>  <r_i_glide_metal>  (360) 
-0

>  <r_i_glide_rewards>  (360) 
-1.10169

>  <r_i_glide_evdw>  (360) 
-20.302

>  <r_i_glide_ecoul>  (360) 
-0.630434

>  <r_i_glide_erotb>  (360) 
0

>  <r_i_glide_esite>  (360) 
-0.0178055

>  <r_i_glide_emodel>  (360) 
-20.4923

>  <r_i_glide_energy>  (360) 
-20.9325

>  <r_i_glide_einternal>  (360) 
6.16906

>  <r_i_glide_intrahb_reward>  (360) 
-0

>  <i_i_glide_confnum>  (360) 
2

>  <i_i_glide_posenum>  (360) 
1

>  <r_i_glide_eff_state_penalty>  (360) 
0

>  <ligand_id>  (360) 
107

>  <original_smiles>  (360) 
CC=C1CC23CC(=NC)c4ccc(F)cc4C2CC2CCC1N2C3=O

>  <smiles>  (360) 
[H]C(=C1C([H])([H])C23C(=O)N4C1([H])C([H])([H])C([H])([H])C4([H])C([H])([H])C2([H])c1c([H])c(F)c([H])c([H])c1C(N([H])C([H])([H])[H])=C3[H])C([H])([H])[H]

$$$$
107:3:0
     RDKit          3D

 48 52  0  0  1  0  0  0  0  0999 V2000
   -1.3871   -9.3240    2.9884 C   0  0  0  0  0  0  0  0  0  0  0  0
   -0.7435   -8.1593    2.2763 C   0  0  0  0  0  0  0  0  0  0  0  0
    0.5594   -7.9284    2.0083 C   0  0  0  0  0  0  0  0  0  0  0  0
    0.9182   -6.6978    1.1565 C   0  0  0  0  0  0  0  0  0  0  0  0
    2.2188   -5.9636    1.5932 C   0  0  1  0  0  0  0  0  0  0  0  0
    2.5712   -4.9026    0.5670 C   0  0  0  0  0  0  0  0  0  0  0  0
    2.6180   -3.5776    0.7763 C   0  0  0  0  0  0  0  0  0  0  0  0
    3.0283   -2.6832   -0.2011 N   0  0  0  0  0  0  0  0  0  0  0  0
    3.5022   -2.9876   -1.5409 C   0  0  0  0  0  0  0  0  0  0  0  0
    2.2304   -2.9971    2.0760 C   0  0  0  0  0  0  0  0  0  0  0  0
    2.0610   -1.5950    2.2204 C   0  0  0  0  0  0  0  0  0  0  0  0
    1.6378   -1.0414    3.4389 C   0  0  0  0  0  0  0  0  0  0  0  0
    1.3754   -1.8818    4.5323 C   0  0  0  0  0  0  0  0  0  0  0  0
    0.9573   -1.3543    5.7079 F   0  0  0  0  0  0  0  0  0  0  0  0
    1.5285   -3.2746    4.3988 C   0  0  0  0  0  0  0  0  0  0  0  0
    1.9523   -3.8469    3.1772 C   0  0  0  0  0  0  0  0  0  0  0  0
    2.0255   -5.3786    3.0586 C   0  0  2  0  0  0  0  0  0  0  0  0
    3.0126   -5.9917    4.1016 C   0  0  0  0  0  0  0  0  0  0  0  0
    3.1468   -7.5395    3.9577 C   0  0  1  0  0  0  0  0  0  0  0  0
    2.0978   -8.3219    4.7605 C   0  0  0  0  0  0  0  0  0  0  0  0
    1.7073   -9.4550    3.8259 C   0  0  0  0  0  0  0  0  0  0  0  0
    1.7757   -8.8006    2.4366 C   0  0  2  0  0  0  0  0  0  0  0  0
    2.9994   -7.9845    2.5591 N   0  0  0  0  0  0  0  0  0  0  0  0
    3.2686   -7.0857    1.6085 C   0  0  0  0  0  0  0  0  0  0  0  0
    4.2100   -7.1577    0.8182 O   0  0  0  0  0  0  0  0  0  0  0  0
   -2.4082   -9.4558    2.6352 H   0  0  0  0  0  0  0  0  0  0  0  0
   -1.4278   -9.1227    4.0577 H   0  0  0  0  0  0  0  0  0  0  0  0
   -0.8598  -10.2565    2.7960 H   0  0  0  0  0  0  0  0  0  0  0  0
   -1.4663   -7.4355    1.9389 H   0  0  0  0  0  0  0  0  0  0  0  0
    1.0157   -7.0515    0.1300 H   0  0  0  0  0  0  0  0  0  0  0  0
    0.0766   -6.0106    1.1379 H   0  0  0  0  0  0  0  0  0  0  0  0
    3.9034   -2.0859   -2.0043 H   0  0  0  0  0  0  0  0  0  0  0  0
    2.6828   -3.3563   -2.1562 H   0  0  0  0  0  0  0  0  0  0  0  0
    4.2919   -3.7405   -1.5183 H   0  0  0  0  0  0  0  0  0  0  0  0
    2.2180   -0.9194    1.3928 H   0  0  0  0  0  0  0  0  0  0  0  0
    1.5018    0.0263    3.5264 H   0  0  0  0  0  0  0  0  0  0  0  0
    1.3006   -3.9057    5.2453 H   0  0  0  0  0  0  0  0  0  0  0  0
    1.0367   -5.6948    3.4016 H   0  0  0  0  0  0  0  0  0  0  0  0
    3.9951   -5.5443    3.9545 H   0  0  0  0  0  0  0  0  0  0  0  0
    2.7296   -5.7372    5.1219 H   0  0  0  0  0  0  0  0  0  0  0  0
    4.1391   -7.8505    4.2892 H   0  0  0  0  0  0  0  0  0  0  0  0
    2.4839   -8.6831    5.7139 H   0  0  0  0  0  0  0  0  0  0  0  0
    1.2187   -7.7055    4.9618 H   0  0  0  0  0  0  0  0  0  0  0  0
    2.4788  -10.2252    3.8687 H   0  0  0  0  0  0  0  0  0  0  0  0
    0.7847   -9.9508    4.1130 H   0  0  0  0  0  0  0  0  0  0  0  0
    1.9243   -9.5587    1.6679 H   0  0  0  0  0  0  0  0  0  0  0  0
    2.8633   -5.2951   -0.3951 H   0  0  0  0  0  0  0  0  0  0  0  0
    2.7610   -1.7152   -0.0720 H   0  0  0  0  0  0  0  0  0  0  0  0
  1  2  1  0
  1 26  1  0
  1 27  1  0
  1 28  1  0
  2  3  2  3
  2 29  1  0
  3 22  1  0
  3  4  1  0
  5  4  1  6
  4 30  1  0
  4 31  1  0
  5 17  1  0
  5 24  1  0
  5  6  1  0
  6 47  1  0
  6  7  2  0
  7 10  1  0
  7  8  1  0
  8  9  1  0
  8 48  1  0
  9 32  1  0
  9 33  1  0
  9 34  1  0
 10 16  2  0
 10 11  1  0
 11 12  2  0
 11 35  1  0
 12 13  1  0
 12 36  1  0
 13 14  1  0
 13 15  2  0
 15 16  1  0
 15 37  1  0
 16 17  1  0
 17 18  1  0
 17 38  1  1
 18 19  1  0
 18 39  1  0
 18 40  1  0
 19 23  1  0
 19 20  1  0
 19 41  1  1
 20 21  1  0
 20 42  1  0
 20 43  1  0
 21 22  1  0
 21 44  1  0
 21 45  1  0
 22 23  1  0
 22 46  1  6
 23 24  1  0
 24 25  2  0
M  END
>  <i_m_ct_stereo_status>  (361) 
1

>  <s_m_source_file>  (361) 
/var/tmp/pbs.5076255.sched01/tmpp4327t_d/123x5hmlc3y.sdf

>  <i_m_source_file_index>  (361) 
26

>  <i_lp_mmshare_version>  (361) 
48012

>  <i_f3d_flags>  (361) 
0

>  <s_epik_input>  (361) 
W0NIM10vW0NIXT1DKFxbQ0gyXTEpW0NAQEhdKFtDSDJdW0NIMl0yKU4oQzM9TylbQ0BIXTJbQ0gyXVtDQEhdKFtDQF0xMzQpYzVjKEMoXFtDSDJdNCk9TlxbQ0gzXSlbY0hdW2NIXWMoRilbY0hdNQ==

>  <s_epik_cmdline>  (361) 
J2VwaWtfcHl0aG9uJywgJy1waHQnLCAnMi4wJywgJy1waCcsICc3LjAnLCAnLXRuJywgJzgnLCAnLW1hJywgJzIwMCcsICctaW1hZScsICc8aW5maWxlLm1hZT4nLCAnLW9tYWUnLCAnPG91dGZpbGUubWFlPic=

>  <r_lp_tautomer_probability>  (361) 
1

>  <r_epik_Ionization_Penalty>  (361) 
0.000337918

>  <r_epik_Ionization_Penalty_Charging>  (361) 
0.000123933

>  <r_epik_Ionization_Penalty_Neutral>  (361) 
0.000213985

>  <r_epik_State_Penalty>  (361) 
-0

>  <r_epik_Charging_Adjusted_Penalty>  (361) 
0.000123933

>  <i_epik_Tot_Q>  (361) 
0

>  <i_epik_Tot_abs_Q>  (361) 
0

>  <s_epik_Chemistry_Notes>  (361) 
This compound has an imine and may undergo hydrolysis.

>  <s_lp_Force_Field>  (361) 
OPLS3e

>  <r_lp_Energy>  (361) 
69.4116

>  <b_lp_Chiralities_Consistent>  (361) 
1

>  <s_lp_Variant>  (361) 
107:0-4

>  <s_i_glide_gridfile>  (361) 
pfpi4k_grid

>  <i_i_glide_lignum>  (361) 
26

>  <i_i_glide_rotatable_bonds>  (361) 
1

>  <r_i_docking_score>  (361) 
-2.42983

>  <r_i_glide_ligand_efficiency>  (361) 
-0.0971931

>  <r_i_glide_ligand_efficiency_sa>  (361) 
-0.284194

>  <r_i_glide_ligand_efficiency_ln>  (361) 
-0.575942

>  <r_i_glide_gscore>  (361) 
-2.42983

>  <r_i_glide_lipo>  (361) 
-0.0134156

>  <r_i_glide_hbond>  (361) 
-0.0238723

>  <r_i_glide_metal>  (361) 
-0

>  <r_i_glide_rewards>  (361) 
-1.17543

>  <r_i_glide_evdw>  (361) 
-21.2533

>  <r_i_glide_ecoul>  (361) 
-0.660743

>  <r_i_glide_erotb>  (361) 
0

>  <r_i_glide_esite>  (361) 
-0.0553344

>  <r_i_glide_emodel>  (361) 
-24.9826

>  <r_i_glide_energy>  (361) 
-21.914

>  <r_i_glide_einternal>  (361) 
0.173921

>  <r_i_glide_intrahb_reward>  (361) 
-0

>  <i_i_glide_confnum>  (361) 
2

>  <i_i_glide_posenum>  (361) 
22

>  <r_i_glide_eff_state_penalty>  (361) 
0

>  <ligand_id>  (361) 
107

>  <original_smiles>  (361) 
CC=C1CC23CC(=NC)c4ccc(F)cc4C2CC2CCC1N2C3=O

>  <smiles>  (361) 
[H]C(=C1C([H])([H])C23C(=O)N4C1([H])C([H])([H])C([H])([H])C4([H])C([H])([H])C2([H])c1c([H])c(F)c([H])c([H])c1C(N([H])C([H])([H])[H])=C3[H])C([H])([H])[H]

$$$$
107:3:1
     RDKit          3D

 48 52  0  0  1  0  0  0  0  0999 V2000
   -2.1445   -8.3605    2.8084 C   0  0  0  0  0  0  0  0  0  0  0  0
   -0.7135   -8.6518    2.4182 C   0  0  0  0  0  0  0  0  0  0  0  0
    0.2893   -9.1769    3.1544 C   0  0  0  0  0  0  0  0  0  0  0  0
    1.6282   -9.4858    2.4555 C   0  0  0  0  0  0  0  0  0  0  0  0
    2.8867   -9.1904    3.3138 C   0  0  1  0  0  0  0  0  0  0  0  0
    4.1144   -9.7174    2.5946 C   0  0  0  0  0  0  0  0  0  0  0  0
    5.1432   -8.9804    2.1456 C   0  0  0  0  0  0  0  0  0  0  0  0
    6.2751   -9.5425    1.5793 N   0  0  0  0  0  0  0  0  0  0  0  0
    6.4348  -10.9130    1.1366 C   0  0  0  0  0  0  0  0  0  0  0  0
    5.1259   -7.5121    2.2362 C   0  0  0  0  0  0  0  0  0  0  0  0
    6.1048   -6.7342    1.5612 C   0  0  0  0  0  0  0  0  0  0  0  0
    6.0622   -5.3333    1.5928 C   0  0  0  0  0  0  0  0  0  0  0  0
    5.0435   -4.6839    2.3035 C   0  0  0  0  0  0  0  0  0  0  0  0
    4.9961   -3.3310    2.3342 F   0  0  0  0  0  0  0  0  0  0  0  0
    4.0622   -5.4403    2.9730 C   0  0  0  0  0  0  0  0  0  0  0  0
    4.0891   -6.8547    2.9449 C   0  0  0  0  0  0  0  0  0  0  0  0
    2.9539   -7.6336    3.6267 C   0  0  2  0  0  0  0  0  0  0  0  0
    2.8602   -7.3032    5.1516 C   0  0  0  0  0  0  0  0  0  0  0  0
    1.7530   -8.1297    5.8735 C   0  0  1  0  0  0  0  0  0  0  0  0
    0.3680   -7.4666    5.8264 C   0  0  0  0  0  0  0  0  0  0  0  0
   -0.5707   -8.6379    5.5830 C   0  0  0  0  0  0  0  0  0  0  0  0
    0.2460   -9.5534    4.6641 C   0  0  2  0  0  0  0  0  0  0  0  0
    1.5841   -9.4681    5.2760 N   0  0  0  0  0  0  0  0  0  0  0  0
    2.6233   -9.9748    4.6064 C   0  0  0  0  0  0  0  0  0  0  0  0
    3.2844  -10.9524    4.9595 O   0  0  0  0  0  0  0  0  0  0  0  0
   -2.7676   -8.4412    1.9236 H   0  0  0  0  0  0  0  0  0  0  0  0
   -2.2339   -7.3531    3.2077 H   0  0  0  0  0  0  0  0  0  0  0  0
   -2.5227   -9.0872    3.5230 H   0  0  0  0  0  0  0  0  0  0  0  0
   -0.5056   -8.4172    1.3837 H   0  0  0  0  0  0  0  0  0  0  0  0
    1.6091  -10.5479    2.2104 H   0  0  0  0  0  0  0  0  0  0  0  0
    1.6929   -8.9636    1.5000 H   0  0  0  0  0  0  0  0  0  0  0  0
    7.4686  -11.1182    0.8947 H   0  0  0  0  0  0  0  0  0  0  0  0
    5.8548  -11.0569    0.2277 H   0  0  0  0  0  0  0  0  0  0  0  0
    6.1242  -11.6381    1.8905 H   0  0  0  0  0  0  0  0  0  0  0  0
    6.8902   -7.1931    0.9810 H   0  0  0  0  0  0  0  0  0  0  0  0
    6.8044   -4.7593    1.0594 H   0  0  0  0  0  0  0  0  0  0  0  0
    3.2729   -4.9217    3.4947 H   0  0  0  0  0  0  0  0  0  0  0  0
    2.0575   -7.1848    3.1928 H   0  0  0  0  0  0  0  0  0  0  0  0
    3.8172   -7.5320    5.6179 H   0  0  0  0  0  0  0  0  0  0  0  0
    2.7002   -6.2392    5.3226 H   0  0  0  0  0  0  0  0  0  0  0  0
    2.0274   -8.2763    6.9195 H   0  0  0  0  0  0  0  0  0  0  0  0
    0.1325   -6.9227    6.7416 H   0  0  0  0  0  0  0  0  0  0  0  0
    0.2967   -6.7670    4.9897 H   0  0  0  0  0  0  0  0  0  0  0  0
   -0.7270   -9.1680    6.5225 H   0  0  0  0  0  0  0  0  0  0  0  0
   -1.5553   -8.3412    5.2440 H   0  0  0  0  0  0  0  0  0  0  0  0
   -0.1091  -10.5790    4.7359 H   0  0  0  0  0  0  0  0  0  0  0  0
    4.1560  -10.7946    2.5164 H   0  0  0  0  0  0  0  0  0  0  0  0
    7.0117   -8.9104    1.3024 H   0  0  0  0  0  0  0  0  0  0  0  0
  1  2  1  0
  1 26  1  0
  1 27  1  0
  1 28  1  0
  2  3  2  3
  2 29  1  0
  3 22  1  0
  3  4  1  0
  5  4  1  6
  4 30  1  0
  4 31  1  0
  5 17  1  0
  5 24  1  0
  5  6  1  0
  6 47  1  0
  6  7  2  0
  7 10  1  0
  7  8  1  0
  8  9  1  0
  8 48  1  0
  9 32  1  0
  9 33  1  0
  9 34  1  0
 10 16  2  0
 10 11  1  0
 11 12  2  0
 11 35  1  0
 12 13  1  0
 12 36  1  0
 13 14  1  0
 13 15  2  0
 15 16  1  0
 15 37  1  0
 16 17  1  0
 17 18  1  0
 17 38  1  6
 18 19  1  0
 18 39  1  0
 18 40  1  0
 19 23  1  0
 19 20  1  0
 19 41  1  1
 20 21  1  0
 20 42  1  0
 20 43  1  0
 21 22  1  0
 21 44  1  0
 21 45  1  0
 22 23  1  0
 22 46  1  6
 23 24  1  0
 24 25  2  0
M  END
>  <i_m_ct_stereo_status>  (362) 
1

>  <s_m_source_file>  (362) 
/var/tmp/pbs.5076255.sched01/tmpp4327t_d/123x5hmlc3y.sdf

>  <i_m_source_file_index>  (362) 
26

>  <i_lp_mmshare_version>  (362) 
48012

>  <i_f3d_flags>  (362) 
0

>  <s_epik_input>  (362) 
W0NIM10vW0NIXT1DKFxbQ0gyXTEpW0NAQEhdKFtDSDJdW0NIMl0yKU4oQzM9TylbQ0BIXTJbQ0gyXVtDQEhdKFtDQF0xMzQpYzVjKEMoXFtDSDJdNCk9TlxbQ0gzXSlbY0hdW2NIXWMoRilbY0hdNQ==

>  <s_epik_cmdline>  (362) 
J2VwaWtfcHl0aG9uJywgJy1waHQnLCAnMi4wJywgJy1waCcsICc3LjAnLCAnLXRuJywgJzgnLCAnLW1hJywgJzIwMCcsICctaW1hZScsICc8aW5maWxlLm1hZT4nLCAnLW9tYWUnLCAnPG91dGZpbGUubWFlPic=

>  <r_lp_tautomer_probability>  (362) 
1

>  <r_epik_Ionization_Penalty>  (362) 
0.000337918

>  <r_epik_Ionization_Penalty_Charging>  (362) 
0.000123933

>  <r_epik_Ionization_Penalty_Neutral>  (362) 
0.000213985

>  <r_epik_State_Penalty>  (362) 
-0

>  <r_epik_Charging_Adjusted_Penalty>  (362) 
0.000123933

>  <i_epik_Tot_Q>  (362) 
0

>  <i_epik_Tot_abs_Q>  (362) 
0

>  <s_epik_Chemistry_Notes>  (362) 
This compound has an imine and may undergo hydrolysis.

>  <s_lp_Force_Field>  (362) 
OPLS3e

>  <r_lp_Energy>  (362) 
69.4116

>  <b_lp_Chiralities_Consistent>  (362) 
1

>  <s_lp_Variant>  (362) 
107:0-4

>  <s_i_glide_gridfile>  (362) 
pfpi4k_grid

>  <i_i_glide_lignum>  (362) 
26

>  <i_i_glide_rotatable_bonds>  (362) 
1

>  <r_i_docking_score>  (362) 
-2.31095

>  <r_i_glide_ligand_efficiency>  (362) 
-0.0924379

>  <r_i_glide_ligand_efficiency_sa>  (362) 
-0.27029

>  <r_i_glide_ligand_efficiency_ln>  (362) 
-0.547764

>  <r_i_glide_gscore>  (362) 
-2.31095

>  <r_i_glide_lipo>  (362) 
-0.276017

>  <r_i_glide_hbond>  (362) 
0

>  <r_i_glide_metal>  (362) 
-0

>  <r_i_glide_rewards>  (362) 
-1.16044

>  <r_i_glide_evdw>  (362) 
-19.3321

>  <r_i_glide_ecoul>  (362) 
0.966494

>  <r_i_glide_erotb>  (362) 
0

>  <r_i_glide_esite>  (362) 
-0.0528603

>  <r_i_glide_emodel>  (362) 
-21.3892

>  <r_i_glide_energy>  (362) 
-18.3656

>  <r_i_glide_einternal>  (362) 
0.140349

>  <r_i_glide_intrahb_reward>  (362) 
-0

>  <i_i_glide_confnum>  (362) 
1

>  <i_i_glide_posenum>  (362) 
26

>  <r_i_glide_eff_state_penalty>  (362) 
0

>  <ligand_id>  (362) 
107

>  <original_smiles>  (362) 
CC=C1CC23CC(=NC)c4ccc(F)cc4C2CC2CCC1N2C3=O

>  <smiles>  (362) 
[H]C(=C1C([H])([H])C23C(=O)N4C1([H])C([H])([H])C([H])([H])C4([H])C([H])([H])C2([H])c1c([H])c(F)c([H])c([H])c1C(N([H])C([H])([H])[H])=C3[H])C([H])([H])[H]

$$$$
107:3:2
     RDKit          3D

 48 52  0  0  1  0  0  0  0  0999 V2000
   -1.8487   -9.2757    2.8330 C   0  0  0  0  0  0  0  0  0  0  0  0
   -1.0147   -8.2012    2.1821 C   0  0  0  0  0  0  0  0  0  0  0  0
    0.3188   -8.1294    2.0065 C   0  0  0  0  0  0  0  0  0  0  0  0
    0.8823   -6.9579    1.1776 C   0  0  0  0  0  0  0  0  0  0  0  0
    2.2265   -6.3772    1.6997 C   0  0  1  0  0  0  0  0  0  0  0  0
    2.7760   -5.3664    0.7006 C   0  0  0  0  0  0  0  0  0  0  0  0
    2.9815   -4.0587    0.9260 C   0  0  0  0  0  0  0  0  0  0  0  0
    3.5920   -3.2551   -0.0285 N   0  0  0  0  0  0  0  0  0  0  0  0
    4.7812   -2.4255    0.1648 C   0  0  0  0  0  0  0  0  0  0  0  0
    2.5618   -3.4337    2.1960 C   0  0  0  0  0  0  0  0  0  0  0  0
    2.4959   -2.0214    2.3230 C   0  0  0  0  0  0  0  0  0  0  0  0
    2.0924   -1.4190    3.5202 C   0  0  0  0  0  0  0  0  0  0  0  0
    1.6711   -2.2132    4.5953 C   0  0  0  0  0  0  0  0  0  0  0  0
    1.2349   -1.6346    5.7437 F   0  0  0  0  0  0  0  0  0  0  0  0
    1.6675   -3.6147    4.4650 C   0  0  0  0  0  0  0  0  0  0  0  0
    2.1109   -4.2387    3.2744 C   0  0  0  0  0  0  0  0  0  0  0  0
    2.0025   -5.7675    3.1519 C   0  0  2  0  0  0  0  0  0  0  0  0
    2.8239   -6.4906    4.2671 C   0  0  0  0  0  0  0  0  0  0  0  0
    2.7775   -8.0431    4.1343 C   0  0  1  0  0  0  0  0  0  0  0  0
    1.5798   -8.6817    4.8566 C   0  0  0  0  0  0  0  0  0  0  0  0
    1.1261   -9.7708    3.8978 C   0  0  0  0  0  0  0  0  0  0  0  0
    1.3812   -9.1431    2.5175 C   0  0  2  0  0  0  0  0  0  0  0  0
    2.6815   -8.4737    2.7241 N   0  0  0  0  0  0  0  0  0  0  0  0
    3.1282   -7.6226    1.7894 C   0  0  0  0  0  0  0  0  0  0  0  0
    4.1103   -7.8108    1.0674 O   0  0  0  0  0  0  0  0  0  0  0  0
   -2.8310   -9.2938    2.3725 H   0  0  0  0  0  0  0  0  0  0  0  0
   -1.9709   -9.0542    3.8906 H   0  0  0  0  0  0  0  0  0  0  0  0
   -1.4168  -10.2532    2.6903 H   0  0  0  0  0  0  0  0  0  0  0  0
   -1.6081   -7.3990    1.7821 H   0  0  0  0  0  0  0  0  0  0  0  0
    1.0219   -7.3364    0.1673 H   0  0  0  0  0  0  0  0  0  0  0  0
    0.1308   -6.1748    1.1002 H   0  0  0  0  0  0  0  0  0  0  0  0
    4.9358   -1.7848   -0.7055 H   0  0  0  0  0  0  0  0  0  0  0  0
    5.6690   -3.0458    0.3019 H   0  0  0  0  0  0  0  0  0  0  0  0
    4.7158   -1.7709    1.0359 H   0  0  0  0  0  0  0  0  0  0  0  0
    2.7246   -1.3727    1.4901 H   0  0  0  0  0  0  0  0  0  0  0  0
    2.0823   -0.3424    3.5945 H   0  0  0  0  0  0  0  0  0  0  0  0
    1.2925   -4.2118    5.2840 H   0  0  0  0  0  0  0  0  0  0  0  0
    0.9584   -5.9604    3.4155 H   0  0  0  0  0  0  0  0  0  0  0  0
    3.8620   -6.1746    4.1892 H   0  0  0  0  0  0  0  0  0  0  0  0
    2.4924   -6.1971    5.2632 H   0  0  0  0  0  0  0  0  0  0  0  0
    3.6909   -8.4758    4.5469 H   0  0  0  0  0  0  0  0  0  0  0  0
    1.8426   -9.0820    5.8362 H   0  0  0  0  0  0  0  0  0  0  0  0
    0.7685   -7.9609    4.9937 H   0  0  0  0  0  0  0  0  0  0  0  0
    1.7865  -10.6314    4.0060 H   0  0  0  0  0  0  0  0  0  0  0  0
    0.1303  -10.1435    4.1166 H   0  0  0  0  0  0  0  0  0  0  0  0
    1.4895   -9.9205    1.7621 H   0  0  0  0  0  0  0  0  0  0  0  0
    3.0935   -5.7849   -0.2452 H   0  0  0  0  0  0  0  0  0  0  0  0
    3.4405   -3.5261   -0.9934 H   0  0  0  0  0  0  0  0  0  0  0  0
  1  2  1  0
  1 26  1  0
  1 27  1  0
  1 28  1  0
  2  3  2  3
  2 29  1  0
  3 22  1  0
  3  4  1  0
  5  4  1  6
  4 30  1  0
  4 31  1  0
  5 17  1  0
  5 24  1  0
  5  6  1  0
  6 47  1  0
  6  7  2  0
  7 10  1  0
  7  8  1  0
  8  9  1  0
  8 48  1  0
  9 32  1  0
  9 33  1  0
  9 34  1  0
 10 16  2  0
 10 11  1  0
 11 12  2  0
 11 35  1  0
 12 13  1  0
 12 36  1  0
 13 14  1  0
 13 15  2  0
 15 16  1  0
 15 37  1  0
 16 17  1  0
 17 18  1  0
 17 38  1  1
 18 19  1  0
 18 39  1  0
 18 40  1  0
 19 23  1  0
 19 20  1  0
 19 41  1  1
 20 21  1  0
 20 42  1  0
 20 43  1  0
 21 22  1  0
 21 44  1  0
 21 45  1  0
 22 23  1  0
 22 46  1  6
 23 24  1  0
 24 25  2  0
M  END
>  <i_m_ct_stereo_status>  (363) 
1

>  <s_m_source_file>  (363) 
/var/tmp/pbs.5076255.sched01/tmpp4327t_d/123x5hmlc3y.sdf

>  <i_m_source_file_index>  (363) 
26

>  <i_lp_mmshare_version>  (363) 
48012

>  <i_f3d_flags>  (363) 
0

>  <s_epik_input>  (363) 
W0NIM10vW0NIXT1DKFxbQ0gyXTEpW0NAQEhdKFtDSDJdW0NIMl0yKU4oQzM9TylbQ0BIXTJbQ0gyXVtDQEhdKFtDQF0xMzQpYzVjKEMoXFtDSDJdNCk9TlxbQ0gzXSlbY0hdW2NIXWMoRilbY0hdNQ==

>  <s_epik_cmdline>  (363) 
J2VwaWtfcHl0aG9uJywgJy1waHQnLCAnMi4wJywgJy1waCcsICc3LjAnLCAnLXRuJywgJzgnLCAnLW1hJywgJzIwMCcsICctaW1hZScsICc8aW5maWxlLm1hZT4nLCAnLW9tYWUnLCAnPG91dGZpbGUubWFlPic=

>  <r_lp_tautomer_probability>  (363) 
1

>  <r_epik_Ionization_Penalty>  (363) 
0.000337918

>  <r_epik_Ionization_Penalty_Charging>  (363) 
0.000123933

>  <r_epik_Ionization_Penalty_Neutral>  (363) 
0.000213985

>  <r_epik_State_Penalty>  (363) 
-0

>  <r_epik_Charging_Adjusted_Penalty>  (363) 
0.000123933

>  <i_epik_Tot_Q>  (363) 
0

>  <i_epik_Tot_abs_Q>  (363) 
0

>  <s_epik_Chemistry_Notes>  (363) 
This compound has an imine and may undergo hydrolysis.

>  <s_lp_Force_Field>  (363) 
OPLS3e

>  <r_lp_Energy>  (363) 
69.4116

>  <b_lp_Chiralities_Consistent>  (363) 
1

>  <s_lp_Variant>  (363) 
107:0-4

>  <s_i_glide_gridfile>  (363) 
pfpi4k_grid

>  <i_i_glide_lignum>  (363) 
26

>  <i_i_glide_rotatable_bonds>  (363) 
1

>  <r_i_docking_score>  (363) 
-2.19903

>  <r_i_glide_ligand_efficiency>  (363) 
-0.0879611

>  <r_i_glide_ligand_efficiency_sa>  (363) 
-0.2572

>  <r_i_glide_ligand_efficiency_ln>  (363) 
-0.521235

>  <r_i_glide_gscore>  (363) 
-2.19903

>  <r_i_glide_lipo>  (363) 
-0.0460559

>  <r_i_glide_hbond>  (363) 
0

>  <r_i_glide_metal>  (363) 
-0

>  <r_i_glide_rewards>  (363) 
-1.1273

>  <r_i_glide_evdw>  (363) 
-20.5151

>  <r_i_glide_ecoul>  (363) 
0.0548877

>  <r_i_glide_erotb>  (363) 
0

>  <r_i_glide_esite>  (363) 
-0.00814373

>  <r_i_glide_emodel>  (363) 
-20.3315

>  <r_i_glide_energy>  (363) 
-20.4603

>  <r_i_glide_einternal>  (363) 
5.79926

>  <r_i_glide_intrahb_reward>  (363) 
-0

>  <i_i_glide_confnum>  (363) 
1

>  <i_i_glide_posenum>  (363) 
2

>  <r_i_glide_eff_state_penalty>  (363) 
0

>  <ligand_id>  (363) 
107

>  <original_smiles>  (363) 
CC=C1CC23CC(=NC)c4ccc(F)cc4C2CC2CCC1N2C3=O

>  <smiles>  (363) 
[H]C(=C1C([H])([H])C23C(=O)N4C1([H])C([H])([H])C([H])([H])C4([H])C([H])([H])C2([H])c1c([H])c(F)c([H])c([H])c1C(N([H])C([H])([H])[H])=C3[H])C([H])([H])[H]

$$$$
108:0:0
     RDKit          3D

 44 46  0  0  1  0  0  0  0  0999 V2000
    1.4483    2.6794    2.4417 N   0  0  0  0  0  0  0  0  0  0  0  0
    0.4938    2.3233    3.5280 C   0  0  1  0  0  0  0  0  0  0  0  0
   -0.8595    2.1308    2.8040 C   0  0  0  0  0  0  0  0  0  0  0  0
   -1.3779    0.8361    3.0720 O   0  0  0  0  0  0  0  0  0  0  0  0
    1.0276    1.0825    4.3004 C   0  0  0  0  0  0  0  0  0  0  0  0
    0.2309    0.7939    5.5899 C   0  0  0  0  0  0  0  0  0  0  0  0
    0.2168    1.9691    6.3975 O   0  0  0  0  0  0  0  0  0  0  0  0
   -0.3967    3.1249    5.8065 C   0  0  1  0  0  0  0  0  0  0  0  0
   -1.9019    2.8838    5.4881 C   0  0  0  0  0  0  0  0  0  0  0  0
   -2.7601    2.7319    6.7152 C   0  0  0  0  0  0  0  0  0  0  0  0
   -2.5928    3.8016    7.6353 O   0  0  0  0  0  0  0  0  0  0  0  0
   -1.2404    4.0175    8.0570 C   0  0  0  0  0  0  0  0  0  0  0  0
   -1.2564    5.2082    9.0316 C   0  0  0  0  0  0  0  0  0  0  0  0
   -1.7054    4.5908   10.3552 C   0  0  0  0  0  0  0  0  0  0  0  0
   -1.2183    3.1337   10.3394 C   0  0  0  0  0  0  0  0  0  0  0  0
   -0.7671    2.8299    8.9204 C   0  0  0  0  0  0  0  0  0  0  0  0
   -0.3157    4.2786    6.8492 C   0  0  0  0  0  0  0  0  0  0  0  0
    0.4412    3.4792    4.5646 C   0  0  0  0  0  0  0  0  0  0  0  0
    1.4382    1.9326    1.7613 H   0  0  0  0  0  0  0  0  0  0  0  0
    2.3689    2.8385    2.7939 H   0  0  0  0  0  0  0  0  0  0  0  0
   -1.6140    2.8370    3.1419 H   0  0  0  0  0  0  0  0  0  0  0  0
   -0.7643    2.1965    1.7220 H   0  0  0  0  0  0  0  0  0  0  0  0
   -2.3001    0.8182    2.9511 H   0  0  0  0  0  0  0  0  0  0  0  0
    1.0309    0.1910    3.6694 H   0  0  0  0  0  0  0  0  0  0  0  0
    2.0686    1.2201    4.5813 H   0  0  0  0  0  0  0  0  0  0  0  0
   -0.7966    0.5055    5.3612 H   0  0  0  0  0  0  0  0  0  0  0  0
    0.7010   -0.0178    6.1648 H   0  0  0  0  0  0  0  0  0  0  0  0
   -2.2445    3.7662    4.9184 H   0  0  0  0  0  0  0  0  0  0  0  0
   -2.0361    2.0164    4.8502 H   0  0  0  0  0  0  0  0  0  0  0  0
   -3.8000    2.7141    6.4185 H   0  0  0  0  0  0  0  0  0  0  0  0
   -2.5460    1.8005    7.2166 H   0  0  0  0  0  0  0  0  0  0  0  0
   -0.2384    5.6053    9.1266 H   0  0  0  0  0  0  0  0  0  0  0  0
   -1.9000    6.0232    8.6857 H   0  0  0  0  0  0  0  0  0  0  0  0
   -1.3069    5.1492   11.1998 H   0  0  0  0  0  0  0  0  0  0  0  0
   -2.7978    4.6150   10.4097 H   0  0  0  0  0  0  0  0  0  0  0  0
   -0.3831    2.9825   11.0197 H   0  0  0  0  0  0  0  0  0  0  0  0
   -2.0249    2.4651   10.6375 H   0  0  0  0  0  0  0  0  0  0  0  0
   -1.1372    1.8635    8.5778 H   0  0  0  0  0  0  0  0  0  0  0  0
    0.3289    2.8060    8.9024 H   0  0  0  0  0  0  0  0  0  0  0  0
    0.7178    4.4467    7.1878 H   0  0  0  0  0  0  0  0  0  0  0  0
   -0.5893    5.2175    6.3635 H   0  0  0  0  0  0  0  0  0  0  0  0
    1.4562    3.7134    4.8954 H   0  0  0  0  0  0  0  0  0  0  0  0
    0.1006    4.4097    4.1117 H   0  0  0  0  0  0  0  0  0  0  0  0
    1.0957    3.5357    1.9702 H   0  0  0  0  0  0  0  0  0  0  0  0
  1  2  1  0
  1 19  1  0
  1 20  1  0
  1 44  1  0
  2 18  1  0
  2  3  1  6
  2  5  1  0
  3  4  1  0
  3 21  1  0
  3 22  1  0
  4 23  1  0
  5  6  1  0
  5 24  1  0
  5 25  1  0
  6  7  1  0
  6 26  1  0
  6 27  1  0
  8  7  1  1
  8 17  1  0
  8  9  1  0
  8 18  1  0
  9 10  1  0
  9 28  1  0
  9 29  1  0
 10 11  1  0
 10 30  1  0
 10 31  1  0
 11 12  1  0
 12 16  1  0
 12 13  1  0
 12 17  1  0
 13 14  1  0
 13 32  1  0
 13 33  1  0
 14 15  1  0
 14 34  1  0
 14 35  1  0
 15 16  1  0
 15 36  1  0
 15 37  1  0
 16 38  1  0
 16 39  1  0
 17 40  1  0
 17 41  1  0
 18 42  1  0
 18 43  1  0
M  CHG  1   1   1
M  END
>  <i_m_ct_stereo_status>  (364) 
1

>  <s_m_source_file>  (364) 
/var/tmp/pbs.5076255.sched01/tmpp4327t_d/123x5hmlc3y.sdf

>  <i_m_source_file_index>  (364) 
27

>  <i_lp_mmshare_version>  (364) 
48012

>  <i_f3d_flags>  (364) 
0

>  <s_epik_input>  (364) 
W09IXVtDSDJdW0NAQF0oW05IMl0pKFtDSDJdMSlbQ0gyXVtDSDJdT1tDQF0xMltDSDJdW0NIMl1PQzMoW0NIMl0yKVtDSDJdW0NIMl1bQ0gyXVtDSDJdMw==

>  <s_epik_cmdline>  (364) 
J2VwaWtfcHl0aG9uJywgJy1waHQnLCAnMi4wJywgJy1waCcsICc3LjAnLCAnLXRuJywgJzgnLCAnLW1hJywgJzIwMCcsICctaW1hZScsICc8aW5maWxlLm1hZT4nLCAnLW9tYWUnLCAnPG91dGZpbGUubWFlPic=

>  <r_epik_Ionization_Penalty>  (364) 
0.01957

>  <r_epik_Ionization_Penalty_Charging>  (364) 
0.0195689

>  <r_epik_Ionization_Penalty_Neutral>  (364) 
1.06308e-06

>  <r_epik_State_Penalty>  (364) 
0.0156367

>  <r_epik_Charging_Adjusted_Penalty>  (364) 
0.0352056

>  <i_epik_Tot_Q>  (364) 
1

>  <i_epik_Tot_abs_Q>  (364) 
1

>  <s_lp_Force_Field>  (364) 
OPLS3e

>  <r_lp_Energy>  (364) 
26.9243

>  <b_lp_Chiralities_Consistent>  (364) 
1

>  <s_lp_Variant>  (364) 
108:0-1

>  <s_i_glide_gridfile>  (364) 
pfpi4k_grid

>  <i_i_glide_lignum>  (364) 
27

>  <i_i_glide_rotatable_bonds>  (364) 
2

>  <r_i_docking_score>  (364) 
-4.37959

>  <r_i_glide_ligand_efficiency>  (364) 
-0.24331

>  <r_i_glide_ligand_efficiency_sa>  (364) 
-0.637654

>  <r_i_glide_ligand_efficiency_ln>  (364) 
-1.12575

>  <r_i_glide_gscore>  (364) 
-4.37959

>  <r_i_glide_lipo>  (364) 
-0.217836

>  <r_i_glide_hbond>  (364) 
-0.52

>  <r_i_glide_metal>  (364) 
-0

>  <r_i_glide_rewards>  (364) 
-1.66117

>  <r_i_glide_evdw>  (364) 
-11.228

>  <r_i_glide_ecoul>  (364) 
-8.81621

>  <r_i_glide_erotb>  (364) 
0

>  <r_i_glide_esite>  (364) 
-0.0967481

>  <r_i_glide_emodel>  (364) 
-19.444

>  <r_i_glide_energy>  (364) 
-20.0442

>  <r_i_glide_einternal>  (364) 
12.949

>  <r_i_glide_intrahb_reward>  (364) 
-0

>  <i_i_glide_confnum>  (364) 
4

>  <i_i_glide_posenum>  (364) 
21

>  <r_i_glide_eff_state_penalty>  (364) 
0

>  <ligand_id>  (364) 
108

>  <original_smiles>  (364) 
NC1(CO)CCOC2(CCOC3(CCCC3)C2)C1

>  <smiles>  (364) 
[H]OC([H])([H])C1([N+]([H])([H])[H])C([H])([H])C([H])([H])OC2(C([H])([H])C([H])([H])OC3(C([H])([H])C([H])([H])C([H])([H])C3([H])[H])C2([H])[H])C1([H])[H]

$$$$
108:0:1
     RDKit          3D

 44 46  0  0  1  0  0  0  0  0999 V2000
    1.2604    0.9147    1.2882 N   0  0  0  0  0  0  0  0  0  0  0  0
    0.8659    1.4705    2.6053 C   0  0  1  0  0  0  0  0  0  0  0  0
   -0.6542    1.7941    2.5093 C   0  0  0  0  0  0  0  0  0  0  0  0
   -1.3841    0.8828    1.6979 O   0  0  0  0  0  0  0  0  0  0  0  0
    1.1860    0.4527    3.7087 C   0  0  0  0  0  0  0  0  0  0  0  0
    1.0681    1.0615    5.1222 C   0  0  0  0  0  0  0  0  0  0  0  0
    1.8629    2.2584    5.1876 O   0  0  0  0  0  0  0  0  0  0  0  0
    1.5057    3.3014    4.2666 C   0  0  1  0  0  0  0  0  0  0  0  0
    0.0696    3.8788    4.4989 C   0  0  0  0  0  0  0  0  0  0  0  0
   -0.1299    4.5754    5.8149 C   0  0  0  0  0  0  0  0  0  0  0  0
    0.8358    5.6501    5.9675 O   0  0  0  0  0  0  0  0  0  0  0  0
    2.1924    5.1990    5.8504 C   0  0  0  0  0  0  0  0  0  0  0  0
    3.0251    6.4821    5.9960 C   0  0  0  0  0  0  0  0  0  0  0  0
    3.5996    6.4553    7.4117 C   0  0  0  0  0  0  0  0  0  0  0  0
    2.8594    5.3481    8.1584 C   0  0  0  0  0  0  0  0  0  0  0  0
    2.5634    4.3261    7.0842 C   0  0  0  0  0  0  0  0  0  0  0  0
    2.4835    4.5001    4.5039 C   0  0  0  0  0  0  0  0  0  0  0  0
    1.7439    2.7419    2.8487 C   0  0  0  0  0  0  0  0  0  0  0  0
    0.6443    0.1221    1.0887 H   0  0  0  0  0  0  0  0  0  0  0  0
    2.2221    0.6157    1.2569 H   0  0  0  0  0  0  0  0  0  0  0  0
   -1.1655    1.6350    3.4714 H   0  0  0  0  0  0  0  0  0  0  0  0
   -0.8571    2.8047    2.1468 H   0  0  0  0  0  0  0  0  0  0  0  0
   -1.2134    0.9651    0.7692 H   0  0  0  0  0  0  0  0  0  0  0  0
    0.5236   -0.4250    3.6274 H   0  0  0  0  0  0  0  0  0  0  0  0
    2.2112    0.0840    3.5991 H   0  0  0  0  0  0  0  0  0  0  0  0
    0.0270    1.2471    5.3830 H   0  0  0  0  0  0  0  0  0  0  0  0
    1.4017    0.3597    5.8902 H   0  0  0  0  0  0  0  0  0  0  0  0
   -0.1840    4.5334    3.6554 H   0  0  0  0  0  0  0  0  0  0  0  0
   -0.6967    3.1328    4.6375 H   0  0  0  0  0  0  0  0  0  0  0  0
   -1.1650    4.9364    5.8398 H   0  0  0  0  0  0  0  0  0  0  0  0
   -0.0940    3.8197    6.5965 H   0  0  0  0  0  0  0  0  0  0  0  0
    3.8335    6.5088    5.2645 H   0  0  0  0  0  0  0  0  0  0  0  0
    2.4105    7.3654    5.8159 H   0  0  0  0  0  0  0  0  0  0  0  0
    4.6543    6.1863    7.3608 H   0  0  0  0  0  0  0  0  0  0  0  0
    3.5015    7.4155    7.9128 H   0  0  0  0  0  0  0  0  0  0  0  0
    3.4310    4.8934    8.9676 H   0  0  0  0  0  0  0  0  0  0  0  0
    1.9166    5.7290    8.5653 H   0  0  0  0  0  0  0  0  0  0  0  0
    1.8320    3.6133    7.4449 H   0  0  0  0  0  0  0  0  0  0  0  0
    3.4548    3.7375    6.8418 H   0  0  0  0  0  0  0  0  0  0  0  0
    3.5419    4.1846    4.4322 H   0  0  0  0  0  0  0  0  0  0  0  0
    2.3363    5.2088    3.6809 H   0  0  0  0  0  0  0  0  0  0  0  0
    2.7986    2.4803    2.7262 H   0  0  0  0  0  0  0  0  0  0  0  0
    1.5712    3.4937    2.0822 H   0  0  0  0  0  0  0  0  0  0  0  0
    1.0489    1.6123    0.6223 H   0  0  0  0  0  0  0  0  0  0  0  0
  1  2  1  0
  1 19  1  0
  1 20  1  0
  1 44  1  0
  2 18  1  0
  2  3  1  6
  2  5  1  0
  3  4  1  0
  3 21  1  0
  3 22  1  0
  4 23  1  0
  5  6  1  0
  5 24  1  0
  5 25  1  0
  6  7  1  0
  6 26  1  0
  6 27  1  0
  8  7  1  1
  8 17  1  0
  8  9  1  0
  8 18  1  0
  9 10  1  0
  9 28  1  0
  9 29  1  0
 10 11  1  0
 10 30  1  0
 10 31  1  0
 11 12  1  0
 12 16  1  0
 12 13  1  0
 12 17  1  0
 13 14  1  0
 13 32  1  0
 13 33  1  0
 14 15  1  0
 14 34  1  0
 14 35  1  0
 15 16  1  0
 15 36  1  0
 15 37  1  0
 16 38  1  0
 16 39  1  0
 17 40  1  0
 17 41  1  0
 18 42  1  0
 18 43  1  0
M  CHG  1   1   1
M  END
>  <i_m_ct_stereo_status>  (365) 
1

>  <s_m_source_file>  (365) 
/var/tmp/pbs.5076255.sched01/tmpp4327t_d/123x5hmlc3y.sdf

>  <i_m_source_file_index>  (365) 
27

>  <i_lp_mmshare_version>  (365) 
48012

>  <i_f3d_flags>  (365) 
0

>  <s_epik_input>  (365) 
W09IXVtDSDJdW0NAQF0oW05IMl0pKFtDSDJdMSlbQ0gyXVtDSDJdT1tDQF0xMltDSDJdW0NIMl1PQzMoW0NIMl0yKVtDSDJdW0NIMl1bQ0gyXVtDSDJdMw==

>  <s_epik_cmdline>  (365) 
J2VwaWtfcHl0aG9uJywgJy1waHQnLCAnMi4wJywgJy1waCcsICc3LjAnLCAnLXRuJywgJzgnLCAnLW1hJywgJzIwMCcsICctaW1hZScsICc8aW5maWxlLm1hZT4nLCAnLW9tYWUnLCAnPG91dGZpbGUubWFlPic=

>  <r_epik_Ionization_Penalty>  (365) 
0.01957

>  <r_epik_Ionization_Penalty_Charging>  (365) 
0.0195689

>  <r_epik_Ionization_Penalty_Neutral>  (365) 
1.06308e-06

>  <r_epik_State_Penalty>  (365) 
0.0156367

>  <r_epik_Charging_Adjusted_Penalty>  (365) 
0.0352056

>  <i_epik_Tot_Q>  (365) 
1

>  <i_epik_Tot_abs_Q>  (365) 
1

>  <s_lp_Force_Field>  (365) 
OPLS3e

>  <r_lp_Energy>  (365) 
26.9243

>  <b_lp_Chiralities_Consistent>  (365) 
1

>  <s_lp_Variant>  (365) 
108:0-1

>  <s_i_glide_gridfile>  (365) 
pfpi4k_grid

>  <i_i_glide_lignum>  (365) 
27

>  <i_i_glide_rotatable_bonds>  (365) 
2

>  <r_i_docking_score>  (365) 
-3.32053

>  <r_i_glide_ligand_efficiency>  (365) 
-0.184474

>  <r_i_glide_ligand_efficiency_sa>  (365) 
-0.483458

>  <r_i_glide_ligand_efficiency_ln>  (365) 
-0.853525

>  <r_i_glide_gscore>  (365) 
-3.32053

>  <r_i_glide_lipo>  (365) 
0

>  <r_i_glide_hbond>  (365) 
-0.24886

>  <r_i_glide_metal>  (365) 
-0

>  <r_i_glide_rewards>  (365) 
-1.66117

>  <r_i_glide_evdw>  (365) 
-5.92817

>  <r_i_glide_ecoul>  (365) 
-6.93354

>  <r_i_glide_erotb>  (365) 
0

>  <r_i_glide_esite>  (365) 
-0.0740538

>  <r_i_glide_emodel>  (365) 
-16.5899

>  <r_i_glide_energy>  (365) 
-12.8617

>  <r_i_glide_einternal>  (365) 
0.0985701

>  <r_i_glide_intrahb_reward>  (365) 
-0

>  <i_i_glide_confnum>  (365) 
2

>  <i_i_glide_posenum>  (365) 
9

>  <r_i_glide_eff_state_penalty>  (365) 
0

>  <ligand_id>  (365) 
108

>  <original_smiles>  (365) 
NC1(CO)CCOC2(CCOC3(CCCC3)C2)C1

>  <smiles>  (365) 
[H]OC([H])([H])C1([N+]([H])([H])[H])C([H])([H])C([H])([H])OC2(C([H])([H])C([H])([H])OC3(C([H])([H])C([H])([H])C([H])([H])C3([H])[H])C2([H])[H])C1([H])[H]

$$$$
108:0:2
     RDKit          3D

 44 46  0  0  1  0  0  0  0  0999 V2000
    1.8350    0.2193    3.4857 N   0  0  0  0  0  0  0  0  0  0  0  0
    0.5455    0.5715    4.1104 C   0  0  1  0  0  0  0  0  0  0  0  0
   -0.3041    1.2215    2.9908 C   0  0  0  0  0  0  0  0  0  0  0  0
   -0.1265    0.6157    1.7573 O   0  0  0  0  0  0  0  0  0  0  0  0
   -0.1308   -0.6953    4.6902 C   0  0  0  0  0  0  0  0  0  0  0  0
   -1.3583   -0.3540    5.5645 C   0  0  0  0  0  0  0  0  0  0  0  0
   -0.9742    0.5778    6.5775 O   0  0  0  0  0  0  0  0  0  0  0  0
   -0.4725    1.8392    6.0945 C   0  0  1  0  0  0  0  0  0  0  0  0
   -1.5317    2.6355    5.2916 C   0  0  0  0  0  0  0  0  0  0  0  0
   -2.7213    3.0977    6.0866 C   0  0  0  0  0  0  0  0  0  0  0  0
   -2.2922    3.8771    7.2047 O   0  0  0  0  0  0  0  0  0  0  0  0
   -1.3822    3.1817    8.0631 C   0  0  0  0  0  0  0  0  0  0  0  0
   -1.0550    4.1390    9.1977 C   0  0  0  0  0  0  0  0  0  0  0  0
   -2.2322    3.9975   10.1554 C   0  0  0  0  0  0  0  0  0  0  0  0
   -2.7533    2.5631    9.9949 C   0  0  0  0  0  0  0  0  0  0  0  0
   -2.0763    1.9987    8.7622 C   0  0  0  0  0  0  0  0  0  0  0  0
   -0.1063    2.7333    7.3055 C   0  0  0  0  0  0  0  0  0  0  0  0
    0.8209    1.5307    5.2962 C   0  0  0  0  0  0  0  0  0  0  0  0
    1.5897   -0.3425    2.6703 H   0  0  0  0  0  0  0  0  0  0  0  0
    2.4460   -0.2761    4.1126 H   0  0  0  0  0  0  0  0  0  0  0  0
   -1.3723    1.0691    3.1210 H   0  0  0  0  0  0  0  0  0  0  0  0
   -0.0885    2.2825    2.9022 H   0  0  0  0  0  0  0  0  0  0  0  0
   -0.5822    1.1447    1.1106 H   0  0  0  0  0  0  0  0  0  0  0  0
   -0.4431   -1.3659    3.8861 H   0  0  0  0  0  0  0  0  0  0  0  0
    0.5716   -1.2496    5.3196 H   0  0  0  0  0  0  0  0  0  0  0  0
   -2.1871    0.0131    4.9599 H   0  0  0  0  0  0  0  0  0  0  0  0
   -1.7757   -1.2442    6.0374 H   0  0  0  0  0  0  0  0  0  0  0  0
   -1.0519    3.4536    4.7615 H   0  0  0  0  0  0  0  0  0  0  0  0
   -2.0805    2.0470    4.5899 H   0  0  0  0  0  0  0  0  0  0  0  0
   -3.3835    3.6290    5.3992 H   0  0  0  0  0  0  0  0  0  0  0  0
   -3.3147    2.2320    6.3799 H   0  0  0  0  0  0  0  0  0  0  0  0
   -0.1452    3.8015    9.6849 H   0  0  0  0  0  0  0  0  0  0  0  0
   -0.8938    5.1631    8.8611 H   0  0  0  0  0  0  0  0  0  0  0  0
   -1.9423    4.1965   11.1854 H   0  0  0  0  0  0  0  0  0  0  0  0
   -3.0182    4.6992    9.8768 H   0  0  0  0  0  0  0  0  0  0  0  0
   -2.4961    1.9369   10.8517 H   0  0  0  0  0  0  0  0  0  0  0  0
   -3.8375    2.5534    9.8746 H   0  0  0  0  0  0  0  0  0  0  0  0
   -2.7820    1.4295    8.1682 H   0  0  0  0  0  0  0  0  0  0  0  0
   -1.3156    1.2742    9.0509 H   0  0  0  0  0  0  0  0  0  0  0  0
    0.5834    2.2257    8.0028 H   0  0  0  0  0  0  0  0  0  0  0  0
    0.4294    3.6248    6.9498 H   0  0  0  0  0  0  0  0  0  0  0  0
    1.5601    1.0780    5.9714 H   0  0  0  0  0  0  0  0  0  0  0  0
    1.2722    2.4600    4.9533 H   0  0  0  0  0  0  0  0  0  0  0  0
    2.2602    1.0681    3.1453 H   0  0  0  0  0  0  0  0  0  0  0  0
  1  2  1  0
  1 19  1  0
  1 20  1  0
  1 44  1  0
  2 18  1  0
  2  3  1  6
  2  5  1  0
  3  4  1  0
  3 21  1  0
  3 22  1  0
  4 23  1  0
  5  6  1  0
  5 24  1  0
  5 25  1  0
  6  7  1  0
  6 26  1  0
  6 27  1  0
  8  7  1  1
  8 17  1  0
  8  9  1  0
  8 18  1  0
  9 10  1  0
  9 28  1  0
  9 29  1  0
 10 11  1  0
 10 30  1  0
 10 31  1  0
 11 12  1  0
 12 16  1  0
 12 13  1  0
 12 17  1  0
 13 14  1  0
 13 32  1  0
 13 33  1  0
 14 15  1  0
 14 34  1  0
 14 35  1  0
 15 16  1  0
 15 36  1  0
 15 37  1  0
 16 38  1  0
 16 39  1  0
 17 40  1  0
 17 41  1  0
 18 42  1  0
 18 43  1  0
M  CHG  1   1   1
M  END
>  <i_m_ct_stereo_status>  (366) 
1

>  <s_m_source_file>  (366) 
/var/tmp/pbs.5076255.sched01/tmpp4327t_d/123x5hmlc3y.sdf

>  <i_m_source_file_index>  (366) 
27

>  <i_lp_mmshare_version>  (366) 
48012

>  <i_f3d_flags>  (366) 
0

>  <s_epik_input>  (366) 
W09IXVtDSDJdW0NAQF0oW05IMl0pKFtDSDJdMSlbQ0gyXVtDSDJdT1tDQF0xMltDSDJdW0NIMl1PQzMoW0NIMl0yKVtDSDJdW0NIMl1bQ0gyXVtDSDJdMw==

>  <s_epik_cmdline>  (366) 
J2VwaWtfcHl0aG9uJywgJy1waHQnLCAnMi4wJywgJy1waCcsICc3LjAnLCAnLXRuJywgJzgnLCAnLW1hJywgJzIwMCcsICctaW1hZScsICc8aW5maWxlLm1hZT4nLCAnLW9tYWUnLCAnPG91dGZpbGUubWFlPic=

>  <r_epik_Ionization_Penalty>  (366) 
0.01957

>  <r_epik_Ionization_Penalty_Charging>  (366) 
0.0195689

>  <r_epik_Ionization_Penalty_Neutral>  (366) 
1.06308e-06

>  <r_epik_State_Penalty>  (366) 
0.0156367

>  <r_epik_Charging_Adjusted_Penalty>  (366) 
0.0352056

>  <i_epik_Tot_Q>  (366) 
1

>  <i_epik_Tot_abs_Q>  (366) 
1

>  <s_lp_Force_Field>  (366) 
OPLS3e

>  <r_lp_Energy>  (366) 
26.9243

>  <b_lp_Chiralities_Consistent>  (366) 
1

>  <s_lp_Variant>  (366) 
108:0-1

>  <s_i_glide_gridfile>  (366) 
pfpi4k_grid

>  <i_i_glide_lignum>  (366) 
27

>  <i_i_glide_rotatable_bonds>  (366) 
2

>  <r_i_docking_score>  (366) 
-3.25599

>  <r_i_glide_ligand_efficiency>  (366) 
-0.180888

>  <r_i_glide_ligand_efficiency_sa>  (366) 
-0.474062

>  <r_i_glide_ligand_efficiency_ln>  (366) 
-0.836936

>  <r_i_glide_gscore>  (366) 
-3.25599

>  <r_i_glide_lipo>  (366) 
-0.118965

>  <r_i_glide_hbond>  (366) 
-0.0900004

>  <r_i_glide_metal>  (366) 
-0

>  <r_i_glide_rewards>  (366) 
-1.66117

>  <r_i_glide_evdw>  (366) 
-12.4262

>  <r_i_glide_ecoul>  (366) 
-5.06355

>  <r_i_glide_erotb>  (366) 
0

>  <r_i_glide_esite>  (366) 
-0.00500783

>  <r_i_glide_emodel>  (366) 
-20.9892

>  <r_i_glide_energy>  (366) 
-17.4898

>  <r_i_glide_einternal>  (366) 
0.822126

>  <r_i_glide_intrahb_reward>  (366) 
-0

>  <i_i_glide_confnum>  (366) 
4

>  <i_i_glide_posenum>  (366) 
31

>  <r_i_glide_eff_state_penalty>  (366) 
0

>  <ligand_id>  (366) 
108

>  <original_smiles>  (366) 
NC1(CO)CCOC2(CCOC3(CCCC3)C2)C1

>  <smiles>  (366) 
[H]OC([H])([H])C1([N+]([H])([H])[H])C([H])([H])C([H])([H])OC2(C([H])([H])C([H])([H])OC3(C([H])([H])C([H])([H])C([H])([H])C3([H])[H])C2([H])[H])C1([H])[H]

$$$$
108:1:0
     RDKit          3D

 43 45  0  0  1  0  0  0  0  0999 V2000
   -1.2394    2.5395    2.9844 N   0  0  0  0  0  0  0  0  0  0  0  0
    0.0474    1.7869    2.9857 C   0  0  1  0  0  0  0  0  0  0  0  0
    0.2266    1.2865    1.5425 C   0  0  0  0  0  0  0  0  0  0  0  0
    1.4131    0.5369    1.2910 O   0  0  0  0  0  0  0  0  0  0  0  0
    1.2357    2.6805    3.3669 C   0  0  0  0  0  0  0  0  0  0  0  0
    1.2217    3.0020    4.8553 C   0  0  0  0  0  0  0  0  0  0  0  0
    1.1342    1.8088    5.6361 O   0  0  0  0  0  0  0  0  0  0  0  0
   -0.0328    1.0098    5.4361 C   0  0  1  0  0  0  0  0  0  0  0  0
    0.0217   -0.2405    6.3586 C   0  0  0  0  0  0  0  0  0  0  0  0
   -0.1691    0.1020    7.8537 C   0  0  0  0  0  0  0  0  0  0  0  0
   -1.3221    0.9143    8.0475 O   0  0  0  0  0  0  0  0  0  0  0  0
   -1.3394    2.1418    7.3011 C   0  0  0  0  0  0  0  0  0  0  0  0
   -2.6285    2.9337    7.5945 C   0  0  0  0  0  0  0  0  0  0  0  0
   -2.2369    4.1019    8.5224 C   0  0  0  0  0  0  0  0  0  0  0  0
   -0.8191    3.7769    8.9992 C   0  0  0  0  0  0  0  0  0  0  0  0
   -0.2079    3.0543    7.8094 C   0  0  0  0  0  0  0  0  0  0  0  0
   -1.2876    1.8110    5.8173 C   0  0  0  0  0  0  0  0  0  0  0  0
   -0.0439    0.5771    3.9521 C   0  0  0  0  0  0  0  0  0  0  0  0
   -1.1862    3.2269    2.2451 H   0  0  0  0  0  0  0  0  0  0  0  0
   -1.9850    1.9454    2.6849 H   0  0  0  0  0  0  0  0  0  0  0  0
   -0.6093    0.6313    1.3295 H   0  0  0  0  0  0  0  0  0  0  0  0
    0.2092    2.1157    0.8360 H   0  0  0  0  0  0  0  0  0  0  0  0
    1.2770   -0.0173    0.5255 H   0  0  0  0  0  0  0  0  0  0  0  0
    2.1845    2.1877    3.1384 H   0  0  0  0  0  0  0  0  0  0  0  0
    1.2291    3.6091    2.7922 H   0  0  0  0  0  0  0  0  0  0  0  0
    2.1425    3.5239    5.1285 H   0  0  0  0  0  0  0  0  0  0  0  0
    0.3661    3.6399    5.0574 H   0  0  0  0  0  0  0  0  0  0  0  0
   -0.7632   -0.9423    6.0599 H   0  0  0  0  0  0  0  0  0  0  0  0
    0.9484   -0.7950    6.2251 H   0  0  0  0  0  0  0  0  0  0  0  0
   -0.2957   -0.8311    8.4275 H   0  0  0  0  0  0  0  0  0  0  0  0
    0.6877    0.6350    8.2339 H   0  0  0  0  0  0  0  0  0  0  0  0
   -3.0361    3.3700    6.6783 H   0  0  0  0  0  0  0  0  0  0  0  0
   -3.4222    2.3165    8.0226 H   0  0  0  0  0  0  0  0  0  0  0  0
   -2.2186    5.0303    7.9402 H   0  0  0  0  0  0  0  0  0  0  0  0
   -2.9639    4.2343    9.3319 H   0  0  0  0  0  0  0  0  0  0  0  0
   -0.2688    4.6779    9.2730 H   0  0  0  0  0  0  0  0  0  0  0  0
   -0.8709    3.1066    9.8561 H   0  0  0  0  0  0  0  0  0  0  0  0
    0.7001    2.5373    8.0904 H   0  0  0  0  0  0  0  0  0  0  0  0
   -0.0125    3.8444    7.0739 H   0  0  0  0  0  0  0  0  0  0  0  0
   -1.3547    2.7509    5.2720 H   0  0  0  0  0  0  0  0  0  0  0  0
   -2.1587    1.2067    5.5545 H   0  0  0  0  0  0  0  0  0  0  0  0
   -0.9048   -0.0550    3.7250 H   0  0  0  0  0  0  0  0  0  0  0  0
    0.8235   -0.0641    3.7929 H   0  0  0  0  0  0  0  0  0  0  0  0
  2  1  1  6
  1 19  1  0
  1 20  1  0
  2 18  1  0
  2  3  1  0
  2  5  1  0
  3  4  1  0
  3 21  1  0
  3 22  1  0
  4 23  1  0
  5  6  1  0
  5 24  1  0
  5 25  1  0
  6  7  1  0
  6 26  1  0
  6 27  1  0
  8  7  1  6
  8 17  1  0
  8  9  1  0
  8 18  1  0
  9 10  1  0
  9 28  1  0
  9 29  1  0
 10 11  1  0
 10 30  1  0
 10 31  1  0
 11 12  1  0
 12 16  1  0
 12 13  1  0
 12 17  1  0
 13 14  1  0
 13 32  1  0
 13 33  1  0
 14 15  1  0
 14 34  1  0
 14 35  1  0
 15 16  1  0
 15 36  1  0
 15 37  1  0
 16 38  1  0
 16 39  1  0
 17 40  1  0
 17 41  1  0
 18 42  1  0
 18 43  1  0
M  END
>  <i_m_ct_stereo_status>  (367) 
1

>  <s_m_source_file>  (367) 
/var/tmp/pbs.5076255.sched01/tmpp4327t_d/123x5hmlc3y.sdf

>  <i_m_source_file_index>  (367) 
28

>  <i_lp_mmshare_version>  (367) 
48012

>  <i_f3d_flags>  (367) 
0

>  <s_epik_input>  (367) 
W09IXVtDSDJdW0NAQF0oW05IMl0pKFtDSDJdMSlbQ0gyXVtDSDJdT1tDQF0xMltDSDJdW0NIMl1PQzMoW0NIMl0yKVtDSDJdW0NIMl1bQ0gyXVtDSDJdMw==

>  <s_epik_cmdline>  (367) 
J2VwaWtfcHl0aG9uJywgJy1waHQnLCAnMi4wJywgJy1waCcsICc3LjAnLCAnLXRuJywgJzgnLCAnLW1hJywgJzIwMCcsICctaW1hZScsICc8aW5maWxlLm1hZT4nLCAnLW9tYWUnLCAnPG91dGZpbGUubWFlPic=

>  <r_epik_Ionization_Penalty>  (367) 
2.03036

>  <r_epik_Ionization_Penalty_Charging>  (367) 
0

>  <r_epik_Ionization_Penalty_Neutral>  (367) 
2.03036

>  <r_epik_State_Penalty>  (367) 
2.16131

>  <r_epik_Charging_Adjusted_Penalty>  (367) 
2.16131

>  <i_epik_Tot_Q>  (367) 
0

>  <i_epik_Tot_abs_Q>  (367) 
0

>  <s_lp_Force_Field>  (367) 
OPLS3e

>  <r_lp_Energy>  (367) 
24.2745

>  <b_lp_Chiralities_Consistent>  (367) 
1

>  <s_lp_Variant>  (367) 
108:0-2

>  <s_i_glide_gridfile>  (367) 
pfpi4k_grid

>  <i_i_glide_lignum>  (367) 
28

>  <i_i_glide_rotatable_bonds>  (367) 
2

>  <r_i_docking_score>  (367) 
-3.81603

>  <r_i_glide_ligand_efficiency>  (367) 
-0.212002

>  <r_i_glide_ligand_efficiency_sa>  (367) 
-0.555602

>  <r_i_glide_ligand_efficiency_ln>  (367) 
-0.980891

>  <r_i_glide_gscore>  (367) 
-3.81603

>  <r_i_glide_lipo>  (367) 
-0.148346

>  <r_i_glide_hbond>  (367) 
-0.328171

>  <r_i_glide_metal>  (367) 
-0

>  <r_i_glide_rewards>  (367) 
-1.66805

>  <r_i_glide_evdw>  (367) 
-11.0096

>  <r_i_glide_ecoul>  (367) 
-7.47326

>  <r_i_glide_erotb>  (367) 
0

>  <r_i_glide_esite>  (367) 
0

>  <r_i_glide_emodel>  (367) 
-22.0947

>  <r_i_glide_energy>  (367) 
-18.4828

>  <r_i_glide_einternal>  (367) 
0.632279

>  <r_i_glide_intrahb_reward>  (367) 
-0

>  <i_i_glide_confnum>  (367) 
1

>  <i_i_glide_posenum>  (367) 
13

>  <r_i_glide_eff_state_penalty>  (367) 
0

>  <ligand_id>  (367) 
108

>  <original_smiles>  (367) 
NC1(CO)CCOC2(CCOC3(CCCC3)C2)C1

>  <smiles>  (367) 
[H]OC([H])([H])C1(N([H])[H])C([H])([H])C([H])([H])OC2(C([H])([H])C([H])([H])OC3(C([H])([H])C([H])([H])C([H])([H])C3([H])[H])C2([H])[H])C1([H])[H]

$$$$
108:1:1
     RDKit          3D

 43 45  0  0  1  0  0  0  0  0999 V2000
    2.6739    2.3654    2.8515 N   0  0  0  0  0  0  0  0  0  0  0  0
    1.9849    1.0747    2.9238 C   0  0  1  0  0  0  0  0  0  0  0  0
    2.5881    0.2119    1.7975 C   0  0  0  0  0  0  0  0  0  0  0  0
    1.9695   -1.0494    1.6347 O   0  0  0  0  0  0  0  0  0  0  0  0
    2.2367    0.3805    4.2836 C   0  0  0  0  0  0  0  0  0  0  0  0
    1.4669    1.0615    5.4063 C   0  0  0  0  0  0  0  0  0  0  0  0
    0.0814    1.1929    5.0805 O   0  0  0  0  0  0  0  0  0  0  0  0
   -0.2166    1.9735    3.9090 C   0  0  1  0  0  0  0  0  0  0  0  0
   -1.7397    2.0229    3.6870 C   0  0  0  0  0  0  0  0  0  0  0  0
   -2.4964    2.8717    4.7227 C   0  0  0  0  0  0  0  0  0  0  0  0
   -1.8842    4.1537    4.8899 O   0  0  0  0  0  0  0  0  0  0  0  0
   -0.4969    4.1465    5.2189 C   0  0  0  0  0  0  0  0  0  0  0  0
    0.0558    5.5867    5.3457 C   0  0  0  0  0  0  0  0  0  0  0  0
    0.2269    5.8693    6.8313 C   0  0  0  0  0  0  0  0  0  0  0  0
   -0.5071    4.7401    7.5559 C   0  0  0  0  0  0  0  0  0  0  0  0
   -0.2988    3.5622    6.6381 C   0  0  0  0  0  0  0  0  0  0  0  0
    0.2560    3.4188    4.1080 C   0  0  0  0  0  0  0  0  0  0  0  0
    0.4658    1.2798    2.7153 C   0  0  0  0  0  0  0  0  0  0  0  0
    3.6804    2.2712    2.8516 H   0  0  0  0  0  0  0  0  0  0  0  0
    2.4609    2.8360    1.9835 H   0  0  0  0  0  0  0  0  0  0  0  0
    2.4873    0.7204    0.8460 H   0  0  0  0  0  0  0  0  0  0  0  0
    3.6541    0.0527    1.9518 H   0  0  0  0  0  0  0  0  0  0  0  0
    1.5396   -1.0561    0.7831 H   0  0  0  0  0  0  0  0  0  0  0  0
    1.9174   -0.6665    4.2420 H   0  0  0  0  0  0  0  0  0  0  0  0
    3.2970    0.3638    4.5177 H   0  0  0  0  0  0  0  0  0  0  0  0
    1.5517    0.4804    6.3240 H   0  0  0  0  0  0  0  0  0  0  0  0
    1.9211    2.0328    5.5927 H   0  0  0  0  0  0  0  0  0  0  0  0
   -1.9522    2.4361    2.6970 H   0  0  0  0  0  0  0  0  0  0  0  0
   -2.1550    1.0177    3.6757 H   0  0  0  0  0  0  0  0  0  0  0  0
   -3.5320    3.0196    4.4069 H   0  0  0  0  0  0  0  0  0  0  0  0
   -2.5220    2.3708    5.6833 H   0  0  0  0  0  0  0  0  0  0  0  0
    1.0352    5.6655    4.8742 H   0  0  0  0  0  0  0  0  0  0  0  0
   -0.5734    6.3122    4.8347 H   0  0  0  0  0  0  0  0  0  0  0  0
    1.2883    5.8254    7.0874 H   0  0  0  0  0  0  0  0  0  0  0  0
   -0.1277    6.8556    7.1090 H   0  0  0  0  0  0  0  0  0  0  0  0
   -0.1114    4.5485    8.5574 H   0  0  0  0  0  0  0  0  0  0  0  0
   -1.5672    4.9634    7.6379 H   0  0  0  0  0  0  0  0  0  0  0  0
   -0.9543    2.7281    6.8899 H   0  0  0  0  0  0  0  0  0  0  0  0
    0.7324    3.2555    6.7735 H   0  0  0  0  0  0  0  0  0  0  0  0
    1.2963    3.5040    4.3563 H   0  0  0  0  0  0  0  0  0  0  0  0
    0.1123    3.9534    3.1711 H   0  0  0  0  0  0  0  0  0  0  0  0
    0.2729    1.8161    1.7836 H   0  0  0  0  0  0  0  0  0  0  0  0
   -0.0110    0.3072    2.5782 H   0  0  0  0  0  0  0  0  0  0  0  0
  2  1  1  1
  1 19  1  0
  1 20  1  0
  2 18  1  0
  2  3  1  0
  2  5  1  0
  3  4  1  0
  3 21  1  0
  3 22  1  0
  4 23  1  0
  5  6  1  0
  5 24  1  0
  5 25  1  0
  6  7  1  0
  6 26  1  0
  6 27  1  0
  8  7  1  1
  8 17  1  0
  8  9  1  0
  8 18  1  0
  9 10  1  0
  9 28  1  0
  9 29  1  0
 10 11  1  0
 10 30  1  0
 10 31  1  0
 11 12  1  0
 12 16  1  0
 12 13  1  0
 12 17  1  0
 13 14  1  0
 13 32  1  0
 13 33  1  0
 14 15  1  0
 14 34  1  0
 14 35  1  0
 15 16  1  0
 15 36  1  0
 15 37  1  0
 16 38  1  0
 16 39  1  0
 17 40  1  0
 17 41  1  0
 18 42  1  0
 18 43  1  0
M  END
>  <i_m_ct_stereo_status>  (368) 
1

>  <s_m_source_file>  (368) 
/var/tmp/pbs.5076255.sched01/tmpp4327t_d/123x5hmlc3y.sdf

>  <i_m_source_file_index>  (368) 
28

>  <i_lp_mmshare_version>  (368) 
48012

>  <i_f3d_flags>  (368) 
0

>  <s_epik_input>  (368) 
W09IXVtDSDJdW0NAQF0oW05IMl0pKFtDSDJdMSlbQ0gyXVtDSDJdT1tDQF0xMltDSDJdW0NIMl1PQzMoW0NIMl0yKVtDSDJdW0NIMl1bQ0gyXVtDSDJdMw==

>  <s_epik_cmdline>  (368) 
J2VwaWtfcHl0aG9uJywgJy1waHQnLCAnMi4wJywgJy1waCcsICc3LjAnLCAnLXRuJywgJzgnLCAnLW1hJywgJzIwMCcsICctaW1hZScsICc8aW5maWxlLm1hZT4nLCAnLW9tYWUnLCAnPG91dGZpbGUubWFlPic=

>  <r_epik_Ionization_Penalty>  (368) 
2.03036

>  <r_epik_Ionization_Penalty_Charging>  (368) 
0

>  <r_epik_Ionization_Penalty_Neutral>  (368) 
2.03036

>  <r_epik_State_Penalty>  (368) 
2.16131

>  <r_epik_Charging_Adjusted_Penalty>  (368) 
2.16131

>  <i_epik_Tot_Q>  (368) 
0

>  <i_epik_Tot_abs_Q>  (368) 
0

>  <s_lp_Force_Field>  (368) 
OPLS3e

>  <r_lp_Energy>  (368) 
24.2745

>  <b_lp_Chiralities_Consistent>  (368) 
1

>  <s_lp_Variant>  (368) 
108:0-2

>  <s_i_glide_gridfile>  (368) 
pfpi4k_grid

>  <i_i_glide_lignum>  (368) 
28

>  <i_i_glide_rotatable_bonds>  (368) 
2

>  <r_i_docking_score>  (368) 
-3.70253

>  <r_i_glide_ligand_efficiency>  (368) 
-0.205696

>  <r_i_glide_ligand_efficiency_sa>  (368) 
-0.539077

>  <r_i_glide_ligand_efficiency_ln>  (368) 
-0.951717

>  <r_i_glide_gscore>  (368) 
-3.70253

>  <r_i_glide_lipo>  (368) 
0

>  <r_i_glide_hbond>  (368) 
-0.455186

>  <r_i_glide_metal>  (368) 
-0

>  <r_i_glide_rewards>  (368) 
-1.66805

>  <r_i_glide_evdw>  (368) 
-11.2597

>  <r_i_glide_ecoul>  (368) 
-6.77545

>  <r_i_glide_erotb>  (368) 
0

>  <r_i_glide_esite>  (368) 
0

>  <r_i_glide_emodel>  (368) 
-21.4976

>  <r_i_glide_energy>  (368) 
-18.0351

>  <r_i_glide_einternal>  (368) 
1.37859

>  <r_i_glide_intrahb_reward>  (368) 
-0

>  <i_i_glide_confnum>  (368) 
1

>  <i_i_glide_posenum>  (368) 
23

>  <r_i_glide_eff_state_penalty>  (368) 
0

>  <ligand_id>  (368) 
108

>  <original_smiles>  (368) 
NC1(CO)CCOC2(CCOC3(CCCC3)C2)C1

>  <smiles>  (368) 
[H]OC([H])([H])C1(N([H])[H])C([H])([H])C([H])([H])OC2(C([H])([H])C([H])([H])OC3(C([H])([H])C([H])([H])C([H])([H])C3([H])[H])C2([H])[H])C1([H])[H]

$$$$
108:1:2
     RDKit          3D

 43 45  0  0  1  0  0  0  0  0999 V2000
    1.8394    1.1391    2.0927 N   0  0  0  0  0  0  0  0  0  0  0  0
    1.3006    0.1892    3.0993 C   0  0  1  0  0  0  0  0  0  0  0  0
    1.3534   -1.2150    2.4473 C   0  0  0  0  0  0  0  0  0  0  0  0
    0.9865   -2.2690    3.3245 O   0  0  0  0  0  0  0  0  0  0  0  0
    2.1495    0.1879    4.3902 C   0  0  0  0  0  0  0  0  0  0  0  0
    1.9376    1.4723    5.1907 C   0  0  0  0  0  0  0  0  0  0  0  0
    0.5436    1.6901    5.4376 O   0  0  0  0  0  0  0  0  0  0  0  0
   -0.2675    1.8638    4.2738 C   0  0  1  0  0  0  0  0  0  0  0  0
   -1.7402    2.1245    4.6905 C   0  0  0  0  0  0  0  0  0  0  0  0
   -1.9568    3.5078    5.3509 C   0  0  0  0  0  0  0  0  0  0  0  0
   -1.4077    4.5440    4.5354 O   0  0  0  0  0  0  0  0  0  0  0  0
   -0.0162    4.3991    4.2491 C   0  0  0  0  0  0  0  0  0  0  0  0
    0.4997    5.5675    3.4096 C   0  0  0  0  0  0  0  0  0  0  0  0
    0.7455    6.7040    4.4226 C   0  0  0  0  0  0  0  0  0  0  0  0
    1.0700    6.0190    5.7622 C   0  0  0  0  0  0  0  0  0  0  0  0
    0.8026    4.5225    5.5561 C   0  0  0  0  0  0  0  0  0  0  0  0
    0.2062    3.1035    3.4778 C   0  0  0  0  0  0  0  0  0  0  0  0
   -0.1666    0.5605    3.4460 C   0  0  0  0  0  0  0  0  0  0  0  0
    2.7566    0.8480    1.7915 H   0  0  0  0  0  0  0  0  0  0  0  0
    1.2802    1.1058    1.2563 H   0  0  0  0  0  0  0  0  0  0  0  0
    0.6770   -1.2543    1.5949 H   0  0  0  0  0  0  0  0  0  0  0  0
    2.3540   -1.4288    2.0648 H   0  0  0  0  0  0  0  0  0  0  0  0
    0.1068   -2.1222    3.6237 H   0  0  0  0  0  0  0  0  0  0  0  0
    1.8814   -0.6417    5.0472 H   0  0  0  0  0  0  0  0  0  0  0  0
    3.2126    0.0734    4.1591 H   0  0  0  0  0  0  0  0  0  0  0  0
    2.4503    1.3989    6.1601 H   0  0  0  0  0  0  0  0  0  0  0  0
    2.3584    2.3022    4.6267 H   0  0  0  0  0  0  0  0  0  0  0  0
   -2.3842    2.0644    3.7990 H   0  0  0  0  0  0  0  0  0  0  0  0
   -2.1079    1.3497    5.3570 H   0  0  0  0  0  0  0  0  0  0  0  0
   -3.0402    3.7066    5.4575 H   0  0  0  0  0  0  0  0  0  0  0  0
   -1.4822    3.5494    6.3083 H   0  0  0  0  0  0  0  0  0  0  0  0
    1.4682    5.3198    2.9644 H   0  0  0  0  0  0  0  0  0  0  0  0
   -0.1631    5.8646    2.5845 H   0  0  0  0  0  0  0  0  0  0  0  0
    1.5257    7.4047    4.0755 H   0  0  0  0  0  0  0  0  0  0  0  0
   -0.1848    7.2646    4.5072 H   0  0  0  0  0  0  0  0  0  0  0  0
    2.1175    6.1817    6.0328 H   0  0  0  0  0  0  0  0  0  0  0  0
    0.4317    6.4045    6.5382 H   0  0  0  0  0  0  0  0  0  0  0  0
    0.3204    4.0787    6.4144 H   0  0  0  0  0  0  0  0  0  0  0  0
    1.8073    4.0824    5.3925 H   0  0  0  0  0  0  0  0  0  0  0  0
    1.2611    3.0419    3.2148 H   0  0  0  0  0  0  0  0  0  0  0  0
   -0.3727    3.1172    2.5417 H   0  0  0  0  0  0  0  0  0  0  0  0
   -0.7765    0.6326    2.5434 H   0  0  0  0  0  0  0  0  0  0  0  0
   -0.6143   -0.2335    4.0347 H   0  0  0  0  0  0  0  0  0  0  0  0
  2  1  1  6
  1 19  1  0
  1 20  1  0
  2 18  1  0
  2  3  1  0
  2  5  1  0
  3  4  1  0
  3 21  1  0
  3 22  1  0
  4 23  1  0
  5  6  1  0
  5 24  1  0
  5 25  1  0
  6  7  1  0
  6 26  1  0
  6 27  1  0
  8  7  1  1
  8 17  1  0
  8  9  1  0
  8 18  1  0
  9 10  1  0
  9 28  1  0
  9 29  1  0
 10 11  1  0
 10 30  1  0
 10 31  1  0
 11 12  1  0
 12 16  1  0
 12 13  1  0
 12 17  1  0
 13 14  1  0
 13 32  1  0
 13 33  1  0
 14 15  1  0
 14 34  1  0
 14 35  1  0
 15 16  1  0
 15 36  1  0
 15 37  1  0
 16 38  1  0
 16 39  1  0
 17 40  1  0
 17 41  1  0
 18 42  1  0
 18 43  1  0
M  END
>  <i_m_ct_stereo_status>  (369) 
1

>  <s_m_source_file>  (369) 
/var/tmp/pbs.5076255.sched01/tmpp4327t_d/123x5hmlc3y.sdf

>  <i_m_source_file_index>  (369) 
28

>  <i_lp_mmshare_version>  (369) 
48012

>  <i_f3d_flags>  (369) 
0

>  <s_epik_input>  (369) 
W09IXVtDSDJdW0NAQF0oW05IMl0pKFtDSDJdMSlbQ0gyXVtDSDJdT1tDQF0xMltDSDJdW0NIMl1PQzMoW0NIMl0yKVtDSDJdW0NIMl1bQ0gyXVtDSDJdMw==

>  <s_epik_cmdline>  (369) 
J2VwaWtfcHl0aG9uJywgJy1waHQnLCAnMi4wJywgJy1waCcsICc3LjAnLCAnLXRuJywgJzgnLCAnLW1hJywgJzIwMCcsICctaW1hZScsICc8aW5maWxlLm1hZT4nLCAnLW9tYWUnLCAnPG91dGZpbGUubWFlPic=

>  <r_epik_Ionization_Penalty>  (369) 
2.03036

>  <r_epik_Ionization_Penalty_Charging>  (369) 
0

>  <r_epik_Ionization_Penalty_Neutral>  (369) 
2.03036

>  <r_epik_State_Penalty>  (369) 
2.16131

>  <r_epik_Charging_Adjusted_Penalty>  (369) 
2.16131

>  <i_epik_Tot_Q>  (369) 
0

>  <i_epik_Tot_abs_Q>  (369) 
0

>  <s_lp_Force_Field>  (369) 
OPLS3e

>  <r_lp_Energy>  (369) 
24.2745

>  <b_lp_Chiralities_Consistent>  (369) 
1

>  <s_lp_Variant>  (369) 
108:0-2

>  <s_i_glide_gridfile>  (369) 
pfpi4k_grid

>  <i_i_glide_lignum>  (369) 
28

>  <i_i_glide_rotatable_bonds>  (369) 
2

>  <r_i_docking_score>  (369) 
-2.93213

>  <r_i_glide_ligand_efficiency>  (369) 
-0.162896

>  <r_i_glide_ligand_efficiency_sa>  (369) 
-0.426908

>  <r_i_glide_ligand_efficiency_ln>  (369) 
-0.753688

>  <r_i_glide_gscore>  (369) 
-2.93213

>  <r_i_glide_lipo>  (369) 
0

>  <r_i_glide_hbond>  (369) 
-0.0661337

>  <r_i_glide_metal>  (369) 
-0

>  <r_i_glide_rewards>  (369) 
-1.66805

>  <r_i_glide_evdw>  (369) 
-14.0369

>  <r_i_glide_ecoul>  (369) 
-3.30734

>  <r_i_glide_erotb>  (369) 
0

>  <r_i_glide_esite>  (369) 
0

>  <r_i_glide_emodel>  (369) 
-19.6912

>  <r_i_glide_energy>  (369) 
-17.3443

>  <r_i_glide_einternal>  (369) 
0.205401

>  <r_i_glide_intrahb_reward>  (369) 
-0

>  <i_i_glide_confnum>  (369) 
3

>  <i_i_glide_posenum>  (369) 
22

>  <r_i_glide_eff_state_penalty>  (369) 
0

>  <ligand_id>  (369) 
108

>  <original_smiles>  (369) 
NC1(CO)CCOC2(CCOC3(CCCC3)C2)C1

>  <smiles>  (369) 
[H]OC([H])([H])C1(N([H])[H])C([H])([H])C([H])([H])OC2(C([H])([H])C([H])([H])OC3(C([H])([H])C([H])([H])C([H])([H])C3([H])[H])C2([H])[H])C1([H])[H]

$$$$
109:0:0
     RDKit          3D

 30 32  0  0  1  0  0  0  0  0999 V2000
   -9.3194  -10.4871   -7.3527 C   0  0  0  0  0  0  0  0  0  0  0  0
   -9.4903   -9.2070   -7.9396 C   0  0  0  0  0  0  0  0  0  0  0  0
   -8.3431   -8.6553   -8.2861 N   0  0  0  0  0  0  0  0  0  0  0  0
   -7.3959   -9.4960   -7.8273 N   0  0  0  0  0  0  0  0  0  0  0  0
   -5.9887   -9.1550   -7.9726 C   0  0  0  0  0  0  0  0  0  0  0  0
   -5.5276   -7.9744   -7.0923 C   0  0  2  0  0  0  0  0  0  0  0  0
   -5.2077   -8.3500   -5.6435 C   0  0  0  0  0  0  0  0  0  0  0  0
   -5.5442   -7.0823   -4.8932 C   0  0  0  0  0  0  0  0  0  0  0  0
   -6.7538   -6.5657   -5.6742 C   0  0  1  0  0  0  0  0  0  0  0  0
   -6.9059   -5.0609   -5.6290 C   0  0  0  0  0  0  0  0  0  0  0  0
   -7.1979   -4.3722   -4.3250 C   0  0  0  0  0  0  0  0  0  0  0  0
   -8.2419   -4.4016   -5.4127 C   0  0  0  0  0  0  0  0  0  0  0  0
   -6.5223   -6.9656   -7.0129 O   0  0  0  0  0  0  0  0  0  0  0  0
   -7.9549  -10.6393   -7.2926 C   0  0  0  0  0  0  0  0  0  0  0  0
  -10.0672  -11.1703   -6.9755 H   0  0  0  0  0  0  0  0  0  0  0  0
  -10.3892   -8.6354   -8.1225 H   0  0  0  0  0  0  0  0  0  0  0  0
   -5.3842  -10.0306   -7.7495 H   0  0  0  0  0  0  0  0  0  0  0  0
   -5.8264   -8.9181   -9.0219 H   0  0  0  0  0  0  0  0  0  0  0  0
   -4.6295   -7.5154   -7.5139 H   0  0  0  0  0  0  0  0  0  0  0  0
   -5.8480   -9.1690   -5.3091 H   0  0  0  0  0  0  0  0  0  0  0  0
   -4.1658   -8.6535   -5.5081 H   0  0  0  0  0  0  0  0  0  0  0  0
   -5.7663   -7.2557   -3.8382 H   0  0  0  0  0  0  0  0  0  0  0  0
   -4.7206   -6.3730   -4.9628 H   0  0  0  0  0  0  0  0  0  0  0  0
   -7.6599   -7.0717   -5.3472 H   0  0  0  0  0  0  0  0  0  0  0  0
   -6.2162   -4.5361   -6.2772 H   0  0  0  0  0  0  0  0  0  0  0  0
   -7.3501   -4.9988   -3.4520 H   0  0  0  0  0  0  0  0  0  0  0  0
   -6.6335   -3.4586   -4.1547 H   0  0  0  0  0  0  0  0  0  0  0  0
   -8.4317   -3.4792   -5.9574 H   0  0  0  0  0  0  0  0  0  0  0  0
   -9.1058   -5.0397   -5.2734 H   0  0  0  0  0  0  0  0  0  0  0  0
   -7.3667  -11.4405   -6.9005 H   0  0  0  0  0  0  0  0  0  0  0  0
  1 14  2  0
  1  2  1  0
  1 15  1  0
  2  3  2  0
  2 16  1  0
  3  4  1  0
  4  5  1  0
  4 14  1  0
  5  6  1  0
  5 17  1  0
  5 18  1  0
  6 13  1  0
  6  7  1  0
  6 19  1  6
  7  8  1  0
  7 20  1  0
  7 21  1  0
  8  9  1  0
  8 22  1  0
  8 23  1  0
  9 10  1  0
  9 13  1  0
  9 24  1  1
 10 12  1  0
 10 11  1  0
 10 25  1  0
 11 12  1  0
 11 26  1  0
 11 27  1  0
 12 28  1  0
 12 29  1  0
 14 30  1  0
M  END
>  <i_m_ct_stereo_status>  (370) 
1

>  <s_m_source_file>  (370) 
/var/tmp/pbs.5076255.sched01/tmpp4327t_d/123x5hmlc3y.sdf

>  <i_m_source_file_index>  (370) 
29

>  <i_lp_mmshare_version>  (370) 
48012

>  <i_f3d_flags>  (370) 
0

>  <s_epik_input>  (370) 
W2NIXTFbY0hdW2NIXW5uMVtDSDJdW0NAQEhdMltDSDJdW0NIMl1bQ0BIXShPMilbQ0hdM1tDSDJdW0NIMl0z

>  <s_epik_cmdline>  (370) 
J2VwaWtfcHl0aG9uJywgJy1waHQnLCAnMi4wJywgJy1waCcsICc3LjAnLCAnLXRuJywgJzgnLCAnLW1hJywgJzIwMCcsICctaW1hZScsICc8aW5maWxlLm1hZT4nLCAnLW9tYWUnLCAnPG91dGZpbGUubWFlPic=

>  <r_lp_tautomer_probability>  (370) 
1

>  <r_epik_Ionization_Penalty>  (370) 
2.54738e-05

>  <r_epik_Ionization_Penalty_Charging>  (370) 
0

>  <r_epik_Ionization_Penalty_Neutral>  (370) 
2.54738e-05

>  <r_epik_State_Penalty>  (370) 
-0

>  <r_epik_Charging_Adjusted_Penalty>  (370) 
0

>  <i_epik_Tot_Q>  (370) 
0

>  <i_epik_Tot_abs_Q>  (370) 
0

>  <s_lp_Force_Field>  (370) 
OPLS3e

>  <r_lp_Energy>  (370) 
-1.7379

>  <b_lp_Chiralities_Consistent>  (370) 
1

>  <s_lp_Variant>  (370) 
109:0-1

>  <s_i_glide_gridfile>  (370) 
pfpi4k_grid

>  <i_i_glide_lignum>  (370) 
29

>  <i_i_glide_rotatable_bonds>  (370) 
3

>  <r_i_docking_score>  (370) 
-4.72548

>  <r_i_glide_ligand_efficiency>  (370) 
-0.337534

>  <r_i_glide_ligand_efficiency_sa>  (370) 
-0.813505

>  <r_i_glide_ligand_efficiency_ln>  (370) 
-1.29854

>  <r_i_glide_gscore>  (370) 
-4.72548

>  <r_i_glide_lipo>  (370) 
-2.4106

>  <r_i_glide_hbond>  (370) 
0

>  <r_i_glide_metal>  (370) 
-0

>  <r_i_glide_rewards>  (370) 
-2.68339

>  <r_i_glide_evdw>  (370) 
-18.4933

>  <r_i_glide_ecoul>  (370) 
-0.0994766

>  <r_i_glide_erotb>  (370) 
1.30809

>  <r_i_glide_esite>  (370) 
0

>  <r_i_glide_emodel>  (370) 
-22.4663

>  <r_i_glide_energy>  (370) 
-18.5928

>  <r_i_glide_einternal>  (370) 
3.36933

>  <r_i_glide_intrahb_reward>  (370) 
-0

>  <i_i_glide_confnum>  (370) 
5

>  <i_i_glide_posenum>  (370) 
37

>  <r_i_glide_eff_state_penalty>  (370) 
0

>  <ligand_id>  (370) 
109

>  <original_smiles>  (370) 
c1cnn(CC2CCC(C3CC3)O2)c1

>  <smiles>  (370) 
[H]c1nn(C([H])([H])C2([H])OC([H])(C3([H])C([H])([H])C3([H])[H])C([H])([H])C2([H])[H])c([H])c1[H]

$$$$
109:0:1
     RDKit          3D

 30 32  0  0  1  0  0  0  0  0999 V2000
   -8.5645   -8.9639  -10.2361 C   0  0  0  0  0  0  0  0  0  0  0  0
   -9.9690   -9.0280  -10.0018 C   0  0  0  0  0  0  0  0  0  0  0  0
  -10.4629   -7.8743   -9.5888 N   0  0  0  0  0  0  0  0  0  0  0  0
   -9.4029   -7.0447   -9.5342 N   0  0  0  0  0  0  0  0  0  0  0  0
   -9.5927   -5.6659   -9.1407 C   0  0  0  0  0  0  0  0  0  0  0  0
   -9.5256   -5.4664   -7.6263 C   0  0  2  0  0  0  0  0  0  0  0  0
   -9.7940   -4.0215   -7.2075 C   0  0  0  0  0  0  0  0  0  0  0  0
   -8.9990   -3.9019   -5.9338 C   0  0  0  0  0  0  0  0  0  0  0  0
   -7.7710   -4.7576   -6.2437 C   0  0  1  0  0  0  0  0  0  0  0  0
   -7.1868   -5.4033   -5.0120 C   0  0  0  0  0  0  0  0  0  0  0  0
   -6.5752   -4.5384   -3.9337 C   0  0  0  0  0  0  0  0  0  0  0  0
   -5.6972   -5.4420   -4.7635 C   0  0  0  0  0  0  0  0  0  0  0  0
   -8.2197   -5.7695   -7.1430 O   0  0  0  0  0  0  0  0  0  0  0  0
   -8.2395   -7.6758   -9.9180 C   0  0  0  0  0  0  0  0  0  0  0  0
   -7.8877   -9.7331  -10.5776 H   0  0  0  0  0  0  0  0  0  0  0  0
  -10.6473   -9.8618  -10.1232 H   0  0  0  0  0  0  0  0  0  0  0  0
   -8.8178   -5.0699   -9.6168 H   0  0  0  0  0  0  0  0  0  0  0  0
  -10.5562   -5.3266   -9.5269 H   0  0  0  0  0  0  0  0  0  0  0  0
  -10.2414   -6.1226   -7.1280 H   0  0  0  0  0  0  0  0  0  0  0  0
   -9.3956   -3.3311   -7.9505 H   0  0  0  0  0  0  0  0  0  0  0  0
  -10.8561   -3.8171   -7.0601 H   0  0  0  0  0  0  0  0  0  0  0  0
   -8.7400   -2.8696   -5.6944 H   0  0  0  0  0  0  0  0  0  0  0  0
   -9.5704   -4.3142   -5.1034 H   0  0  0  0  0  0  0  0  0  0  0  0
   -7.0169   -4.1476   -6.7404 H   0  0  0  0  0  0  0  0  0  0  0  0
   -7.7464   -6.2746   -4.6917 H   0  0  0  0  0  0  0  0  0  0  0  0
   -6.5016   -3.4684   -4.1226 H   0  0  0  0  0  0  0  0  0  0  0  0
   -6.7655   -4.8163   -2.8965 H   0  0  0  0  0  0  0  0  0  0  0  0
   -5.2972   -6.3364   -4.2854 H   0  0  0  0  0  0  0  0  0  0  0  0
   -5.0432   -4.9727   -5.4949 H   0  0  0  0  0  0  0  0  0  0  0  0
   -7.2886   -7.1648   -9.9356 H   0  0  0  0  0  0  0  0  0  0  0  0
  1 14  2  0
  1  2  1  0
  1 15  1  0
  2  3  2  0
  2 16  1  0
  3  4  1  0
  4  5  1  0
  4 14  1  0
  5  6  1  0
  5 17  1  0
  5 18  1  0
  6 13  1  0
  6  7  1  0
  6 19  1  1
  7  8  1  0
  7 20  1  0
  7 21  1  0
  8  9  1  0
  8 22  1  0
  8 23  1  0
  9 10  1  0
  9 13  1  0
  9 24  1  6
 10 12  1  0
 10 11  1  0
 10 25  1  0
 11 12  1  0
 11 26  1  0
 11 27  1  0
 12 28  1  0
 12 29  1  0
 14 30  1  0
M  END
>  <i_m_ct_stereo_status>  (371) 
1

>  <s_m_source_file>  (371) 
/var/tmp/pbs.5076255.sched01/tmpp4327t_d/123x5hmlc3y.sdf

>  <i_m_source_file_index>  (371) 
29

>  <i_lp_mmshare_version>  (371) 
48012

>  <i_f3d_flags>  (371) 
0

>  <s_epik_input>  (371) 
W2NIXTFbY0hdW2NIXW5uMVtDSDJdW0NAQEhdMltDSDJdW0NIMl1bQ0BIXShPMilbQ0hdM1tDSDJdW0NIMl0z

>  <s_epik_cmdline>  (371) 
J2VwaWtfcHl0aG9uJywgJy1waHQnLCAnMi4wJywgJy1waCcsICc3LjAnLCAnLXRuJywgJzgnLCAnLW1hJywgJzIwMCcsICctaW1hZScsICc8aW5maWxlLm1hZT4nLCAnLW9tYWUnLCAnPG91dGZpbGUubWFlPic=

>  <r_lp_tautomer_probability>  (371) 
1

>  <r_epik_Ionization_Penalty>  (371) 
2.54738e-05

>  <r_epik_Ionization_Penalty_Charging>  (371) 
0

>  <r_epik_Ionization_Penalty_Neutral>  (371) 
2.54738e-05

>  <r_epik_State_Penalty>  (371) 
-0

>  <r_epik_Charging_Adjusted_Penalty>  (371) 
0

>  <i_epik_Tot_Q>  (371) 
0

>  <i_epik_Tot_abs_Q>  (371) 
0

>  <s_lp_Force_Field>  (371) 
OPLS3e

>  <r_lp_Energy>  (371) 
-1.7379

>  <b_lp_Chiralities_Consistent>  (371) 
1

>  <s_lp_Variant>  (371) 
109:0-1

>  <s_i_glide_gridfile>  (371) 
pfpi4k_grid

>  <i_i_glide_lignum>  (371) 
29

>  <i_i_glide_rotatable_bonds>  (371) 
3

>  <r_i_docking_score>  (371) 
-3.65671

>  <r_i_glide_ligand_efficiency>  (371) 
-0.261193

>  <r_i_glide_ligand_efficiency_sa>  (371) 
-0.629513

>  <r_i_glide_ligand_efficiency_ln>  (371) 
-1.00485

>  <r_i_glide_gscore>  (371) 
-3.65671

>  <r_i_glide_lipo>  (371) 
-2.01579

>  <r_i_glide_hbond>  (371) 
0

>  <r_i_glide_metal>  (371) 
-0

>  <r_i_glide_rewards>  (371) 
-2.16107

>  <r_i_glide_evdw>  (371) 
-20.3915

>  <r_i_glide_ecoul>  (371) 
1.54419

>  <r_i_glide_erotb>  (371) 
1.30809

>  <r_i_glide_esite>  (371) 
0

>  <r_i_glide_emodel>  (371) 
-22.9051

>  <r_i_glide_energy>  (371) 
-18.8474

>  <r_i_glide_einternal>  (371) 
1.02913

>  <r_i_glide_intrahb_reward>  (371) 
-0

>  <i_i_glide_confnum>  (371) 
5

>  <i_i_glide_posenum>  (371) 
18

>  <r_i_glide_eff_state_penalty>  (371) 
0

>  <ligand_id>  (371) 
109

>  <original_smiles>  (371) 
c1cnn(CC2CCC(C3CC3)O2)c1

>  <smiles>  (371) 
[H]c1nn(C([H])([H])C2([H])OC([H])(C3([H])C([H])([H])C3([H])[H])C([H])([H])C2([H])[H])c([H])c1[H]

$$$$
109:0:2
     RDKit          3D

 30 32  0  0  1  0  0  0  0  0999 V2000
   -9.9285   -5.8553   -8.6588 C   0  0  0  0  0  0  0  0  0  0  0  0
  -10.6142   -7.0616   -8.9833 C   0  0  0  0  0  0  0  0  0  0  0  0
   -9.7818   -8.0317   -9.3297 N   0  0  0  0  0  0  0  0  0  0  0  0
   -8.5517   -7.4938   -9.2200 N   0  0  0  0  0  0  0  0  0  0  0  0
   -7.3698   -8.3075   -9.4415 C   0  0  0  0  0  0  0  0  0  0  0  0
   -6.6553   -8.6469   -8.1202 C   0  0  2  0  0  0  0  0  0  0  0  0
   -7.4049   -9.6701   -7.2600 C   0  0  0  0  0  0  0  0  0  0  0  0
   -7.0165   -9.2608   -5.8591 C   0  0  0  0  0  0  0  0  0  0  0  0
   -6.9452   -7.7337   -5.9785 C   0  0  1  0  0  0  0  0  0  0  0  0
   -5.9817   -7.1037   -4.9865 C   0  0  0  0  0  0  0  0  0  0  0  0
   -5.5017   -5.6879   -5.1631 C   0  0  0  0  0  0  0  0  0  0  0  0
   -4.5576   -6.8416   -5.4190 C   0  0  0  0  0  0  0  0  0  0  0  0
   -6.5275   -7.4823   -7.3126 O   0  0  0  0  0  0  0  0  0  0  0  0
   -8.6118   -6.1684   -8.8420 C   0  0  0  0  0  0  0  0  0  0  0  0
  -10.3246   -4.9073   -8.3236 H   0  0  0  0  0  0  0  0  0  0  0  0
  -11.6765   -7.2650   -8.9566 H   0  0  0  0  0  0  0  0  0  0  0  0
   -7.6429   -9.2260   -9.9645 H   0  0  0  0  0  0  0  0  0  0  0  0
   -6.7024   -7.7673  -10.1079 H   0  0  0  0  0  0  0  0  0  0  0  0
   -5.6422   -9.0151   -8.3015 H   0  0  0  0  0  0  0  0  0  0  0  0
   -8.4889   -9.5782   -7.3790 H   0  0  0  0  0  0  0  0  0  0  0  0
   -7.1234  -10.7007   -7.4924 H   0  0  0  0  0  0  0  0  0  0  0  0
   -7.7388   -9.6147   -5.1197 H   0  0  0  0  0  0  0  0  0  0  0  0
   -6.0388   -9.6703   -5.6005 H   0  0  0  0  0  0  0  0  0  0  0  0
   -7.9358   -7.2856   -5.8836 H   0  0  0  0  0  0  0  0  0  0  0  0
   -6.1266   -7.3994   -3.9549 H   0  0  0  0  0  0  0  0  0  0  0  0
   -5.9370   -5.1405   -5.9907 H   0  0  0  0  0  0  0  0  0  0  0  0
   -5.3434   -5.0911   -4.2720 H   0  0  0  0  0  0  0  0  0  0  0  0
   -3.7884   -7.0890   -4.6928 H   0  0  0  0  0  0  0  0  0  0  0  0
   -4.2905   -7.0790   -6.4450 H   0  0  0  0  0  0  0  0  0  0  0  0
   -7.7233   -5.5789   -8.6863 H   0  0  0  0  0  0  0  0  0  0  0  0
  1 14  2  0
  1  2  1  0
  1 15  1  0
  2  3  2  0
  2 16  1  0
  3  4  1  0
  4  5  1  0
  4 14  1  0
  5  6  1  0
  5 17  1  0
  5 18  1  0
  6 13  1  0
  6  7  1  0
  6 19  1  6
  7  8  1  0
  7 20  1  0
  7 21  1  0
  8  9  1  0
  8 22  1  0
  8 23  1  0
  9 10  1  0
  9 13  1  0
  9 24  1  6
 10 12  1  0
 10 11  1  0
 10 25  1  0
 11 12  1  0
 11 26  1  0
 11 27  1  0
 12 28  1  0
 12 29  1  0
 14 30  1  0
M  END
>  <i_m_ct_stereo_status>  (372) 
1

>  <s_m_source_file>  (372) 
/var/tmp/pbs.5076255.sched01/tmpp4327t_d/123x5hmlc3y.sdf

>  <i_m_source_file_index>  (372) 
29

>  <i_lp_mmshare_version>  (372) 
48012

>  <i_f3d_flags>  (372) 
0

>  <s_epik_input>  (372) 
W2NIXTFbY0hdW2NIXW5uMVtDSDJdW0NAQEhdMltDSDJdW0NIMl1bQ0BIXShPMilbQ0hdM1tDSDJdW0NIMl0z

>  <s_epik_cmdline>  (372) 
J2VwaWtfcHl0aG9uJywgJy1waHQnLCAnMi4wJywgJy1waCcsICc3LjAnLCAnLXRuJywgJzgnLCAnLW1hJywgJzIwMCcsICctaW1hZScsICc8aW5maWxlLm1hZT4nLCAnLW9tYWUnLCAnPG91dGZpbGUubWFlPic=

>  <r_lp_tautomer_probability>  (372) 
1

>  <r_epik_Ionization_Penalty>  (372) 
2.54738e-05

>  <r_epik_Ionization_Penalty_Charging>  (372) 
0

>  <r_epik_Ionization_Penalty_Neutral>  (372) 
2.54738e-05

>  <r_epik_State_Penalty>  (372) 
-0

>  <r_epik_Charging_Adjusted_Penalty>  (372) 
0

>  <i_epik_Tot_Q>  (372) 
0

>  <i_epik_Tot_abs_Q>  (372) 
0

>  <s_lp_Force_Field>  (372) 
OPLS3e

>  <r_lp_Energy>  (372) 
-1.7379

>  <b_lp_Chiralities_Consistent>  (372) 
1

>  <s_lp_Variant>  (372) 
109:0-1

>  <s_i_glide_gridfile>  (372) 
pfpi4k_grid

>  <i_i_glide_lignum>  (372) 
29

>  <i_i_glide_rotatable_bonds>  (372) 
3

>  <r_i_docking_score>  (372) 
-3.46646

>  <r_i_glide_ligand_efficiency>  (372) 
-0.247604

>  <r_i_glide_ligand_efficiency_sa>  (372) 
-0.596762

>  <r_i_glide_ligand_efficiency_ln>  (372) 
-0.952571

>  <r_i_glide_gscore>  (372) 
-3.46646

>  <r_i_glide_lipo>  (372) 
-1.6355

>  <r_i_glide_hbond>  (372) 
0

>  <r_i_glide_metal>  (372) 
-0

>  <r_i_glide_rewards>  (372) 
-2.27083

>  <r_i_glide_evdw>  (372) 
-16.9027

>  <r_i_glide_ecoul>  (372) 
-0.153929

>  <r_i_glide_erotb>  (372) 
1.30809

>  <r_i_glide_esite>  (372) 
0

>  <r_i_glide_emodel>  (372) 
-19.636

>  <r_i_glide_energy>  (372) 
-17.0566

>  <r_i_glide_einternal>  (372) 
2.85219

>  <r_i_glide_intrahb_reward>  (372) 
-0

>  <i_i_glide_confnum>  (372) 
6

>  <i_i_glide_posenum>  (372) 
4

>  <r_i_glide_eff_state_penalty>  (372) 
0

>  <ligand_id>  (372) 
109

>  <original_smiles>  (372) 
c1cnn(CC2CCC(C3CC3)O2)c1

>  <smiles>  (372) 
[H]c1nn(C([H])([H])C2([H])OC([H])(C3([H])C([H])([H])C3([H])[H])C([H])([H])C2([H])[H])c([H])c1[H]

$$$$
110:0:0
     RDKit          3D

 25 27  0  0  1  0  0  0  0  0999 V2000
   -2.1850    4.5507    3.4729 O   0  0  0  0  0  0  0  0  0  0  0  0
   -1.0890    4.2708    3.9683 C   0  0  0  0  0  0  0  0  0  0  0  0
   -1.0102    3.9160    5.4690 C   0  0  0  0  0  0  0  0  0  0  0  0
    0.0969    2.8739    5.7821 C   0  0  1  0  0  0  0  0  0  0  0  0
   -0.3783    1.4402    5.5246 C   0  0  0  0  0  0  0  0  0  0  0  0
    0.2724    0.5585    4.6258 C   0  0  0  0  0  0  0  0  0  0  0  0
   -0.2281   -0.7434    4.4681 C   0  0  0  0  0  0  0  0  0  0  0  0
   -1.3610   -1.1183    5.2079 C   0  0  0  0  0  0  0  0  0  0  0  0
   -1.9906   -0.2976    6.0738 N   0  0  0  0  0  0  0  0  0  0  0  0
   -1.5080    0.9514    6.2170 C   0  0  0  0  0  0  0  0  0  0  0  0
    1.2670    3.2164    4.9970 N   0  0  0  0  0  0  0  0  0  0  0  0
    2.5332    2.8414    5.2787 N   0  0  0  0  0  0  0  0  0  0  0  0
    3.1958    3.2898    4.2061 C   0  0  0  0  0  0  0  0  0  0  0  0
    2.4611    3.9360    3.2503 N   0  0  0  0  0  0  0  0  0  0  0  0
    1.2744    3.8424    3.8215 C   0  0  0  0  0  0  0  0  0  0  0  0
    0.0576    4.2918    3.2801 N   0  0  0  0  0  0  0  0  0  0  0  0
   -0.7429    4.8577    5.9551 H   0  0  0  0  0  0  0  0  0  0  0  0
   -1.9967    3.6406    5.8550 H   0  0  0  0  0  0  0  0  0  0  0  0
    0.3751    2.9535    6.8341 H   0  0  0  0  0  0  0  0  0  0  0  0
    1.1470    0.8470    4.0626 H   0  0  0  0  0  0  0  0  0  0  0  0
    0.2475   -1.4331    3.7870 H   0  0  0  0  0  0  0  0  0  0  0  0
   -1.7721   -2.1098    5.1018 H   0  0  0  0  0  0  0  0  0  0  0  0
   -2.0439    1.5722    6.9210 H   0  0  0  0  0  0  0  0  0  0  0  0
    4.2550    3.1415    4.1103 H   0  0  0  0  0  0  0  0  0  0  0  0
    0.0698    4.4959    2.2695 H   0  0  0  0  0  0  0  0  0  0  0  0
  1  2  2  0
  2 16  1  0
  2  3  1  0
  3  4  1  0
  3 17  1  0
  3 18  1  0
  4  5  1  0
  4 11  1  0
  4 19  1  1
  5 10  1  0
  5  6  2  0
  6  7  1  0
  6 20  1  0
  7  8  2  0
  7 21  1  0
  8  9  1  0
  8 22  1  0
  9 10  2  0
 10 23  1  0
 11 15  1  0
 11 12  1  0
 12 13  2  0
 13 14  1  0
 13 24  1  0
 14 15  2  0
 15 16  1  0
 16 25  1  0
M  END
>  <i_m_ct_stereo_status>  (373) 
1

>  <s_m_source_file>  (373) 
/var/tmp/pbs.5076255.sched01/tmpp4327t_d/123x5hmlc3y.sdf

>  <i_m_source_file_index>  (373) 
30

>  <i_lp_mmshare_version>  (373) 
48012

>  <i_f3d_flags>  (373) 
0

>  <s_epik_input>  (373) 
bjFbY0hdbmMobjEyKVtOSF1DKD1PKVtDSDJdW0NASF0yYzNbY0hdW2NIXVtjSF1uW2NIXTM=

>  <s_epik_cmdline>  (373) 
J2VwaWtfcHl0aG9uJywgJy1waHQnLCAnMi4wJywgJy1waCcsICc3LjAnLCAnLXRuJywgJzgnLCAnLW1hJywgJzIwMCcsICctaW1hZScsICc8aW5maWxlLm1hZT4nLCAnLW9tYWUnLCAnPG91dGZpbGUubWFlPic=

>  <r_lp_tautomer_probability>  (373) 
1

>  <r_epik_Ionization_Penalty>  (373) 
0.00222853

>  <r_epik_Ionization_Penalty_Charging>  (373) 
0

>  <r_epik_Ionization_Penalty_Neutral>  (373) 
0.00222853

>  <r_epik_State_Penalty>  (373) 
1.10951e-07

>  <r_epik_Charging_Adjusted_Penalty>  (373) 
1.10951e-07

>  <i_epik_Tot_Q>  (373) 
0

>  <i_epik_Tot_abs_Q>  (373) 
0

>  <s_lp_Force_Field>  (373) 
OPLS3e

>  <r_lp_Energy>  (373) 
25.4848

>  <b_lp_Chiralities_Consistent>  (373) 
1

>  <s_lp_Variant>  (373) 
110:0-1

>  <s_i_glide_gridfile>  (373) 
pfpi4k_grid

>  <i_i_glide_lignum>  (373) 
30

>  <i_i_glide_rotatable_bonds>  (373) 
1

>  <r_i_docking_score>  (373) 
-4.45268

>  <r_i_glide_ligand_efficiency>  (373) 
-0.278292

>  <r_i_glide_ligand_efficiency_sa>  (373) 
-0.701252

>  <r_i_glide_ligand_efficiency_ln>  (373) 
-1.18027

>  <r_i_glide_gscore>  (373) 
-4.45268

>  <r_i_glide_lipo>  (373) 
0

>  <r_i_glide_hbond>  (373) 
-0.454959

>  <r_i_glide_metal>  (373) 
-0

>  <r_i_glide_rewards>  (373) 
-1.94174

>  <r_i_glide_evdw>  (373) 
-10.9359

>  <r_i_glide_ecoul>  (373) 
-10.6537

>  <r_i_glide_erotb>  (373) 
0.361159

>  <r_i_glide_esite>  (373) 
-0.272277

>  <r_i_glide_emodel>  (373) 
-28.2439

>  <r_i_glide_energy>  (373) 
-21.5897

>  <r_i_glide_einternal>  (373) 
0.874908

>  <r_i_glide_intrahb_reward>  (373) 
-0

>  <i_i_glide_confnum>  (373) 
6

>  <i_i_glide_posenum>  (373) 
39

>  <r_i_glide_eff_state_penalty>  (373) 
0

>  <ligand_id>  (373) 
110

>  <original_smiles>  (373) 
O=C1CC(c2cccnc2)n2ncnc2N1

>  <smiles>  (373) 
[H]c1nc2n(n1)C([H])(c1c([H])nc([H])c([H])c1[H])C([H])([H])C(=O)N2[H]

$$$$
110:0:1
     RDKit          3D

 25 27  0  0  1  0  0  0  0  0999 V2000
    7.0189   -1.4540    0.3143 O   0  0  0  0  0  0  0  0  0  0  0  0
    6.2568   -1.8621   -0.5551 C   0  0  0  0  0  0  0  0  0  0  0  0
    6.3230   -3.3357   -1.0041 C   0  0  0  0  0  0  0  0  0  0  0  0
    4.9424   -3.8862   -1.4515 C   0  0  1  0  0  0  0  0  0  0  0  0
    4.0953   -4.3291   -0.2593 C   0  0  0  0  0  0  0  0  0  0  0  0
    3.3708   -3.4117    0.5348 C   0  0  0  0  0  0  0  0  0  0  0  0
    2.6184   -3.8958    1.6203 C   0  0  0  0  0  0  0  0  0  0  0  0
    2.6144   -5.2800    1.8707 C   0  0  0  0  0  0  0  0  0  0  0  0
    3.2924   -6.1684    1.1176 N   0  0  0  0  0  0  0  0  0  0  0  0
    4.0223   -5.6960    0.0858 C   0  0  0  0  0  0  0  0  0  0  0  0
    4.2777   -2.8624   -2.2441 N   0  0  0  0  0  0  0  0  0  0  0  0
    3.3238   -3.0793   -3.1724 N   0  0  0  0  0  0  0  0  0  0  0  0
    3.0053   -1.8353   -3.5422 C   0  0  0  0  0  0  0  0  0  0  0  0
    3.7166   -0.8198   -2.9544 N   0  0  0  0  0  0  0  0  0  0  0  0
    4.4598   -1.5498   -2.1429 C   0  0  0  0  0  0  0  0  0  0  0  0
    5.3932   -1.0556   -1.2061 N   0  0  0  0  0  0  0  0  0  0  0  0
    7.0018   -3.3537   -1.8546 H   0  0  0  0  0  0  0  0  0  0  0  0
    6.7863   -3.9512   -0.2323 H   0  0  0  0  0  0  0  0  0  0  0  0
    5.0984   -4.7485   -2.1007 H   0  0  0  0  0  0  0  0  0  0  0  0
    3.3808   -2.3536    0.3233 H   0  0  0  0  0  0  0  0  0  0  0  0
    2.0539   -3.2187    2.2426 H   0  0  0  0  0  0  0  0  0  0  0  0
    2.0413   -5.6845    2.6895 H   0  0  0  0  0  0  0  0  0  0  0  0
    4.5530   -6.4415   -0.4907 H   0  0  0  0  0  0  0  0  0  0  0  0
    2.2284   -1.6581   -4.2688 H   0  0  0  0  0  0  0  0  0  0  0  0
    5.3662   -0.0657   -1.0053 H   0  0  0  0  0  0  0  0  0  0  0  0
  1  2  2  0
  2 16  1  0
  2  3  1  0
  3  4  1  0
  3 17  1  0
  3 18  1  0
  4  5  1  0
  4 11  1  0
  4 19  1  6
  5 10  1  0
  5  6  2  0
  6  7  1  0
  6 20  1  0
  7  8  2  0
  7 21  1  0
  8  9  1  0
  8 22  1  0
  9 10  2  0
 10 23  1  0
 11 15  1  0
 11 12  1  0
 12 13  2  0
 13 14  1  0
 13 24  1  0
 14 15  2  0
 15 16  1  0
 16 25  1  0
M  END
>  <i_m_ct_stereo_status>  (374) 
1

>  <s_m_source_file>  (374) 
/var/tmp/pbs.5076255.sched01/tmpp4327t_d/123x5hmlc3y.sdf

>  <i_m_source_file_index>  (374) 
30

>  <i_lp_mmshare_version>  (374) 
48012

>  <i_f3d_flags>  (374) 
0

>  <s_epik_input>  (374) 
bjFbY0hdbmMobjEyKVtOSF1DKD1PKVtDSDJdW0NASF0yYzNbY0hdW2NIXVtjSF1uW2NIXTM=

>  <s_epik_cmdline>  (374) 
J2VwaWtfcHl0aG9uJywgJy1waHQnLCAnMi4wJywgJy1waCcsICc3LjAnLCAnLXRuJywgJzgnLCAnLW1hJywgJzIwMCcsICctaW1hZScsICc8aW5maWxlLm1hZT4nLCAnLW9tYWUnLCAnPG91dGZpbGUubWFlPic=

>  <r_lp_tautomer_probability>  (374) 
1

>  <r_epik_Ionization_Penalty>  (374) 
0.00222853

>  <r_epik_Ionization_Penalty_Charging>  (374) 
0

>  <r_epik_Ionization_Penalty_Neutral>  (374) 
0.00222853

>  <r_epik_State_Penalty>  (374) 
1.10951e-07

>  <r_epik_Charging_Adjusted_Penalty>  (374) 
1.10951e-07

>  <i_epik_Tot_Q>  (374) 
0

>  <i_epik_Tot_abs_Q>  (374) 
0

>  <s_lp_Force_Field>  (374) 
OPLS3e

>  <r_lp_Energy>  (374) 
25.4848

>  <b_lp_Chiralities_Consistent>  (374) 
1

>  <s_lp_Variant>  (374) 
110:0-1

>  <s_i_glide_gridfile>  (374) 
pfpi4k_grid

>  <i_i_glide_lignum>  (374) 
30

>  <i_i_glide_rotatable_bonds>  (374) 
1

>  <r_i_docking_score>  (374) 
-3.90372

>  <r_i_glide_ligand_efficiency>  (374) 
-0.243982

>  <r_i_glide_ligand_efficiency_sa>  (374) 
-0.614797

>  <r_i_glide_ligand_efficiency_ln>  (374) 
-1.03476

>  <r_i_glide_gscore>  (374) 
-3.90372

>  <r_i_glide_lipo>  (374) 
-0.125829

>  <r_i_glide_hbond>  (374) 
-0.335205

>  <r_i_glide_metal>  (374) 
-0

>  <r_i_glide_rewards>  (374) 
-2.21958

>  <r_i_glide_evdw>  (374) 
-24.6656

>  <r_i_glide_ecoul>  (374) 
-1.39436

>  <r_i_glide_erotb>  (374) 
0.361159

>  <r_i_glide_esite>  (374) 
-0.14183

>  <r_i_glide_emodel>  (374) 
-32.2955

>  <r_i_glide_energy>  (374) 
-26.0599

>  <r_i_glide_einternal>  (374) 
0.00160801

>  <r_i_glide_intrahb_reward>  (374) 
-0

>  <i_i_glide_confnum>  (374) 
4

>  <i_i_glide_posenum>  (374) 
2

>  <r_i_glide_eff_state_penalty>  (374) 
0

>  <ligand_id>  (374) 
110

>  <original_smiles>  (374) 
O=C1CC(c2cccnc2)n2ncnc2N1

>  <smiles>  (374) 
[H]c1nc2n(n1)C([H])(c1c([H])nc([H])c([H])c1[H])C([H])([H])C(=O)N2[H]

$$$$
110:0:2
     RDKit          3D

 25 27  0  0  1  0  0  0  0  0999 V2000
    2.6632   -5.1030    1.4415 O   0  0  0  0  0  0  0  0  0  0  0  0
    3.0357   -3.9322    1.5282 C   0  0  0  0  0  0  0  0  0  0  0  0
    4.4260   -3.5069    0.9900 C   0  0  0  0  0  0  0  0  0  0  0  0
    4.4222   -2.0845    0.3484 C   0  0  1  0  0  0  0  0  0  0  0  0
    3.9482   -2.0604   -1.1086 C   0  0  0  0  0  0  0  0  0  0  0  0
    4.3872   -1.0488   -1.9904 C   0  0  0  0  0  0  0  0  0  0  0  0
    3.9219   -1.0531   -3.3249 C   0  0  0  0  0  0  0  0  0  0  0  0
    3.0390   -2.0706   -3.7133 C   0  0  0  0  0  0  0  0  0  0  0  0
    2.6110   -3.0414   -2.9008 N   0  0  0  0  0  0  0  0  0  0  0  0
    3.0499   -3.0248   -1.6298 C   0  0  0  0  0  0  0  0  0  0  0  0
    3.5913   -1.2182    1.1775 N   0  0  0  0  0  0  0  0  0  0  0  0
    3.7162    0.1227    1.2714 N   0  0  0  0  0  0  0  0  0  0  0  0
    2.7149    0.4293    2.1089 C   0  0  0  0  0  0  0  0  0  0  0  0
    1.9546   -0.6132    2.5820 N   0  0  0  0  0  0  0  0  0  0  0  0
    2.5779   -1.5958    1.9542 C   0  0  0  0  0  0  0  0  0  0  0  0
    2.2552   -2.9642    2.0548 N   0  0  0  0  0  0  0  0  0  0  0  0
    5.0985   -3.5166    1.8448 H   0  0  0  0  0  0  0  0  0  0  0  0
    4.8213   -4.2521    0.3002 H   0  0  0  0  0  0  0  0  0  0  0  0
    5.4421   -1.6999    0.3928 H   0  0  0  0  0  0  0  0  0  0  0  0
    5.0606   -0.2683   -1.6557 H   0  0  0  0  0  0  0  0  0  0  0  0
    4.2283   -0.2962   -4.0359 H   0  0  0  0  0  0  0  0  0  0  0  0
    2.6621   -2.1238   -4.7133 H   0  0  0  0  0  0  0  0  0  0  0  0
    2.6575   -3.8372   -1.0421 H   0  0  0  0  0  0  0  0  0  0  0  0
    2.5239    1.4507    2.4041 H   0  0  0  0  0  0  0  0  0  0  0  0
    1.3477   -3.1940    2.4279 H   0  0  0  0  0  0  0  0  0  0  0  0
  1  2  2  0
  2 16  1  0
  2  3  1  0
  3  4  1  0
  3 17  1  0
  3 18  1  0
  4  5  1  0
  4 11  1  0
  4 19  1  6
  5 10  1  0
  5  6  2  0
  6  7  1  0
  6 20  1  0
  7  8  2  0
  7 21  1  0
  8  9  1  0
  8 22  1  0
  9 10  2  0
 10 23  1  0
 11 15  1  0
 11 12  1  0
 12 13  2  0
 13 14  1  0
 13 24  1  0
 14 15  2  0
 15 16  1  0
 16 25  1  0
M  END
>  <i_m_ct_stereo_status>  (375) 
1

>  <s_m_source_file>  (375) 
/var/tmp/pbs.5076255.sched01/tmpp4327t_d/123x5hmlc3y.sdf

>  <i_m_source_file_index>  (375) 
30

>  <i_lp_mmshare_version>  (375) 
48012

>  <i_f3d_flags>  (375) 
0

>  <s_epik_input>  (375) 
bjFbY0hdbmMobjEyKVtOSF1DKD1PKVtDSDJdW0NASF0yYzNbY0hdW2NIXVtjSF1uW2NIXTM=

>  <s_epik_cmdline>  (375) 
J2VwaWtfcHl0aG9uJywgJy1waHQnLCAnMi4wJywgJy1waCcsICc3LjAnLCAnLXRuJywgJzgnLCAnLW1hJywgJzIwMCcsICctaW1hZScsICc8aW5maWxlLm1hZT4nLCAnLW9tYWUnLCAnPG91dGZpbGUubWFlPic=

>  <r_lp_tautomer_probability>  (375) 
1

>  <r_epik_Ionization_Penalty>  (375) 
0.00222853

>  <r_epik_Ionization_Penalty_Charging>  (375) 
0

>  <r_epik_Ionization_Penalty_Neutral>  (375) 
0.00222853

>  <r_epik_State_Penalty>  (375) 
1.10951e-07

>  <r_epik_Charging_Adjusted_Penalty>  (375) 
1.10951e-07

>  <i_epik_Tot_Q>  (375) 
0

>  <i_epik_Tot_abs_Q>  (375) 
0

>  <s_lp_Force_Field>  (375) 
OPLS3e

>  <r_lp_Energy>  (375) 
25.4848

>  <b_lp_Chiralities_Consistent>  (375) 
1

>  <s_lp_Variant>  (375) 
110:0-1

>  <s_i_glide_gridfile>  (375) 
pfpi4k_grid

>  <i_i_glide_lignum>  (375) 
30

>  <i_i_glide_rotatable_bonds>  (375) 
1

>  <r_i_docking_score>  (375) 
-3.29056

>  <r_i_glide_ligand_efficiency>  (375) 
-0.20566

>  <r_i_glide_ligand_efficiency_sa>  (375) 
-0.518231

>  <r_i_glide_ligand_efficiency_ln>  (375) 
-0.872229

>  <r_i_glide_gscore>  (375) 
-3.29056

>  <r_i_glide_lipo>  (375) 
-0.39109

>  <r_i_glide_hbond>  (375) 
0

>  <r_i_glide_metal>  (375) 
-0

>  <r_i_glide_rewards>  (375) 
-1.96048

>  <r_i_glide_evdw>  (375) 
-23.3511

>  <r_i_glide_ecoul>  (375) 
-0.378847

>  <r_i_glide_erotb>  (375) 
0.361159

>  <r_i_glide_esite>  (375) 
-0.0757708

>  <r_i_glide_emodel>  (375) 
-27.7884

>  <r_i_glide_energy>  (375) 
-23.7299

>  <r_i_glide_einternal>  (375) 
2.03667

>  <r_i_glide_intrahb_reward>  (375) 
-0

>  <i_i_glide_confnum>  (375) 
2

>  <i_i_glide_posenum>  (375) 
31

>  <r_i_glide_eff_state_penalty>  (375) 
0

>  <ligand_id>  (375) 
110

>  <original_smiles>  (375) 
O=C1CC(c2cccnc2)n2ncnc2N1

>  <smiles>  (375) 
[H]c1nc2n(n1)C([H])(c1c([H])nc([H])c([H])c1[H])C([H])([H])C(=O)N2[H]

$$$$
111:0:0
     RDKit          3D

 31 34  0  0  1  0  0  0  0  0999 V2000
   -7.0083  -10.3751   -7.7244 C   0  0  0  0  0  0  0  0  0  0  0  0
   -7.2509   -8.8548   -7.8834 C   0  0  1  0  0  0  0  0  0  0  0  0
   -8.7217   -8.5346   -7.5400 C   0  0  0  0  0  0  0  0  0  0  0  0
   -8.9388   -7.0083   -7.6195 C   0  0  1  0  0  0  0  0  0  0  0  0
   -8.0737   -6.3244   -6.5715 C   0  0  0  0  0  0  0  0  0  0  0  0
   -8.5604   -5.1992   -5.8667 C   0  0  0  0  0  0  0  0  0  0  0  0
   -7.7555   -4.5805   -4.8932 C   0  0  0  0  0  0  0  0  0  0  0  0
   -6.4627   -5.0633   -4.6358 C   0  0  0  0  0  0  0  0  0  0  0  0
   -5.9873   -6.2030   -5.3070 C   0  0  0  0  0  0  0  0  0  0  0  0
   -6.7931   -6.8537   -6.2662 C   0  0  0  0  0  0  0  0  0  0  0  0
   -6.2789   -8.0819   -6.9491 C   0  0  0  0  0  0  0  0  0  0  0  0
   -5.1179   -8.4762   -6.8256 O   0  0  0  0  0  0  0  0  0  0  0  0
   -8.5713   -6.5338   -8.9764 C   0  0  0  0  0  0  0  0  0  0  0  0
   -9.0324   -5.4752   -9.5937 N   0  0  0  0  0  0  0  0  0  0  0  0
   -8.3156   -5.5481  -10.7544 C   0  0  0  0  0  0  0  0  0  0  0  0
   -7.4900   -6.5836  -10.8661 N   0  0  0  0  0  0  0  0  0  0  0  0
   -7.6776   -7.2081   -9.6947 N   0  0  0  0  0  0  0  0  0  0  0  0
   -6.9991   -8.4313   -9.3487 C   0  0  0  0  0  0  0  0  0  0  0  0
   -7.7010  -10.9520   -8.3416 H   0  0  0  0  0  0  0  0  0  0  0  0
   -7.1524  -10.6865   -6.6859 H   0  0  0  0  0  0  0  0  0  0  0  0
   -5.9939  -10.6552   -8.0181 H   0  0  0  0  0  0  0  0  0  0  0  0
   -9.3884   -9.0370   -8.2467 H   0  0  0  0  0  0  0  0  0  0  0  0
   -8.9609   -8.9503   -6.5664 H   0  0  0  0  0  0  0  0  0  0  0  0
   -9.9934   -6.7683   -7.4945 H   0  0  0  0  0  0  0  0  0  0  0  0
   -9.5596   -4.8255   -6.0467 H   0  0  0  0  0  0  0  0  0  0  0  0
   -8.1344   -3.7332   -4.3395 H   0  0  0  0  0  0  0  0  0  0  0  0
   -5.8370   -4.5555   -3.9195 H   0  0  0  0  0  0  0  0  0  0  0  0
   -4.9953   -6.5705   -5.0855 H   0  0  0  0  0  0  0  0  0  0  0  0
   -8.3868   -4.8026  -11.5380 H   0  0  0  0  0  0  0  0  0  0  0  0
   -5.9350   -8.2863   -9.5147 H   0  0  0  0  0  0  0  0  0  0  0  0
   -7.3730   -9.1959  -10.0295 H   0  0  0  0  0  0  0  0  0  0  0  0
  2  1  1  6
  1 19  1  0
  1 20  1  0
  1 21  1  0
  2 11  1  0
  2 18  1  0
  2  3  1  0
  3  4  1  0
  3 22  1  0
  3 23  1  0
  4  5  1  0
  4 13  1  0
  4 24  1  1
  5 10  2  0
  5  6  1  0
  6  7  2  0
  6 25  1  0
  7  8  1  0
  7 26  1  0
  8  9  2  0
  8 27  1  0
  9 10  1  0
  9 28  1  0
 10 11  1  0
 11 12  2  0
 13 17  1  0
 13 14  2  0
 14 15  1  0
 15 16  2  0
 15 29  1  0
 16 17  1  0
 17 18  1  0
 18 30  1  0
 18 31  1  0
M  END
>  <i_m_ct_stereo_status>  (376) 
1

>  <s_m_source_file>  (376) 
/var/tmp/pbs.5076255.sched01/tmpp4327t_d/123x5hmlc3y.sdf

>  <i_m_source_file_index>  (376) 
31

>  <i_lp_mmshare_version>  (376) 
48012

>  <i_f3d_flags>  (376) 
0

>  <s_epik_input>  (376) 
bjFbY0hdbm4oW0NIMl0yKWMxW0NAQEhdKFtDSDJdW0NAQF0yM1tDSDNdKWM0YyhDMz1PKVtjSF1bY0hdW2NIXVtjSF00

>  <s_epik_cmdline>  (376) 
J2VwaWtfcHl0aG9uJywgJy1waHQnLCAnMi4wJywgJy1waCcsICc3LjAnLCAnLXRuJywgJzgnLCAnLW1hJywgJzIwMCcsICctaW1hZScsICc8aW5maWxlLm1hZT4nLCAnLW9tYWUnLCAnPG91dGZpbGUubWFlPic=

>  <r_lp_tautomer_probability>  (376) 
1

>  <r_epik_Ionization_Penalty>  (376) 
6.76688e-05

>  <r_epik_Ionization_Penalty_Charging>  (376) 
0

>  <r_epik_Ionization_Penalty_Neutral>  (376) 
6.76688e-05

>  <r_epik_State_Penalty>  (376) 
-0

>  <r_epik_Charging_Adjusted_Penalty>  (376) 
0

>  <i_epik_Tot_Q>  (376) 
0

>  <i_epik_Tot_abs_Q>  (376) 
0

>  <s_lp_Force_Field>  (376) 
OPLS3e

>  <r_lp_Energy>  (376) 
27.2026

>  <b_lp_Chiralities_Consistent>  (376) 
1

>  <s_lp_Variant>  (376) 
111:0-1

>  <s_i_glide_gridfile>  (376) 
pfpi4k_grid

>  <i_i_glide_lignum>  (376) 
31

>  <i_i_glide_rotatable_bonds>  (376) 
0

>  <r_i_docking_score>  (376) 
-6.41372

>  <r_i_glide_ligand_efficiency>  (376) 
-0.356318

>  <r_i_glide_ligand_efficiency_sa>  (376) 
-0.933817

>  <r_i_glide_ligand_efficiency_ln>  (376) 
-1.64861

>  <r_i_glide_gscore>  (376) 
-6.41372

>  <r_i_glide_lipo>  (376) 
-2.26912

>  <r_i_glide_hbond>  (376) 
0

>  <r_i_glide_metal>  (376) 
-0

>  <r_i_glide_rewards>  (376) 
-3.07056

>  <r_i_glide_evdw>  (376) 
-18.5899

>  <r_i_glide_ecoul>  (376) 
-0.963687

>  <r_i_glide_erotb>  (376) 
0

>  <r_i_glide_esite>  (376) 
0

>  <r_i_glide_emodel>  (376) 
-30.0125

>  <r_i_glide_energy>  (376) 
-19.5536

>  <r_i_glide_einternal>  (376) 
0

>  <r_i_glide_intrahb_reward>  (376) 
-0

>  <i_i_glide_confnum>  (376) 
1

>  <i_i_glide_posenum>  (376) 
5

>  <r_i_glide_eff_state_penalty>  (376) 
0

>  <ligand_id>  (376) 
111

>  <original_smiles>  (376) 
CC12CC(c3ccccc3C1=O)c1ncnn1C2

>  <smiles>  (376) 
[H]c1nc2n(n1)C([H])([H])C1(C([H])([H])[H])C(=O)c3c([H])c([H])c([H])c([H])c3C2([H])C1([H])[H]

$$$$
111:0:1
     RDKit          3D

 31 34  0  0  1  0  0  0  0  0999 V2000
    2.7779   -2.8166   -2.6544 C   0  0  0  0  0  0  0  0  0  0  0  0
    3.7731   -2.7084   -1.4742 C   0  0  1  0  0  0  0  0  0  0  0  0
    4.0451   -1.2084   -1.1769 C   0  0  0  0  0  0  0  0  0  0  0  0
    4.9726   -1.0853    0.0469 C   0  0  1  0  0  0  0  0  0  0  0  0
    4.2509   -1.6406    1.2613 C   0  0  0  0  0  0  0  0  0  0  0  0
    4.4120   -1.0352    2.5275 C   0  0  0  0  0  0  0  0  0  0  0  0
    3.7573   -1.5761    3.6518 C   0  0  0  0  0  0  0  0  0  0  0  0
    2.9553   -2.7225    3.5186 C   0  0  0  0  0  0  0  0  0  0  0  0
    2.7832   -3.3193    2.2587 C   0  0  0  0  0  0  0  0  0  0  0  0
    3.4131   -2.7741    1.1188 C   0  0  0  0  0  0  0  0  0  0  0  0
    3.1716   -3.4046   -0.2162 C   0  0  0  0  0  0  0  0  0  0  0  0
    2.5242   -4.4460   -0.3273 O   0  0  0  0  0  0  0  0  0  0  0  0
    6.2342   -1.8574   -0.2027 C   0  0  0  0  0  0  0  0  0  0  0  0
    7.4252   -1.6361    0.3357 N   0  0  0  0  0  0  0  0  0  0  0  0
    8.1382   -2.6501   -0.2426 C   0  0  0  0  0  0  0  0  0  0  0  0
    7.4669   -3.4151   -1.1035 N   0  0  0  0  0  0  0  0  0  0  0  0
    6.2246   -2.8915   -1.0461 N   0  0  0  0  0  0  0  0  0  0  0  0
    5.1238   -3.3857   -1.8612 C   0  0  0  0  0  0  0  0  0  0  0  0
    3.1455   -2.2974   -3.5439 H   0  0  0  0  0  0  0  0  0  0  0  0
    1.8160   -2.3702   -2.3925 H   0  0  0  0  0  0  0  0  0  0  0  0
    2.5860   -3.8556   -2.9355 H   0  0  0  0  0  0  0  0  0  0  0  0
    4.5100   -0.7314   -2.0440 H   0  0  0  0  0  0  0  0  0  0  0  0
    3.1102   -0.6753   -0.9965 H   0  0  0  0  0  0  0  0  0  0  0  0
    5.2308   -0.0403    0.2092 H   0  0  0  0  0  0  0  0  0  0  0  0
    5.0283   -0.1549    2.6370 H   0  0  0  0  0  0  0  0  0  0  0  0
    3.8763   -1.1112    4.6198 H   0  0  0  0  0  0  0  0  0  0  0  0
    2.4647   -3.1440    4.3822 H   0  0  0  0  0  0  0  0  0  0  0  0
    2.1609   -4.1967    2.1707 H   0  0  0  0  0  0  0  0  0  0  0  0
    9.1870   -2.8178   -0.0542 H   0  0  0  0  0  0  0  0  0  0  0  0
    5.0665   -4.4697   -1.7836 H   0  0  0  0  0  0  0  0  0  0  0  0
    5.3672   -3.1622   -2.9005 H   0  0  0  0  0  0  0  0  0  0  0  0
  2  1  1  6
  1 19  1  0
  1 20  1  0
  1 21  1  0
  2 11  1  0
  2 18  1  0
  2  3  1  0
  3  4  1  0
  3 22  1  0
  3 23  1  0
  4  5  1  0
  4 13  1  0
  4 24  1  1
  5 10  2  0
  5  6  1  0
  6  7  2  0
  6 25  1  0
  7  8  1  0
  7 26  1  0
  8  9  2  0
  8 27  1  0
  9 10  1  0
  9 28  1  0
 10 11  1  0
 11 12  2  0
 13 17  1  0
 13 14  2  0
 14 15  1  0
 15 16  2  0
 15 29  1  0
 16 17  1  0
 17 18  1  0
 18 30  1  0
 18 31  1  0
M  END
>  <i_m_ct_stereo_status>  (377) 
1

>  <s_m_source_file>  (377) 
/var/tmp/pbs.5076255.sched01/tmpp4327t_d/123x5hmlc3y.sdf

>  <i_m_source_file_index>  (377) 
31

>  <i_lp_mmshare_version>  (377) 
48012

>  <i_f3d_flags>  (377) 
0

>  <s_epik_input>  (377) 
bjFbY0hdbm4oW0NIMl0yKWMxW0NAQEhdKFtDSDJdW0NAQF0yM1tDSDNdKWM0YyhDMz1PKVtjSF1bY0hdW2NIXVtjSF00

>  <s_epik_cmdline>  (377) 
J2VwaWtfcHl0aG9uJywgJy1waHQnLCAnMi4wJywgJy1waCcsICc3LjAnLCAnLXRuJywgJzgnLCAnLW1hJywgJzIwMCcsICctaW1hZScsICc8aW5maWxlLm1hZT4nLCAnLW9tYWUnLCAnPG91dGZpbGUubWFlPic=

>  <r_lp_tautomer_probability>  (377) 
1

>  <r_epik_Ionization_Penalty>  (377) 
6.76688e-05

>  <r_epik_Ionization_Penalty_Charging>  (377) 
0

>  <r_epik_Ionization_Penalty_Neutral>  (377) 
6.76688e-05

>  <r_epik_State_Penalty>  (377) 
-0

>  <r_epik_Charging_Adjusted_Penalty>  (377) 
0

>  <i_epik_Tot_Q>  (377) 
0

>  <i_epik_Tot_abs_Q>  (377) 
0

>  <s_lp_Force_Field>  (377) 
OPLS3e

>  <r_lp_Energy>  (377) 
27.2026

>  <b_lp_Chiralities_Consistent>  (377) 
1

>  <s_lp_Variant>  (377) 
111:0-1

>  <s_i_glide_gridfile>  (377) 
pfpi4k_grid

>  <i_i_glide_lignum>  (377) 
31

>  <i_i_glide_rotatable_bonds>  (377) 
0

>  <r_i_docking_score>  (377) 
-3.47632

>  <r_i_glide_ligand_efficiency>  (377) 
-0.193129

>  <r_i_glide_ligand_efficiency_sa>  (377) 
-0.506141

>  <r_i_glide_ligand_efficiency_ln>  (377) 
-0.89357

>  <r_i_glide_gscore>  (377) 
-3.47632

>  <r_i_glide_lipo>  (377) 
-0.178527

>  <r_i_glide_hbond>  (377) 
-0.0398703

>  <r_i_glide_metal>  (377) 
-0

>  <r_i_glide_rewards>  (377) 
-1.88035

>  <r_i_glide_evdw>  (377) 
-23.7741

>  <r_i_glide_ecoul>  (377) 
-1.10665

>  <r_i_glide_erotb>  (377) 
0

>  <r_i_glide_esite>  (377) 
-0.0228651

>  <r_i_glide_emodel>  (377) 
-30.5274

>  <r_i_glide_energy>  (377) 
-24.8808

>  <r_i_glide_einternal>  (377) 
0

>  <r_i_glide_intrahb_reward>  (377) 
-0

>  <i_i_glide_confnum>  (377) 
2

>  <i_i_glide_posenum>  (377) 
9

>  <r_i_glide_eff_state_penalty>  (377) 
0

>  <ligand_id>  (377) 
111

>  <original_smiles>  (377) 
CC12CC(c3ccccc3C1=O)c1ncnn1C2

>  <smiles>  (377) 
[H]c1nc2n(n1)C([H])([H])C1(C([H])([H])[H])C(=O)c3c([H])c([H])c([H])c([H])c3C2([H])C1([H])[H]

$$$$
111:0:2
     RDKit          3D

 31 34  0  0  1  0  0  0  0  0999 V2000
   -2.9232    3.2362    3.0943 C   0  0  0  0  0  0  0  0  0  0  0  0
   -1.8479    2.9241    4.1594 C   0  0  1  0  0  0  0  0  0  0  0  0
   -1.3551    1.4642    3.9763 C   0  0  0  0  0  0  0  0  0  0  0  0
   -0.2296    1.1731    4.9849 C   0  0  1  0  0  0  0  0  0  0  0  0
    0.9459    2.0720    4.6500 C   0  0  0  0  0  0  0  0  0  0  0  0
    2.2658    1.5868    4.7843 C   0  0  0  0  0  0  0  0  0  0  0  0
    3.3557    2.4323    4.5015 C   0  0  0  0  0  0  0  0  0  0  0  0
    3.1244    3.7588    4.0964 C   0  0  0  0  0  0  0  0  0  0  0  0
    1.8156    4.2401    3.9379 C   0  0  0  0  0  0  0  0  0  0  0  0
    0.7134    3.3981    4.1975 C   0  0  0  0  0  0  0  0  0  0  0  0
   -0.6755    3.9180    3.9923 C   0  0  0  0  0  0  0  0  0  0  0  0
   -0.9322    5.0991    3.7507 O   0  0  0  0  0  0  0  0  0  0  0  0
   -0.7147    1.4442    6.3821 C   0  0  0  0  0  0  0  0  0  0  0  0
   -0.2855    0.8893    7.5094 N   0  0  0  0  0  0  0  0  0  0  0  0
   -1.0453    1.5836    8.4117 C   0  0  0  0  0  0  0  0  0  0  0  0
   -1.9401    2.4255    7.9021 N   0  0  0  0  0  0  0  0  0  0  0  0
   -1.6833    2.3428    6.5793 N   0  0  0  0  0  0  0  0  0  0  0  0
   -2.4344    3.0918    5.5912 C   0  0  0  0  0  0  0  0  0  0  0  0
   -3.7679    2.5494    3.1598 H   0  0  0  0  0  0  0  0  0  0  0  0
   -2.5124    3.1618    2.0848 H   0  0  0  0  0  0  0  0  0  0  0  0
   -3.3286    4.2426    3.1988 H   0  0  0  0  0  0  0  0  0  0  0  0
   -2.1833    0.7761    4.1505 H   0  0  0  0  0  0  0  0  0  0  0  0
   -1.0197    1.2882    2.9508 H   0  0  0  0  0  0  0  0  0  0  0  0
    0.0592    0.1239    4.9176 H   0  0  0  0  0  0  0  0  0  0  0  0
    2.4462    0.5673    5.0970 H   0  0  0  0  0  0  0  0  0  0  0  0
    4.3672    2.0569    4.5915 H   0  0  0  0  0  0  0  0  0  0  0  0
    3.9578    4.4086    3.8874 H   0  0  0  0  0  0  0  0  0  0  0  0
    1.6645    5.2559    3.6029 H   0  0  0  0  0  0  0  0  0  0  0  0
   -0.9783    1.4254    9.4778 H   0  0  0  0  0  0  0  0  0  0  0  0
   -2.4965    4.1348    5.8935 H   0  0  0  0  0  0  0  0  0  0  0  0
   -3.4483    2.7124    5.6177 H   0  0  0  0  0  0  0  0  0  0  0  0
  2  1  1  6
  1 19  1  0
  1 20  1  0
  1 21  1  0
  2 11  1  0
  2 18  1  0
  2  3  1  0
  3  4  1  0
  3 22  1  0
  3 23  1  0
  4  5  1  0
  4 13  1  0
  4 24  1  1
  5 10  2  0
  5  6  1  0
  6  7  2  0
  6 25  1  0
  7  8  1  0
  7 26  1  0
  8  9  2  0
  8 27  1  0
  9 10  1  0
  9 28  1  0
 10 11  1  0
 11 12  2  0
 13 17  1  0
 13 14  2  0
 14 15  1  0
 15 16  2  0
 15 29  1  0
 16 17  1  0
 17 18  1  0
 18 30  1  0
 18 31  1  0
M  END
>  <i_m_ct_stereo_status>  (378) 
1

>  <s_m_source_file>  (378) 
/var/tmp/pbs.5076255.sched01/tmpp4327t_d/123x5hmlc3y.sdf

>  <i_m_source_file_index>  (378) 
31

>  <i_lp_mmshare_version>  (378) 
48012

>  <i_f3d_flags>  (378) 
0

>  <s_epik_input>  (378) 
bjFbY0hdbm4oW0NIMl0yKWMxW0NAQEhdKFtDSDJdW0NAQF0yM1tDSDNdKWM0YyhDMz1PKVtjSF1bY0hdW2NIXVtjSF00

>  <s_epik_cmdline>  (378) 
J2VwaWtfcHl0aG9uJywgJy1waHQnLCAnMi4wJywgJy1waCcsICc3LjAnLCAnLXRuJywgJzgnLCAnLW1hJywgJzIwMCcsICctaW1hZScsICc8aW5maWxlLm1hZT4nLCAnLW9tYWUnLCAnPG91dGZpbGUubWFlPic=

>  <r_lp_tautomer_probability>  (378) 
1

>  <r_epik_Ionization_Penalty>  (378) 
6.76688e-05

>  <r_epik_Ionization_Penalty_Charging>  (378) 
0

>  <r_epik_Ionization_Penalty_Neutral>  (378) 
6.76688e-05

>  <r_epik_State_Penalty>  (378) 
-0

>  <r_epik_Charging_Adjusted_Penalty>  (378) 
0

>  <i_epik_Tot_Q>  (378) 
0

>  <i_epik_Tot_abs_Q>  (378) 
0

>  <s_lp_Force_Field>  (378) 
OPLS3e

>  <r_lp_Energy>  (378) 
27.2026

>  <b_lp_Chiralities_Consistent>  (378) 
1

>  <s_lp_Variant>  (378) 
111:0-1

>  <s_i_glide_gridfile>  (378) 
pfpi4k_grid

>  <i_i_glide_lignum>  (378) 
31

>  <i_i_glide_rotatable_bonds>  (378) 
0

>  <r_i_docking_score>  (378) 
-3.34646

>  <r_i_glide_ligand_efficiency>  (378) 
-0.185914

>  <r_i_glide_ligand_efficiency_sa>  (378) 
-0.487234

>  <r_i_glide_ligand_efficiency_ln>  (378) 
-0.86019

>  <r_i_glide_gscore>  (378) 
-3.34646

>  <r_i_glide_lipo>  (378) 
-0.00890661

>  <r_i_glide_hbond>  (378) 
-0.130103

>  <r_i_glide_metal>  (378) 
-0

>  <r_i_glide_rewards>  (378) 
-1.78825

>  <r_i_glide_evdw>  (378) 
-17.4755

>  <r_i_glide_ecoul>  (378) 
-2.78191

>  <r_i_glide_erotb>  (378) 
0

>  <r_i_glide_esite>  (378) 
-0.128141

>  <r_i_glide_emodel>  (378) 
-25.6686

>  <r_i_glide_energy>  (378) 
-20.2574

>  <r_i_glide_einternal>  (378) 
0

>  <r_i_glide_intrahb_reward>  (378) 
-0

>  <i_i_glide_confnum>  (378) 
1

>  <i_i_glide_posenum>  (378) 
16

>  <r_i_glide_eff_state_penalty>  (378) 
0

>  <ligand_id>  (378) 
111

>  <original_smiles>  (378) 
CC12CC(c3ccccc3C1=O)c1ncnn1C2

>  <smiles>  (378) 
[H]c1nc2n(n1)C([H])([H])C1(C([H])([H])[H])C(=O)c3c([H])c([H])c([H])c([H])c3C2([H])C1([H])[H]

$$$$
112:0:0
     RDKit          3D

 50 53  0  0  1  0  0  0  0  0999 V2000
    4.2467    0.4639   -3.4991 C   0  0  0  0  0  0  0  0  0  0  0  0
    4.5516   -0.4536   -2.3144 C   0  0  0  0  0  0  0  0  0  0  0  0
    3.8993   -1.8540   -2.3850 C   0  0  2  0  0  0  0  0  0  0  0  0
    2.5540   -1.7451   -2.9963 C   0  0  0  0  0  0  0  0  0  0  0  0
    1.8813   -3.0844   -3.1219 C   0  0  0  0  0  0  0  0  0  0  0  0
    1.8128   -3.7893   -1.7631 C   0  0  0  0  0  0  0  0  0  0  0  0
    0.8891   -4.5590   -1.5040 O   0  0  0  0  0  0  0  0  0  0  0  0
    2.7707   -3.5452   -0.9234 O   0  0  0  0  0  0  0  0  0  0  0  0
    3.8683   -2.6490   -1.0295 C   0  0  2  0  0  0  0  0  0  0  0  0
    3.7566   -1.9005    0.3142 C   0  0  0  0  0  0  0  0  0  0  0  0
    4.3790   -2.7230    1.4768 C   0  0  0  0  0  0  0  0  0  0  0  0
    5.6538   -3.5521    1.0945 C   0  0  1  0  0  0  0  0  0  0  0  0
    6.0827   -4.3006    2.3532 C   0  0  0  0  0  0  0  0  0  0  0  0
    5.3622   -4.5126   -0.0528 C   0  0  1  0  0  0  0  0  0  0  0  0
    4.3194   -5.6119    0.2472 C   0  0  0  0  0  0  0  0  0  0  0  0
    5.1756   -3.4227   -1.1440 C   0  0  1  0  0  0  0  0  0  0  0  0
    5.2325   -3.7881   -2.6156 C   0  0  0  0  0  0  0  0  0  0  0  0
    4.7041   -2.6423   -3.2828 O   0  0  0  0  0  0  0  0  0  0  0  0
    6.2786   -2.5396   -0.8898 O   0  0  0  0  0  0  0  0  0  0  0  0
    6.7583   -2.6577    0.4392 C   0  0  0  0  0  0  0  0  0  0  0  0
    6.9564   -1.2218    0.9964 C   0  0  0  0  0  0  0  0  0  0  0  0
    8.1671   -3.3068    0.3130 C   0  0  0  0  0  0  0  0  0  0  0  0
    4.7919    1.3807   -3.3607 H   0  0  0  0  0  0  0  0  0  0  0  0
    3.2115    0.7434   -3.5857 H   0  0  0  0  0  0  0  0  0  0  0  0
    4.5740    0.0090   -4.4525 H   0  0  0  0  0  0  0  0  0  0  0  0
    5.6307   -0.5833   -2.1896 H   0  0  0  0  0  0  0  0  0  0  0  0
    4.2109    0.0927   -1.4512 H   0  0  0  0  0  0  0  0  0  0  0  0
    1.9945   -1.1032   -2.3330 H   0  0  0  0  0  0  0  0  0  0  0  0
    2.5129   -1.2949   -3.9857 H   0  0  0  0  0  0  0  0  0  0  0  0
    0.8877   -2.9834   -3.5278 H   0  0  0  0  0  0  0  0  0  0  0  0
    2.4214   -3.7241   -3.8192 H   0  0  0  0  0  0  0  0  0  0  0  0
    4.2282   -0.9385    0.2969 H   0  0  0  0  0  0  0  0  0  0  0  0
    2.7104   -1.6818    0.5511 H   0  0  0  0  0  0  0  0  0  0  0  0
    4.6151   -2.0280    2.2822 H   0  0  0  0  0  0  0  0  0  0  0  0
    3.6191   -3.3797    1.9149 H   0  0  0  0  0  0  0  0  0  0  0  0
    6.9922   -4.8931    2.2033 H   0  0  0  0  0  0  0  0  0  0  0  0
    5.3228   -4.9481    2.7784 H   0  0  0  0  0  0  0  0  0  0  0  0
    6.1922   -3.4672    3.0303 H   0  0  0  0  0  0  0  0  0  0  0  0
    6.2565   -5.0785   -0.3093 H   0  0  0  0  0  0  0  0  0  0  0  0
    3.4133   -5.2564    0.7326 H   0  0  0  0  0  0  0  0  0  0  0  0
    4.7434   -6.3488    0.9389 H   0  0  0  0  0  0  0  0  0  0  0  0
    4.0531   -6.1508   -0.6546 H   0  0  0  0  0  0  0  0  0  0  0  0
    6.2443   -4.0014   -2.9487 H   0  0  0  0  0  0  0  0  0  0  0  0
    4.6040   -4.6350   -2.8184 H   0  0  0  0  0  0  0  0  0  0  0  0
    7.2563   -1.1752    2.0387 H   0  0  0  0  0  0  0  0  0  0  0  0
    6.0774   -0.5918    0.9633 H   0  0  0  0  0  0  0  0  0  0  0  0
    7.7207   -0.6938    0.4316 H   0  0  0  0  0  0  0  0  0  0  0  0
    8.6486   -3.4284    1.2785 H   0  0  0  0  0  0  0  0  0  0  0  0
    8.8260   -2.6878   -0.2970 H   0  0  0  0  0  0  0  0  0  0  0  0
    8.1704   -4.2910   -0.1607 H   0  0  0  0  0  0  0  0  0  0  0  0
  1  2  1  0
  1 23  1  0
  1 24  1  0
  1 25  1  0
  3  2  1  1
  2 26  1  0
  2 27  1  0
  3  9  1  0
  3 18  1  0
  3  4  1  0
  4  5  1  0
  4 28  1  0
  4 29  1  0
  5  6  1  0
  5 30  1  0
  5 31  1  0
  6  7  2  0
  6  8  1  0
  9  8  1  6
  9 16  1  0
  9 10  1  0
 10 11  1  0
 10 32  1  0
 10 33  1  0
 11 12  1  0
 11 34  1  0
 11 35  1  0
 12 20  1  0
 12 13  1  1
 12 14  1  0
 13 36  1  0
 13 37  1  0
 13 38  1  0
 14 15  1  0
 14 16  1  0
 14 39  1  6
 15 40  1  0
 15 41  1  0
 15 42  1  0
 16 17  1  0
 16 19  1  6
 17 18  1  0
 17 43  1  0
 17 44  1  0
 19 20  1  0
 20 21  1  0
 20 22  1  0
 21 45  1  0
 21 46  1  0
 21 47  1  0
 22 48  1  0
 22 49  1  0
 22 50  1  0
M  END
>  <i_m_ct_stereo_status>  (379) 
1

>  <s_m_source_file>  (379) 
/var/tmp/pbs.5076255.sched01/tmpp4327t_d/123x5hmlc3y.sdf

>  <i_m_source_file_index>  (379) 
32

>  <i_lp_mmshare_version>  (379) 
48012

>  <i_f3d_flags>  (379) 
0

>  <s_epik_input>  (379) 
Tz1DKE8xKVtDSDJdW0NIMl1bQ0BdMihbQ0gyXVtDSDNdKU9bQ0gyXVtDQEBdMyhbQ0BdMTI0KVtDQEhdKFtDSDNdKVtDQF0oW0NIM10pKFtDSDJdW0NIMl00KUMoTzMpKFtDSDNdKVtDSDNd

>  <s_epik_cmdline>  (379) 
J2VwaWtfcHl0aG9uJywgJy1waHQnLCAnMi4wJywgJy1waCcsICc3LjAnLCAnLXRuJywgJzgnLCAnLW1hJywgJzIwMCcsICctaW1hZScsICc8aW5maWxlLm1hZT4nLCAnLW9tYWUnLCAnPG91dGZpbGUubWFlPic=

>  <r_lp_tautomer_probability>  (379) 
1

>  <r_epik_Ionization_Penalty>  (379) 
1.91175e-10

>  <r_epik_Ionization_Penalty_Charging>  (379) 
0

>  <r_epik_Ionization_Penalty_Neutral>  (379) 
1.91175e-10

>  <r_epik_State_Penalty>  (379) 
-0

>  <r_epik_Charging_Adjusted_Penalty>  (379) 
0

>  <i_epik_Tot_Q>  (379) 
0

>  <i_epik_Tot_abs_Q>  (379) 
0

>  <s_epik_Chemistry_Notes>  (379) 
This compound has an ester and may undergo hydrolysis at high or low pH.

>  <s_lp_Force_Field>  (379) 
OPLS3e

>  <r_lp_Energy>  (379) 
46.7078

>  <b_lp_Chiralities_Consistent>  (379) 
1

>  <s_lp_Variant>  (379) 
112:0-1

>  <s_i_glide_gridfile>  (379) 
pfpi4k_grid

>  <i_i_glide_lignum>  (379) 
32

>  <i_i_glide_rotatable_bonds>  (379) 
1

>  <r_i_docking_score>  (379) 
-3.04953

>  <r_i_glide_ligand_efficiency>  (379) 
-0.138615

>  <r_i_glide_ligand_efficiency_sa>  (379) 
-0.388404

>  <r_i_glide_ligand_efficiency_ln>  (379) 
-0.745416

>  <r_i_glide_gscore>  (379) 
-3.04953

>  <r_i_glide_lipo>  (379) 
-0.834922

>  <r_i_glide_hbond>  (379) 
-0.0756822

>  <r_i_glide_metal>  (379) 
-0

>  <r_i_glide_rewards>  (379) 
-1.30628

>  <r_i_glide_evdw>  (379) 
-4.12323

>  <r_i_glide_ecoul>  (379) 
-4.05232

>  <r_i_glide_erotb>  (379) 
0

>  <r_i_glide_esite>  (379) 
-0.0186336

>  <r_i_glide_emodel>  (379) 
-9.50926

>  <r_i_glide_energy>  (379) 
-8.17556

>  <r_i_glide_einternal>  (379) 
2.25229

>  <r_i_glide_intrahb_reward>  (379) 
-0

>  <i_i_glide_confnum>  (379) 
2

>  <i_i_glide_posenum>  (379) 
16

>  <r_i_glide_eff_state_penalty>  (379) 
0

>  <ligand_id>  (379) 
112

>  <original_smiles>  (379) 
CCC12CCC(=O)OC13CCC1(C)C(C)C3(CO2)OC1(C)C

>  <smiles>  (379) 
[H]C([H])([H])C([H])([H])C12OC([H])([H])C34OC(C([H])([H])[H])(C([H])([H])[H])C(C([H])([H])[H])(C([H])([H])C([H])([H])C13OC(=O)C([H])([H])C2([H])[H])C4([H])C([H])([H])[H]

$$$$
114:0:0
     RDKit          3D

 76 80  0  0  1  0  0  0  0  0999 V2000
    3.6833   -5.6366    0.7955 C   0  0  0  0  0  0  0  0  0  0  0  0
    2.8055   -4.3829    0.6776 C   0  0  2  0  0  0  0  0  0  0  0  0
    3.1775   -3.7205   -0.6344 C   0  0  0  0  0  0  0  0  0  0  0  0
    2.3400   -3.4668   -1.6563 C   0  0  0  0  0  0  0  0  0  0  0  0
    2.6882   -2.7421   -2.9477 C   0  0  0  0  0  0  0  0  0  0  0  0
    4.1588   -2.2454   -3.0968 C   0  0  0  0  0  0  0  0  0  0  0  0
    4.6138   -1.2268   -2.0016 C   0  0  0  0  0  0  0  0  0  0  0  0
    5.1328   -3.4269   -3.2943 C   0  0  0  0  0  0  0  0  0  0  0  0
    4.1906   -1.5221   -4.3065 O   0  0  0  0  0  0  0  0  0  0  0  0
    2.9831   -3.4124    1.8910 C   0  0  2  0  0  0  0  0  0  0  0  0
    2.3421   -4.0005    3.1681 C   0  0  0  0  0  0  0  0  0  0  0  0
    2.0974   -3.0023    4.2955 C   0  0  0  0  0  0  0  0  0  0  0  0
    2.3016   -1.6663    4.1601 C   0  0  0  0  0  0  0  0  0  0  0  0
    2.6901   -1.0406    2.8495 C   0  0  1  0  0  0  0  0  0  0  0  0
    4.0738   -0.6987    2.8611 O   0  0  0  0  0  0  0  0  0  0  0  0
    2.4498   -1.9729    1.6416 C   0  0  0  0  0  0  0  0  0  0  0  0
    1.8788    0.2662    2.8065 C   0  0  0  0  0  0  0  0  0  0  0  0
    1.4554    0.5754    4.2639 C   0  0  1  0  0  0  0  0  0  0  0  0
   -0.0515    0.8510    4.4018 C   0  0  1  0  0  0  0  0  0  0  0  0
   -0.6015    0.9290    5.8256 C   0  0  1  0  0  0  0  0  0  0  0  0
    0.2153    0.2147    6.9002 C   0  0  0  0  0  0  0  0  0  0  0  0
    0.9593   -0.9902    6.2861 C   0  0  0  0  0  0  0  0  0  0  0  0
    1.9768   -0.5769    5.1780 C   0  0  1  0  0  0  0  0  0  0  0  0
    3.2925   -0.1408    5.8737 C   0  0  0  0  0  0  0  0  0  0  0  0
   -0.7085    2.4689    5.6962 C   0  0  1  0  0  0  0  0  0  0  0  0
   -2.0221    3.0765    6.1918 C   0  0  0  0  0  0  0  0  0  0  0  0
    0.4580    3.3008    6.2814 C   0  0  0  0  0  0  0  0  0  0  0  0
    0.8217    4.5145    5.4194 C   0  0  0  0  0  0  0  0  0  0  0  0
    1.1762    4.0605    4.0119 C   0  0  0  0  0  0  0  0  0  0  0  0
    2.2749    4.3066    3.5105 O   0  0  0  0  0  0  0  0  0  0  0  0
    0.1003    3.2739    3.2851 C   0  0  0  0  0  0  0  0  0  0  0  0
   -0.6275    2.2574    4.1609 C   0  0  1  0  0  0  0  0  0  0  0  0
    3.5749   -6.2520   -0.1023 H   0  0  0  0  0  0  0  0  0  0  0  0
    3.4202   -6.2390    1.6611 H   0  0  0  0  0  0  0  0  0  0  0  0
    4.7471   -5.3773    0.8627 H   0  0  0  0  0  0  0  0  0  0  0  0
    1.7549   -4.6875    0.6131 H   0  0  0  0  0  0  0  0  0  0  0  0
    4.2172   -3.4676   -0.6593 H   0  0  0  0  0  0  0  0  0  0  0  0
    1.2967   -3.7862   -1.6075 H   0  0  0  0  0  0  0  0  0  0  0  0
    2.4203   -3.3833   -3.7906 H   0  0  0  0  0  0  0  0  0  0  0  0
    2.0226   -1.8900   -3.0233 H   0  0  0  0  0  0  0  0  0  0  0  0
    4.6898   -1.6175   -1.0149 H   0  0  0  0  0  0  0  0  0  0  0  0
    3.9037   -0.3834   -1.9714 H   0  0  0  0  0  0  0  0  0  0  0  0
    5.6005   -0.8191   -2.2690 H   0  0  0  0  0  0  0  0  0  0  0  0
    5.2016   -4.0658   -2.4176 H   0  0  0  0  0  0  0  0  0  0  0  0
    6.1435   -3.0838   -3.5123 H   0  0  0  0  0  0  0  0  0  0  0  0
    4.8211   -4.0830   -4.1121 H   0  0  0  0  0  0  0  0  0  0  0  0
    3.5749   -0.8181   -4.2585 H   0  0  0  0  0  0  0  0  0  0  0  0
    4.0537   -3.2986    2.0904 H   0  0  0  0  0  0  0  0  0  0  0  0
    1.3806   -4.4563    2.9207 H   0  0  0  0  0  0  0  0  0  0  0  0
    2.9685   -4.7995    3.5668 H   0  0  0  0  0  0  0  0  0  0  0  0
    1.7124   -3.4001    5.2143 H   0  0  0  0  0  0  0  0  0  0  0  0
    4.2603   -0.2238    2.0799 H   0  0  0  0  0  0  0  0  0  0  0  0
    2.8854   -1.5217    0.7530 H   0  0  0  0  0  0  0  0  0  0  0  0
    1.3789   -2.0417    1.4505 H   0  0  0  0  0  0  0  0  0  0  0  0
    2.4338    1.0972    2.3771 H   0  0  0  0  0  0  0  0  0  0  0  0
    0.9896    0.1408    2.1803 H   0  0  0  0  0  0  0  0  0  0  0  0
    1.9836    1.4765    4.5603 H   0  0  0  0  0  0  0  0  0  0  0  0
   -0.6439    0.1176    3.8550 H   0  0  0  0  0  0  0  0  0  0  0  0
   -1.6163    0.5189    5.7985 H   0  0  0  0  0  0  0  0  0  0  0  0
    0.9380    0.8847    7.3675 H   0  0  0  0  0  0  0  0  0  0  0  0
   -0.4183   -0.1082    7.7255 H   0  0  0  0  0  0  0  0  0  0  0  0
    1.4677   -1.5460    7.0749 H   0  0  0  0  0  0  0  0  0  0  0  0
    0.2035   -1.6651    5.8755 H   0  0  0  0  0  0  0  0  0  0  0  0
    3.1209    0.6258    6.6305 H   0  0  0  0  0  0  0  0  0  0  0  0
    4.0152    0.2731    5.1714 H   0  0  0  0  0  0  0  0  0  0  0  0
    3.7707   -0.9901    6.3624 H   0  0  0  0  0  0  0  0  0  0  0  0
   -2.1241    4.1193    5.8966 H   0  0  0  0  0  0  0  0  0  0  0  0
   -2.1093    3.0226    7.2754 H   0  0  0  0  0  0  0  0  0  0  0  0
   -2.8899    2.5486    5.7825 H   0  0  0  0  0  0  0  0  0  0  0  0
    0.2427    3.6079    7.3019 H   0  0  0  0  0  0  0  0  0  0  0  0
    1.3586    2.6992    6.3429 H   0  0  0  0  0  0  0  0  0  0  0  0
   -0.0104    5.2142    5.3613 H   0  0  0  0  0  0  0  0  0  0  0  0
    1.6681    5.0485    5.8543 H   0  0  0  0  0  0  0  0  0  0  0  0
   -0.6014    4.0094    2.8851 H   0  0  0  0  0  0  0  0  0  0  0  0
    0.5531    2.7869    2.4079 H   0  0  0  0  0  0  0  0  0  0  0  0
   -1.6458    2.1143    3.7846 H   0  0  0  0  0  0  0  0  0  0  0  0
  1  2  1  0
  1 33  1  0
  1 34  1  0
  1 35  1  0
  2  3  1  0
  2 10  1  0
  2 36  1  6
  3  4  2  3
  3 37  1  0
  4  5  1  0
  4 38  1  0
  5  6  1  0
  5 39  1  0
  5 40  1  0
  6  7  1  0
  6  8  1  0
  6  9  1  0
  7 41  1  0
  7 42  1  0
  7 43  1  0
  8 44  1  0
  8 45  1  0
  8 46  1  0
  9 47  1  0
 10 16  1  0
 10 11  1  0
 10 48  1  1
 11 12  1  0
 11 49  1  0
 11 50  1  0
 12 13  2  0
 12 51  1  0
 13 23  1  0
 13 14  1  0
 14 15  1  1
 14 16  1  0
 14 17  1  0
 15 52  1  0
 16 53  1  0
 16 54  1  0
 17 18  1  0
 17 55  1  0
 17 56  1  0
 18 23  1  0
 18 19  1  0
 18 57  1  1
 19 32  1  0
 19 20  1  0
 19 58  1  6
 20 21  1  0
 20 25  1  0
 20 59  1  6
 21 22  1  0
 21 60  1  0
 21 61  1  0
 22 23  1  0
 22 62  1  0
 22 63  1  0
 23 24  1  1
 24 64  1  0
 24 65  1  0
 24 66  1  0
 25 32  1  0
 25 26  1  6
 25 27  1  0
 26 67  1  0
 26 68  1  0
 26 69  1  0
 27 28  1  0
 27 70  1  0
 27 71  1  0
 28 29  1  0
 28 72  1  0
 28 73  1  0
 29 30  2  0
 29 31  1  0
 31 32  1  0
 31 74  1  0
 31 75  1  0
 32 76  1  6
M  END
>  <i_m_ct_stereo_status>  (380) 
1

>  <s_m_source_file>  (380) 
/var/tmp/pbs.5076255.sched01/tmpp4327t_d/123x5hmlc3y.sdf

>  <i_m_source_file_index>  (380) 
34

>  <i_lp_mmshare_version>  (380) 
48012

>  <i_f3d_flags>  (380) 
0

>  <s_epik_input>  (380) 
W0NIM11DKFtDSDNdKShbT0hdKVtDSDJdXFtDSF09W0NIXVxbQ0BASF0oW0NIM10pW0NAQEhdKFtDSDJdMSlbQ0gyXVtDSF09QyhbQ0BAXTEyW09IXSlbQ0BAXTMoW0NIM10pW0NAQEhdKFtDSDJdMilbQ0BIXTRbQ0BASF0oW0NIMl1bQ0gyXTMpW0NAXTUoW0NIM10pW0NASF00W0NIMl1DKD1PKVtDSDJdW0NIMl01

>  <s_epik_cmdline>  (380) 
J2VwaWtfcHl0aG9uJywgJy1waHQnLCAnMi4wJywgJy1waCcsICc3LjAnLCAnLXRuJywgJzgnLCAnLW1hJywgJzIwMCcsICctaW1hZScsICc8aW5maWxlLm1hZT4nLCAnLW9tYWUnLCAnPG91dGZpbGUubWFlPic=

>  <r_lp_tautomer_probability>  (380) 
1

>  <r_epik_Ionization_Penalty>  (380) 
1.34489e-06

>  <r_epik_Ionization_Penalty_Charging>  (380) 
0

>  <r_epik_Ionization_Penalty_Neutral>  (380) 
1.34489e-06

>  <r_epik_State_Penalty>  (380) 
-0

>  <r_epik_Charging_Adjusted_Penalty>  (380) 
0

>  <i_epik_Tot_Q>  (380) 
0

>  <i_epik_Tot_abs_Q>  (380) 
0

>  <s_lp_Force_Field>  (380) 
OPLS3e

>  <r_lp_Energy>  (380) 
34.9469

>  <b_lp_Chiralities_Consistent>  (380) 
1

>  <s_lp_Variant>  (380) 
114:0-1

>  <s_i_glide_gridfile>  (380) 
pfpi4k_grid

>  <i_i_glide_lignum>  (380) 
34

>  <i_i_glide_rotatable_bonds>  (380) 
6

>  <r_i_docking_score>  (380) 
-2.79851

>  <r_i_glide_ligand_efficiency>  (380) 
-0.0874535

>  <r_i_glide_ligand_efficiency_sa>  (380) 
-0.277648

>  <r_i_glide_ligand_efficiency_ln>  (380) 
-0.626663

>  <r_i_glide_gscore>  (380) 
-2.79851

>  <r_i_glide_lipo>  (380) 
-0.627802

>  <r_i_glide_hbond>  (380) 
-0.31456

>  <r_i_glide_metal>  (380) 
-0

>  <r_i_glide_rewards>  (380) 
-0.404605

>  <r_i_glide_evdw>  (380) 
-27.354

>  <r_i_glide_ecoul>  (380) 
-2.96373

>  <r_i_glide_erotb>  (380) 
0.411341

>  <r_i_glide_esite>  (380) 
-0.0506267

>  <r_i_glide_emodel>  (380) 
-34.0615

>  <r_i_glide_energy>  (380) 
-30.3177

>  <r_i_glide_einternal>  (380) 
1.40273

>  <r_i_glide_intrahb_reward>  (380) 
-0

>  <i_i_glide_confnum>  (380) 
4

>  <i_i_glide_posenum>  (380) 
22

>  <r_i_glide_eff_state_penalty>  (380) 
0

>  <ligand_id>  (380) 
114

>  <original_smiles>  (380) 
CC(C=CCC(C)(C)O)C1CC=C2C(O)(C1)CC1C3C(CCC21C)C1(C)CCC(=O)CC31

>  <smiles>  (380) 
[H]OC12C(=C([H])C([H])([H])C([H])(C([H])(C([H])=C([H])C([H])([H])C(O[H])(C([H])([H])[H])C([H])([H])[H])C([H])([H])[H])C1([H])[H])C1(C([H])([H])[H])C([H])([H])C([H])([H])C3([H])C([H])(C1([H])C2([H])[H])C1([H])C([H])([H])C(=O)C([H])([H])C([H])([H])C13C([H])([H])[H]

$$$$
114:0:1
     RDKit          3D

 76 80  0  0  1  0  0  0  0  0999 V2000
    6.2323   -1.6669    0.8689 C   0  0  0  0  0  0  0  0  0  0  0  0
    4.7655   -1.7137    1.3577 C   0  0  2  0  0  0  0  0  0  0  0  0
    3.8159   -1.9713    0.1778 C   0  0  0  0  0  0  0  0  0  0  0  0
    4.0260   -2.8067   -0.8405 C   0  0  0  0  0  0  0  0  0  0  0  0
    3.0482   -3.0281   -1.9742 C   0  0  0  0  0  0  0  0  0  0  0  0
    3.6790   -2.9513   -3.3758 C   0  0  0  0  0  0  0  0  0  0  0  0
    3.9685   -1.4992   -3.7935 C   0  0  0  0  0  0  0  0  0  0  0  0
    4.9239   -3.8372   -3.5496 C   0  0  0  0  0  0  0  0  0  0  0  0
    2.7045   -3.4415   -4.2566 O   0  0  0  0  0  0  0  0  0  0  0  0
    4.3886   -0.4547    2.2006 C   0  0  2  0  0  0  0  0  0  0  0  0
    5.3033   -0.2713    3.4553 C   0  0  0  0  0  0  0  0  0  0  0  0
    4.7563    0.6925    4.5047 C   0  0  0  0  0  0  0  0  0  0  0  0
    3.5539    1.2688    4.4248 C   0  0  0  0  0  0  0  0  0  0  0  0
    2.5394    0.8706    3.3712 C   0  0  1  0  0  0  0  0  0  0  0  0
    2.4558    1.8615    2.3876 O   0  0  0  0  0  0  0  0  0  0  0  0
    2.9089   -0.4393    2.6634 C   0  0  0  0  0  0  0  0  0  0  0  0
    1.2006    0.8264    4.1147 C   0  0  0  0  0  0  0  0  0  0  0  0
    1.3769    1.6388    5.4156 C   0  0  1  0  0  0  0  0  0  0  0  0
    0.9170    0.8714    6.6559 C   0  0  1  0  0  0  0  0  0  0  0  0
    1.2794    1.4616    8.0091 C   0  0  1  0  0  0  0  0  0  0  0  0
    2.4744    2.4203    8.0247 C   0  0  0  0  0  0  0  0  0  0  0  0
    3.4762    2.0267    6.9119 C   0  0  0  0  0  0  0  0  0  0  0  0
    2.8595    2.1264    5.4789 C   0  0  1  0  0  0  0  0  0  0  0  0
    2.9419    3.6019    5.0230 C   0  0  0  0  0  0  0  0  0  0  0  0
   -0.1935    1.9025    8.1930 C   0  0  1  0  0  0  0  0  0  0  0  0
   -0.7851    1.6198    9.5813 C   0  0  0  0  0  0  0  0  0  0  0  0
   -0.5379    3.3544    7.8382 C   0  0  0  0  0  0  0  0  0  0  0  0
   -1.9067    3.4906    7.1602 C   0  0  0  0  0  0  0  0  0  0  0  0
   -1.9564    2.6237    5.9033 C   0  0  0  0  0  0  0  0  0  0  0  0
   -2.2034    3.1004    4.8060 O   0  0  0  0  0  0  0  0  0  0  0  0
   -1.6945    1.1298    6.1079 C   0  0  0  0  0  0  0  0  0  0  0  0
   -0.5482    0.8581    7.0979 C   0  0  1  0  0  0  0  0  0  0  0  0
    6.5316   -2.5682    0.3346 H   0  0  0  0  0  0  0  0  0  0  0  0
    6.9460   -1.5704    1.6844 H   0  0  0  0  0  0  0  0  0  0  0  0
    6.3878   -0.8259    0.1951 H   0  0  0  0  0  0  0  0  0  0  0  0
    4.6614   -2.5805    2.0091 H   0  0  0  0  0  0  0  0  0  0  0  0
    2.8750   -1.4425    0.1467 H   0  0  0  0  0  0  0  0  0  0  0  0
    4.9279   -3.4010   -0.8908 H   0  0  0  0  0  0  0  0  0  0  0  0
    2.6063   -4.0032   -1.7901 H   0  0  0  0  0  0  0  0  0  0  0  0
    2.2183   -2.3187   -1.9121 H   0  0  0  0  0  0  0  0  0  0  0  0
    4.7373   -1.0529   -3.1633 H   0  0  0  0  0  0  0  0  0  0  0  0
    3.0738   -0.8794   -3.7127 H   0  0  0  0  0  0  0  0  0  0  0  0
    4.3082   -1.4458   -4.8253 H   0  0  0  0  0  0  0  0  0  0  0  0
    5.7677   -3.4809   -2.9603 H   0  0  0  0  0  0  0  0  0  0  0  0
    5.2488   -3.8594   -4.5858 H   0  0  0  0  0  0  0  0  0  0  0  0
    4.7250   -4.8637   -3.2529 H   0  0  0  0  0  0  0  0  0  0  0  0
    2.3192   -4.2239   -3.8679 H   0  0  0  0  0  0  0  0  0  0  0  0
    4.5325    0.4132    1.5581 H   0  0  0  0  0  0  0  0  0  0  0  0
    5.4458   -1.2310    3.9468 H   0  0  0  0  0  0  0  0  0  0  0  0
    6.2897    0.0803    3.1532 H   0  0  0  0  0  0  0  0  0  0  0  0
    5.4250    0.9011    5.3399 H   0  0  0  0  0  0  0  0  0  0  0  0
    2.0119    2.6378    2.7315 H   0  0  0  0  0  0  0  0  0  0  0  0
    2.1812   -0.5247    1.8561 H   0  0  0  0  0  0  0  0  0  0  0  0
    2.7346   -1.2804    3.3305 H   0  0  0  0  0  0  0  0  0  0  0  0
    0.3824    1.2183    3.5041 H   0  0  0  0  0  0  0  0  0  0  0  0
    0.9353   -0.2012    4.3429 H   0  0  0  0  0  0  0  0  0  0  0  0
    0.7590    2.5310    5.3103 H   0  0  0  0  0  0  0  0  0  0  0  0
    1.2949   -0.1583    6.6430 H   0  0  0  0  0  0  0  0  0  0  0  0
    1.4632    0.6182    8.6695 H   0  0  0  0  0  0  0  0  0  0  0  0
    2.1706    3.4526    7.8863 H   0  0  0  0  0  0  0  0  0  0  0  0
    2.9650    2.3972    8.9960 H   0  0  0  0  0  0  0  0  0  0  0  0
    4.3636    2.6593    6.9815 H   0  0  0  0  0  0  0  0  0  0  0  0
    3.8111    1.0122    7.1107 H   0  0  0  0  0  0  0  0  0  0  0  0
    2.4899    4.2805    5.7462 H   0  0  0  0  0  0  0  0  0  0  0  0
    2.4270    3.7753    4.0785 H   0  0  0  0  0  0  0  0  0  0  0  0
    3.9785    3.9099    4.8797 H   0  0  0  0  0  0  0  0  0  0  0  0
   -1.8636    1.7834    9.5998 H   0  0  0  0  0  0  0  0  0  0  0  0
   -0.3428    2.2598   10.3467 H   0  0  0  0  0  0  0  0  0  0  0  0
   -0.6033    0.5913    9.8907 H   0  0  0  0  0  0  0  0  0  0  0  0
   -0.4881    4.0056    8.7151 H   0  0  0  0  0  0  0  0  0  0  0  0
    0.1903    3.7620    7.1324 H   0  0  0  0  0  0  0  0  0  0  0  0
   -2.7102    3.1854    7.8313 H   0  0  0  0  0  0  0  0  0  0  0  0
   -2.0710    4.5376    6.8900 H   0  0  0  0  0  0  0  0  0  0  0  0
   -2.6188    0.6887    6.4645 H   0  0  0  0  0  0  0  0  0  0  0  0
   -1.4892    0.6703    5.1399 H   0  0  0  0  0  0  0  0  0  0  0  0
   -0.6893   -0.0986    7.5947 H   0  0  0  0  0  0  0  0  0  0  0  0
  1  2  1  0
  1 33  1  0
  1 34  1  0
  1 35  1  0
  2  3  1  0
  2 10  1  0
  2 36  1  1
  3  4  2  3
  3 37  1  0
  4  5  1  0
  4 38  1  0
  5  6  1  0
  5 39  1  0
  5 40  1  0
  6  7  1  0
  6  8  1  0
  6  9  1  0
  7 41  1  0
  7 42  1  0
  7 43  1  0
  8 44  1  0
  8 45  1  0
  8 46  1  0
  9 47  1  0
 10 16  1  0
 10 11  1  0
 10 48  1  6
 11 12  1  0
 11 49  1  0
 11 50  1  0
 12 13  2  0
 12 51  1  0
 13 23  1  0
 13 14  1  0
 14 15  1  6
 14 16  1  0
 14 17  1  0
 15 52  1  0
 16 53  1  0
 16 54  1  0
 17 18  1  0
 17 55  1  0
 17 56  1  0
 18 23  1  0
 18 19  1  0
 18 57  1  6
 19 32  1  0
 19 20  1  0
 19 58  1  6
 20 21  1  0
 20 25  1  0
 20 59  1  1
 21 22  1  0
 21 60  1  0
 21 61  1  0
 22 23  1  0
 22 62  1  0
 22 63  1  0
 23 24  1  6
 24 64  1  0
 24 65  1  0
 24 66  1  0
 25 32  1  0
 25 26  1  1
 25 27  1  0
 26 67  1  0
 26 68  1  0
 26 69  1  0
 27 28  1  0
 27 70  1  0
 27 71  1  0
 28 29  1  0
 28 72  1  0
 28 73  1  0
 29 30  2  0
 29 31  1  0
 31 32  1  0
 31 74  1  0
 31 75  1  0
 32 76  1  1
M  END
>  <i_m_ct_stereo_status>  (381) 
1

>  <s_m_source_file>  (381) 
/var/tmp/pbs.5076255.sched01/tmpp4327t_d/123x5hmlc3y.sdf

>  <i_m_source_file_index>  (381) 
34

>  <i_lp_mmshare_version>  (381) 
48012

>  <i_f3d_flags>  (381) 
0

>  <s_epik_input>  (381) 
W0NIM11DKFtDSDNdKShbT0hdKVtDSDJdXFtDSF09W0NIXVxbQ0BASF0oW0NIM10pW0NAQEhdKFtDSDJdMSlbQ0gyXVtDSF09QyhbQ0BAXTEyW09IXSlbQ0BAXTMoW0NIM10pW0NAQEhdKFtDSDJdMilbQ0BIXTRbQ0BASF0oW0NIMl1bQ0gyXTMpW0NAXTUoW0NIM10pW0NASF00W0NIMl1DKD1PKVtDSDJdW0NIMl01

>  <s_epik_cmdline>  (381) 
J2VwaWtfcHl0aG9uJywgJy1waHQnLCAnMi4wJywgJy1waCcsICc3LjAnLCAnLXRuJywgJzgnLCAnLW1hJywgJzIwMCcsICctaW1hZScsICc8aW5maWxlLm1hZT4nLCAnLW9tYWUnLCAnPG91dGZpbGUubWFlPic=

>  <r_lp_tautomer_probability>  (381) 
1

>  <r_epik_Ionization_Penalty>  (381) 
1.34489e-06

>  <r_epik_Ionization_Penalty_Charging>  (381) 
0

>  <r_epik_Ionization_Penalty_Neutral>  (381) 
1.34489e-06

>  <r_epik_State_Penalty>  (381) 
-0

>  <r_epik_Charging_Adjusted_Penalty>  (381) 
0

>  <i_epik_Tot_Q>  (381) 
0

>  <i_epik_Tot_abs_Q>  (381) 
0

>  <s_lp_Force_Field>  (381) 
OPLS3e

>  <r_lp_Energy>  (381) 
34.9469

>  <b_lp_Chiralities_Consistent>  (381) 
1

>  <s_lp_Variant>  (381) 
114:0-1

>  <s_i_glide_gridfile>  (381) 
pfpi4k_grid

>  <i_i_glide_lignum>  (381) 
34

>  <i_i_glide_rotatable_bonds>  (381) 
6

>  <r_i_docking_score>  (381) 
-2.69592

>  <r_i_glide_ligand_efficiency>  (381) 
-0.0842476

>  <r_i_glide_ligand_efficiency_sa>  (381) 
-0.267469

>  <r_i_glide_ligand_efficiency_ln>  (381) 
-0.603691

>  <r_i_glide_gscore>  (381) 
-2.69592

>  <r_i_glide_lipo>  (381) 
-0.860662

>  <r_i_glide_hbond>  (381) 
-0.0791982

>  <r_i_glide_metal>  (381) 
-0

>  <r_i_glide_rewards>  (381) 
-0.493277

>  <r_i_glide_evdw>  (381) 
-26.3564

>  <r_i_glide_ecoul>  (381) 
-2.37537

>  <r_i_glide_erotb>  (381) 
0.411341

>  <r_i_glide_esite>  (381) 
0

>  <r_i_glide_emodel>  (381) 
-31.3657

>  <r_i_glide_energy>  (381) 
-28.7318

>  <r_i_glide_einternal>  (381) 
3.5449

>  <r_i_glide_intrahb_reward>  (381) 
-0

>  <i_i_glide_confnum>  (381) 
4

>  <i_i_glide_posenum>  (381) 
3

>  <r_i_glide_eff_state_penalty>  (381) 
0

>  <ligand_id>  (381) 
114

>  <original_smiles>  (381) 
CC(C=CCC(C)(C)O)C1CC=C2C(O)(C1)CC1C3C(CCC21C)C1(C)CCC(=O)CC31

>  <smiles>  (381) 
[H]OC12C(=C([H])C([H])([H])C([H])(C([H])(C([H])=C([H])C([H])([H])C(O[H])(C([H])([H])[H])C([H])([H])[H])C([H])([H])[H])C1([H])[H])C1(C([H])([H])[H])C([H])([H])C([H])([H])C3([H])C([H])(C1([H])C2([H])[H])C1([H])C([H])([H])C(=O)C([H])([H])C([H])([H])C13C([H])([H])[H]

$$$$
114:0:2
     RDKit          3D

 76 80  0  0  1  0  0  0  0  0999 V2000
    3.7870   -5.4795    1.2115 C   0  0  0  0  0  0  0  0  0  0  0  0
    2.9903   -4.1779    1.0500 C   0  0  2  0  0  0  0  0  0  0  0  0
    3.2587   -3.6771   -0.3661 C   0  0  0  0  0  0  0  0  0  0  0  0
    2.3306   -3.5693   -1.3373 C   0  0  0  0  0  0  0  0  0  0  0  0
    2.5625   -3.0098   -2.7318 C   0  0  0  0  0  0  0  0  0  0  0  0
    3.9869   -2.4623   -3.0479 C   0  0  0  0  0  0  0  0  0  0  0  0
    4.4618   -1.3432   -2.0724 C   0  0  0  0  0  0  0  0  0  0  0  0
    5.0090   -3.6075   -3.2019 C   0  0  0  0  0  0  0  0  0  0  0  0
    3.8878   -1.8720   -4.3273 O   0  0  0  0  0  0  0  0  0  0  0  0
    3.3765   -3.0979    2.1134 C   0  0  2  0  0  0  0  0  0  0  0  0
    2.9595   -3.5406    3.5359 C   0  0  0  0  0  0  0  0  0  0  0  0
    2.9238   -2.4355    4.5790 C   0  0  0  0  0  0  0  0  0  0  0  0
    3.1087   -1.1237    4.2786 C   0  0  0  0  0  0  0  0  0  0  0  0
    3.2686   -0.6383    2.8526 C   0  0  1  0  0  0  0  0  0  0  0  0
    4.6257   -0.3370    2.5857 O   0  0  0  0  0  0  0  0  0  0  0  0
    2.8066   -1.6862    1.8120 C   0  0  0  0  0  0  0  0  0  0  0  0
    2.4663    0.6727    2.8254 C   0  0  0  0  0  0  0  0  0  0  0  0
    2.3040    1.1333    4.2891 C   0  0  1  0  0  0  0  0  0  0  0  0
    0.8359    1.4585    4.6552 C   0  0  1  0  0  0  0  0  0  0  0  0
    0.5352    1.6888    6.1333 C   0  0  1  0  0  0  0  0  0  0  0  0
    1.5235    1.0606    7.1276 C   0  0  0  0  0  0  0  0  0  0  0  0
    2.1446   -0.2127    6.5176 C   0  0  0  0  0  0  0  0  0  0  0  0
    2.9674    0.0695    5.2170 C   0  0  1  0  0  0  0  0  0  0  0  0
    4.3758    0.5442    5.6349 C   0  0  0  0  0  0  0  0  0  0  0  0
    0.4222    3.2086    5.8711 C   0  0  1  0  0  0  0  0  0  0  0  0
   -0.7928    3.8877    6.5195 C   0  0  0  0  0  0  0  0  0  0  0  0
    1.6669    4.0685    6.1657 C   0  0  0  0  0  0  0  0  0  0  0  0
    1.8816    5.1813    5.1383 C   0  0  0  0  0  0  0  0  0  0  0  0
    1.9907    4.5868    3.7433 C   0  0  0  0  0  0  0  0  0  0  0  0
    2.9817    4.7614    3.0409 O   0  0  0  0  0  0  0  0  0  0  0  0
    0.8012    3.7528    3.2828 C   0  0  0  0  0  0  0  0  0  0  0  0
    0.2320    2.8392    4.3814 C   0  0  1  0  0  0  0  0  0  0  0  0
    3.5257   -6.1749    0.4090 H   0  0  0  0  0  0  0  0  0  0  0  0
    3.5890   -5.9613    2.1642 H   0  0  0  0  0  0  0  0  0  0  0  0
    4.8660   -5.3006    1.1280 H   0  0  0  0  0  0  0  0  0  0  0  0
    1.9177   -4.3926    1.1438 H   0  0  0  0  0  0  0  0  0  0  0  0
    4.2913   -3.3712   -0.5373 H   0  0  0  0  0  0  0  0  0  0  0  0
    1.3047   -3.8712   -1.1591 H   0  0  0  0  0  0  0  0  0  0  0  0
    2.2849   -3.7746   -3.4624 H   0  0  0  0  0  0  0  0  0  0  0  0
    1.8293   -2.2222   -2.8802 H   0  0  0  0  0  0  0  0  0  0  0  0
    4.6060   -1.7084   -1.0571 H   0  0  0  0  0  0  0  0  0  0  0  0
    3.7199   -0.5238   -2.0609 H   0  0  0  0  0  0  0  0  0  0  0  0
    5.4090   -0.8984   -2.4392 H   0  0  0  0  0  0  0  0  0  0  0  0
    5.1730   -4.1609   -2.2834 H   0  0  0  0  0  0  0  0  0  0  0  0
    5.9838   -3.2413   -3.5225 H   0  0  0  0  0  0  0  0  0  0  0  0
    4.6735   -4.3521   -3.9295 H   0  0  0  0  0  0  0  0  0  0  0  0
    3.2202   -1.2026   -4.2987 H   0  0  0  0  0  0  0  0  0  0  0  0
    4.4644   -2.9891    2.1139 H   0  0  0  0  0  0  0  0  0  0  0  0
    1.9702   -3.9967    3.4978 H   0  0  0  0  0  0  0  0  0  0  0  0
    3.6421   -4.3075    3.8997 H   0  0  0  0  0  0  0  0  0  0  0  0
    2.6899   -2.7321    5.5867 H   0  0  0  0  0  0  0  0  0  0  0  0
    4.9008    0.2863    3.2315 H   0  0  0  0  0  0  0  0  0  0  0  0
    3.0940   -1.3297    0.8234 H   0  0  0  0  0  0  0  0  0  0  0  0
    1.7167   -1.7511    1.8136 H   0  0  0  0  0  0  0  0  0  0  0  0
    2.9458    1.4462    2.2219 H   0  0  0  0  0  0  0  0  0  0  0  0
    1.4831    0.5086    2.3753 H   0  0  0  0  0  0  0  0  0  0  0  0
    2.8730    2.0502    4.4043 H   0  0  0  0  0  0  0  0  0  0  0  0
    0.1553    0.6951    4.3026 H   0  0  0  0  0  0  0  0  0  0  0  0
   -0.4643    1.3023    6.3118 H   0  0  0  0  0  0  0  0  0  0  0  0
    2.3110    1.7585    7.3972 H   0  0  0  0  0  0  0  0  0  0  0  0
    1.0286    0.8332    8.0726 H   0  0  0  0  0  0  0  0  0  0  0  0
    2.7764   -0.6975    7.2618 H   0  0  0  0  0  0  0  0  0  0  0  0
    1.3242   -0.9091    6.3116 H   0  0  0  0  0  0  0  0  0  0  0  0
    4.3349    1.3828    6.3313 H   0  0  0  0  0  0  0  0  0  0  0  0
    4.9734    0.8787    4.7895 H   0  0  0  0  0  0  0  0  0  0  0  0
    4.9245   -0.2626    6.1190 H   0  0  0  0  0  0  0  0  0  0  0  0
   -0.9382    4.9000    6.1446 H   0  0  0  0  0  0  0  0  0  0  0  0
   -0.6917    3.9430    7.6027 H   0  0  0  0  0  0  0  0  0  0  0  0
   -1.7159    3.3436    6.3196 H   0  0  0  0  0  0  0  0  0  0  0  0
    1.6262    4.4806    7.1726 H   0  0  0  0  0  0  0  0  0  0  0  0
    2.5569    3.4591    6.1359 H   0  0  0  0  0  0  0  0  0  0  0  0
    1.0571    5.8927    5.1494 H   0  0  0  0  0  0  0  0  0  0  0  0
    2.7934    5.7381    5.3662 H   0  0  0  0  0  0  0  0  0  0  0  0
    0.0437    4.4564    2.9236 H   0  0  0  0  0  0  0  0  0  0  0  0
    1.1017    3.1660    2.4085 H   0  0  0  0  0  0  0  0  0  0  0  0
   -0.8284    2.6790    4.2023 H   0  0  0  0  0  0  0  0  0  0  0  0
  1  2  1  0
  1 33  1  0
  1 34  1  0
  1 35  1  0
  2  3  1  0
  2 10  1  0
  2 36  1  6
  3  4  2  3
  3 37  1  0
  4  5  1  0
  4 38  1  0
  5  6  1  0
  5 39  1  0
  5 40  1  0
  6  7  1  0
  6  8  1  0
  6  9  1  0
  7 41  1  0
  7 42  1  0
  7 43  1  0
  8 44  1  0
  8 45  1  0
  8 46  1  0
  9 47  1  0
 10 16  1  0
 10 11  1  0
 10 48  1  1
 11 12  1  0
 11 49  1  0
 11 50  1  0
 12 13  2  0
 12 51  1  0
 13 23  1  0
 13 14  1  0
 14 15  1  6
 14 16  1  0
 14 17  1  0
 15 52  1  0
 16 53  1  0
 16 54  1  0
 17 18  1  0
 17 55  1  0
 17 56  1  0
 18 23  1  0
 18 19  1  0
 18 57  1  6
 19 32  1  0
 19 20  1  0
 19 58  1  6
 20 21  1  0
 20 25  1  0
 20 59  1  1
 21 22  1  0
 21 60  1  0
 21 61  1  0
 22 23  1  0
 22 62  1  0
 22 63  1  0
 23 24  1  1
 24 64  1  0
 24 65  1  0
 24 66  1  0
 25 32  1  0
 25 26  1  1
 25 27  1  0
 26 67  1  0
 26 68  1  0
 26 69  1  0
 27 28  1  0
 27 70  1  0
 27 71  1  0
 28 29  1  0
 28 72  1  0
 28 73  1  0
 29 30  2  0
 29 31  1  0
 31 32  1  0
 31 74  1  0
 31 75  1  0
 32 76  1  6
M  END
>  <i_m_ct_stereo_status>  (382) 
1

>  <s_m_source_file>  (382) 
/var/tmp/pbs.5076255.sched01/tmpp4327t_d/123x5hmlc3y.sdf

>  <i_m_source_file_index>  (382) 
34

>  <i_lp_mmshare_version>  (382) 
48012

>  <i_f3d_flags>  (382) 
0

>  <s_epik_input>  (382) 
W0NIM11DKFtDSDNdKShbT0hdKVtDSDJdXFtDSF09W0NIXVxbQ0BASF0oW0NIM10pW0NAQEhdKFtDSDJdMSlbQ0gyXVtDSF09QyhbQ0BAXTEyW09IXSlbQ0BAXTMoW0NIM10pW0NAQEhdKFtDSDJdMilbQ0BIXTRbQ0BASF0oW0NIMl1bQ0gyXTMpW0NAXTUoW0NIM10pW0NASF00W0NIMl1DKD1PKVtDSDJdW0NIMl01

>  <s_epik_cmdline>  (382) 
J2VwaWtfcHl0aG9uJywgJy1waHQnLCAnMi4wJywgJy1waCcsICc3LjAnLCAnLXRuJywgJzgnLCAnLW1hJywgJzIwMCcsICctaW1hZScsICc8aW5maWxlLm1hZT4nLCAnLW9tYWUnLCAnPG91dGZpbGUubWFlPic=

>  <r_lp_tautomer_probability>  (382) 
1

>  <r_epik_Ionization_Penalty>  (382) 
1.34489e-06

>  <r_epik_Ionization_Penalty_Charging>  (382) 
0

>  <r_epik_Ionization_Penalty_Neutral>  (382) 
1.34489e-06

>  <r_epik_State_Penalty>  (382) 
-0

>  <r_epik_Charging_Adjusted_Penalty>  (382) 
0

>  <i_epik_Tot_Q>  (382) 
0

>  <i_epik_Tot_abs_Q>  (382) 
0

>  <s_lp_Force_Field>  (382) 
OPLS3e

>  <r_lp_Energy>  (382) 
34.9469

>  <b_lp_Chiralities_Consistent>  (382) 
1

>  <s_lp_Variant>  (382) 
114:0-1

>  <s_i_glide_gridfile>  (382) 
pfpi4k_grid

>  <i_i_glide_lignum>  (382) 
34

>  <i_i_glide_rotatable_bonds>  (382) 
6

>  <r_i_docking_score>  (382) 
-2.52262

>  <r_i_glide_ligand_efficiency>  (382) 
-0.0788319

>  <r_i_glide_ligand_efficiency_sa>  (382) 
-0.250276

>  <r_i_glide_ligand_efficiency_ln>  (382) 
-0.564884

>  <r_i_glide_gscore>  (382) 
-2.52262

>  <r_i_glide_lipo>  (382) 
-0.352129

>  <r_i_glide_hbond>  (382) 
-0.32

>  <r_i_glide_metal>  (382) 
-0

>  <r_i_glide_rewards>  (382) 
-0.404605

>  <r_i_glide_evdw>  (382) 
-26.3509

>  <r_i_glide_ecoul>  (382) 
-3.31915

>  <r_i_glide_erotb>  (382) 
0.411341

>  <r_i_glide_esite>  (382) 
-0.041813

>  <r_i_glide_emodel>  (382) 
-32.5458

>  <r_i_glide_energy>  (382) 
-29.67

>  <r_i_glide_einternal>  (382) 
1.13779

>  <r_i_glide_intrahb_reward>  (382) 
-0

>  <i_i_glide_confnum>  (382) 
4

>  <i_i_glide_posenum>  (382) 
13

>  <r_i_glide_eff_state_penalty>  (382) 
0

>  <ligand_id>  (382) 
114

>  <original_smiles>  (382) 
CC(C=CCC(C)(C)O)C1CC=C2C(O)(C1)CC1C3C(CCC21C)C1(C)CCC(=O)CC31

>  <smiles>  (382) 
[H]OC12C(=C([H])C([H])([H])C([H])(C([H])(C([H])=C([H])C([H])([H])C(O[H])(C([H])([H])[H])C([H])([H])[H])C([H])([H])[H])C1([H])[H])C1(C([H])([H])[H])C([H])([H])C([H])([H])C3([H])C([H])(C1([H])C2([H])[H])C1([H])C([H])([H])C(=O)C([H])([H])C([H])([H])C13C([H])([H])[H]

$$$$
114:1:0
     RDKit          3D

 76 80  0  0  1  0  0  0  0  0999 V2000
    5.6669   -3.6664    1.4388 C   0  0  0  0  0  0  0  0  0  0  0  0
    4.6717   -2.4963    1.3486 C   0  0  2  0  0  0  0  0  0  0  0  0
    5.1395   -1.5415    0.2533 C   0  0  0  0  0  0  0  0  0  0  0  0
    4.6606   -1.4381   -1.0021 C   0  0  0  0  0  0  0  0  0  0  0  0
    3.5628   -2.2746   -1.6573 C   0  0  0  0  0  0  0  0  0  0  0  0
    3.8384   -2.6647   -3.1318 C   0  0  0  0  0  0  0  0  0  0  0  0
    3.8820   -1.4334   -4.0575 C   0  0  0  0  0  0  0  0  0  0  0  0
    5.0982   -3.5319   -3.2792 C   0  0  0  0  0  0  0  0  0  0  0  0
    2.7601   -3.4604   -3.5877 O   0  0  0  0  0  0  0  0  0  0  0  0
    4.4723   -1.7682    2.7112 C   0  0  2  0  0  0  0  0  0  0  0  0
    4.0269   -2.7310    3.8500 C   0  0  0  0  0  0  0  0  0  0  0  0
    3.4318   -2.0346    5.0676 C   0  0  0  0  0  0  0  0  0  0  0  0
    3.1893   -0.7142    5.1317 C   0  0  0  0  0  0  0  0  0  0  0  0
    3.3704    0.1951    3.9315 C   0  0  1  0  0  0  0  0  0  0  0  0
    4.5598    0.9389    4.0840 O   0  0  0  0  0  0  0  0  0  0  0  0
    3.4781   -0.5857    2.6070 C   0  0  0  0  0  0  0  0  0  0  0  0
    2.1683    1.1488    4.0102 C   0  0  0  0  0  0  0  0  0  0  0  0
    1.6288    1.0894    5.4608 C   0  0  1  0  0  0  0  0  0  0  0  0
    0.1182    0.8218    5.5236 C   0  0  1  0  0  0  0  0  0  0  0  0
   -0.4635    0.5028    6.8953 C   0  0  1  0  0  0  0  0  0  0  0  0
    0.5259   -0.0383    7.9341 C   0  0  0  0  0  0  0  0  0  0  0  0
    1.6490   -0.8284    7.2268 C   0  0  0  0  0  0  0  0  0  0  0  0
    2.4910    0.0557    6.2511 C   0  0  1  0  0  0  0  0  0  0  0  0
    3.5629    0.7993    7.0864 C   0  0  0  0  0  0  0  0  0  0  0  0
   -1.0867    1.9206    6.9501 C   0  0  1  0  0  0  0  0  0  0  0  0
   -2.5437    1.9706    7.4231 C   0  0  0  0  0  0  0  0  0  0  0  0
   -0.3052    3.0017    7.7199 C   0  0  0  0  0  0  0  0  0  0  0  0
   -0.3605    4.3756    7.0355 C   0  0  0  0  0  0  0  0  0  0  0  0
    0.1645    4.2691    5.6061 C   0  0  0  0  0  0  0  0  0  0  0  0
    1.1178    4.9394    5.2174 O   0  0  0  0  0  0  0  0  0  0  0  0
   -0.5560    3.2776    4.6954 C   0  0  0  0  0  0  0  0  0  0  0  0
   -0.9047    1.9576    5.4074 C   0  0  1  0  0  0  0  0  0  0  0  0
    5.7916   -4.1460    0.4661 H   0  0  0  0  0  0  0  0  0  0  0  0
    5.3260   -4.4371    2.1307 H   0  0  0  0  0  0  0  0  0  0  0  0
    6.6508   -3.3309    1.7674 H   0  0  0  0  0  0  0  0  0  0  0  0
    3.7056   -2.9037    1.0566 H   0  0  0  0  0  0  0  0  0  0  0  0
    5.9408   -0.8760    0.5434 H   0  0  0  0  0  0  0  0  0  0  0  0
    5.0891   -0.6682   -1.6238 H   0  0  0  0  0  0  0  0  0  0  0  0
    3.3726   -3.1749   -1.0749 H   0  0  0  0  0  0  0  0  0  0  0  0
    2.6480   -1.6817   -1.6116 H   0  0  0  0  0  0  0  0  0  0  0  0
    4.7051   -0.7659   -3.8155 H   0  0  0  0  0  0  0  0  0  0  0  0
    2.9612   -0.8528   -3.9920 H   0  0  0  0  0  0  0  0  0  0  0  0
    3.9997   -1.7162   -5.0987 H   0  0  0  0  0  0  0  0  0  0  0  0
    5.9938   -3.0010   -2.9593 H   0  0  0  0  0  0  0  0  0  0  0  0
    5.2481   -3.8400   -4.3148 H   0  0  0  0  0  0  0  0  0  0  0  0
    5.0184   -4.4403   -2.6822 H   0  0  0  0  0  0  0  0  0  0  0  0
    2.7470   -4.2894   -3.1176 H   0  0  0  0  0  0  0  0  0  0  0  0
    5.4368   -1.3520    3.0033 H   0  0  0  0  0  0  0  0  0  0  0  0
    3.2757   -3.4269    3.4792 H   0  0  0  0  0  0  0  0  0  0  0  0
    4.8794   -3.3230    4.1863 H   0  0  0  0  0  0  0  0  0  0  0  0
    3.2050   -2.6704    5.9143 H   0  0  0  0  0  0  0  0  0  0  0  0
    4.5884    1.6099    3.4105 H   0  0  0  0  0  0  0  0  0  0  0  0
    3.7583    0.1012    1.8074 H   0  0  0  0  0  0  0  0  0  0  0  0
    2.5017   -0.9834    2.3280 H   0  0  0  0  0  0  0  0  0  0  0  0
    2.4329    2.1675    3.7299 H   0  0  0  0  0  0  0  0  0  0  0  0
    1.3914    0.8375    3.3111 H   0  0  0  0  0  0  0  0  0  0  0  0
    1.8254    2.0641    5.9057 H   0  0  0  0  0  0  0  0  0  0  0  0
   -0.1605    0.0092    4.8497 H   0  0  0  0  0  0  0  0  0  0  0  0
   -1.2580   -0.2192    6.7234 H   0  0  0  0  0  0  0  0  0  0  0  0
    0.9677    0.7552    8.5323 H   0  0  0  0  0  0  0  0  0  0  0  0
    0.0182   -0.6754    8.6561 H   0  0  0  0  0  0  0  0  0  0  0  0
    2.3009   -1.2867    7.9715 H   0  0  0  0  0  0  0  0  0  0  0  0
    1.1865   -1.6517    6.6839 H   0  0  0  0  0  0  0  0  0  0  0  0
    3.1242    1.3443    7.9221 H   0  0  0  0  0  0  0  0  0  0  0  0
    4.1118    1.5344    6.4973 H   0  0  0  0  0  0  0  0  0  0  0  0
    4.2965    0.1019    7.4933 H   0  0  0  0  0  0  0  0  0  0  0  0
   -2.9940    2.9481    7.2478 H   0  0  0  0  0  0  0  0  0  0  0  0
   -2.6243    1.7519    8.4885 H   0  0  0  0  0  0  0  0  0  0  0  0
   -3.1568    1.2418    6.8913 H   0  0  0  0  0  0  0  0  0  0  0  0
   -0.6519    3.0800    8.7533 H   0  0  0  0  0  0  0  0  0  0  0  0
    0.7504    2.7401    7.7856 H   0  0  0  0  0  0  0  0  0  0  0  0
   -1.3852    4.7520    7.0080 H   0  0  0  0  0  0  0  0  0  0  0  0
    0.2424    5.0915    7.5902 H   0  0  0  0  0  0  0  0  0  0  0  0
   -1.4606    3.7682    4.3400 H   0  0  0  0  0  0  0  0  0  0  0  0
    0.0575    3.0961    3.8108 H   0  0  0  0  0  0  0  0  0  0  0  0
   -1.7929    1.5227    4.9508 H   0  0  0  0  0  0  0  0  0  0  0  0
  1  2  1  0
  1 33  1  0
  1 34  1  0
  1 35  1  0
  2  3  1  0
  2 10  1  0
  2 36  1  6
  3  4  2  3
  3 37  1  0
  4  5  1  0
  4 38  1  0
  5  6  1  0
  5 39  1  0
  5 40  1  0
  6  7  1  0
  6  8  1  0
  6  9  1  0
  7 41  1  0
  7 42  1  0
  7 43  1  0
  8 44  1  0
  8 45  1  0
  8 46  1  0
  9 47  1  0
 10 16  1  0
 10 11  1  0
 10 48  1  1
 11 12  1  0
 11 49  1  0
 11 50  1  0
 12 13  2  0
 12 51  1  0
 13 23  1  0
 13 14  1  0
 14 15  1  1
 14 16  1  0
 14 17  1  0
 15 52  1  0
 16 53  1  0
 16 54  1  0
 17 18  1  0
 17 55  1  0
 17 56  1  0
 18 23  1  0
 18 19  1  0
 18 57  1  1
 19 32  1  0
 19 20  1  0
 19 58  1  6
 20 21  1  0
 20 25  1  0
 20 59  1  6
 21 22  1  0
 21 60  1  0
 21 61  1  0
 22 23  1  0
 22 62  1  0
 22 63  1  0
 23 24  1  1
 24 64  1  0
 24 65  1  0
 24 66  1  0
 25 32  1  0
 25 26  1  6
 25 27  1  0
 26 67  1  0
 26 68  1  0
 26 69  1  0
 27 28  1  0
 27 70  1  0
 27 71  1  0
 28 29  1  0
 28 72  1  0
 28 73  1  0
 29 30  2  0
 29 31  1  0
 31 32  1  0
 31 74  1  0
 31 75  1  0
 32 76  1  6
M  END
>  <i_m_ct_stereo_status>  (383) 
1

>  <s_m_source_file>  (383) 
/var/tmp/pbs.5076255.sched01/tmpp4327t_d/123x5hmlc3y.sdf

>  <i_m_source_file_index>  (383) 
35

>  <i_lp_mmshare_version>  (383) 
48012

>  <i_f3d_flags>  (383) 
0

>  <s_epik_input>  (383) 
W0NIM11DKFtDSDNdKShbT0hdKVtDSDJdXFtDSF09W0NIXVxbQ0BASF0oW0NIM10pW0NAQEhdKFtDSDJdMSlbQ0gyXVtDSF09QyhbQ0BAXTEyW09IXSlbQ0BAXTMoW0NIM10pW0NAQEhdKFtDSDJdMilbQ0BIXTRbQ0BASF0oW0NIMl1bQ0gyXTMpW0NAXTUoW0NIM10pW0NASF00W0NIMl1DKD1PKVtDSDJdW0NIMl01

>  <s_epik_cmdline>  (383) 
J2VwaWtfcHl0aG9uJywgJy1waHQnLCAnMi4wJywgJy1waCcsICc3LjAnLCAnLXRuJywgJzgnLCAnLW1hJywgJzIwMCcsICctaW1hZScsICc8aW5maWxlLm1hZT4nLCAnLW9tYWUnLCAnPG91dGZpbGUubWFlPic=

>  <r_lp_tautomer_probability>  (383) 
1

>  <r_epik_Ionization_Penalty>  (383) 
1.34489e-06

>  <r_epik_Ionization_Penalty_Charging>  (383) 
0

>  <r_epik_Ionization_Penalty_Neutral>  (383) 
1.34489e-06

>  <r_epik_State_Penalty>  (383) 
-0

>  <r_epik_Charging_Adjusted_Penalty>  (383) 
0

>  <i_epik_Tot_Q>  (383) 
0

>  <i_epik_Tot_abs_Q>  (383) 
0

>  <s_lp_Force_Field>  (383) 
OPLS3e

>  <r_lp_Energy>  (383) 
36.2525

>  <b_lp_Chiralities_Consistent>  (383) 
1

>  <s_lp_Variant>  (383) 
114:0-2

>  <s_i_glide_gridfile>  (383) 
pfpi4k_grid

>  <i_i_glide_lignum>  (383) 
35

>  <i_i_glide_rotatable_bonds>  (383) 
6

>  <r_i_docking_score>  (383) 
-2.88013

>  <r_i_glide_ligand_efficiency>  (383) 
-0.0900041

>  <r_i_glide_ligand_efficiency_sa>  (383) 
-0.285745

>  <r_i_glide_ligand_efficiency_ln>  (383) 
-0.64494

>  <r_i_glide_gscore>  (383) 
-2.88013

>  <r_i_glide_lipo>  (383) 
-0.485652

>  <r_i_glide_hbond>  (383) 
-0.608

>  <r_i_glide_metal>  (383) 
-0

>  <r_i_glide_rewards>  (383) 
-0.404605

>  <r_i_glide_evdw>  (383) 
-23.4046

>  <r_i_glide_ecoul>  (383) 
-4.09404

>  <r_i_glide_erotb>  (383) 
0.411341

>  <r_i_glide_esite>  (383) 
-0.00887988

>  <r_i_glide_emodel>  (383) 
-31.7769

>  <r_i_glide_energy>  (383) 
-27.4986

>  <r_i_glide_einternal>  (383) 
1.23243

>  <r_i_glide_intrahb_reward>  (383) 
-0

>  <i_i_glide_confnum>  (383) 
5

>  <i_i_glide_posenum>  (383) 
4

>  <r_i_glide_eff_state_penalty>  (383) 
0

>  <ligand_id>  (383) 
114

>  <original_smiles>  (383) 
CC(C=CCC(C)(C)O)C1CC=C2C(O)(C1)CC1C3C(CCC21C)C1(C)CCC(=O)CC31

>  <smiles>  (383) 
[H]OC12C(=C([H])C([H])([H])C([H])(C([H])(C([H])=C([H])C([H])([H])C(O[H])(C([H])([H])[H])C([H])([H])[H])C([H])([H])[H])C1([H])[H])C1(C([H])([H])[H])C([H])([H])C([H])([H])C3([H])C([H])(C1([H])C2([H])[H])C1([H])C([H])([H])C(=O)C([H])([H])C([H])([H])C13C([H])([H])[H]

$$$$
114:1:1
     RDKit          3D

 76 80  0  0  1  0  0  0  0  0999 V2000
    3.2443   -3.0802    2.8438 C   0  0  0  0  0  0  0  0  0  0  0  0
    3.0580   -2.0804    1.6866 C   0  0  2  0  0  0  0  0  0  0  0  0
    4.3890   -1.9566    0.9485 C   0  0  0  0  0  0  0  0  0  0  0  0
    4.7494   -2.4664   -0.2430 C   0  0  0  0  0  0  0  0  0  0  0  0
    3.9473   -3.3300   -1.2089 C   0  0  0  0  0  0  0  0  0  0  0  0
    3.8418   -2.7499   -2.6483 C   0  0  0  0  0  0  0  0  0  0  0  0
    2.6031   -1.8704   -2.8064 C   0  0  0  0  0  0  0  0  0  0  0  0
    5.0822   -1.9885   -3.1080 C   0  0  0  0  0  0  0  0  0  0  0  0
    3.7077   -3.8195   -3.5639 O   0  0  0  0  0  0  0  0  0  0  0  0
    2.4618   -0.6941    2.1226 C   0  0  2  0  0  0  0  0  0  0  0  0
    3.5013    0.4486    2.2863 C   0  0  0  0  0  0  0  0  0  0  0  0
    2.9990    1.6539    3.0715 C   0  0  0  0  0  0  0  0  0  0  0  0
    1.7976    1.7100    3.6692 C   0  0  0  0  0  0  0  0  0  0  0  0
    0.8665    0.5261    3.7410 C   0  0  1  0  0  0  0  0  0  0  0  0
   -0.1975    0.6798    2.8251 O   0  0  0  0  0  0  0  0  0  0  0  0
    1.5753   -0.7921    3.3902 C   0  0  0  0  0  0  0  0  0  0  0  0
    0.3289    0.5766    5.1779 C   0  0  0  0  0  0  0  0  0  0  0  0
    0.5638    2.0162    5.7019 C   0  0  1  0  0  0  0  0  0  0  0  0
    1.2746    2.0475    7.0651 C   0  0  1  0  0  0  0  0  0  0  0  0
    1.7646    3.4077    7.5465 C   0  0  1  0  0  0  0  0  0  0  0  0
    2.0048    4.4580    6.4557 C   0  0  0  0  0  0  0  0  0  0  0  0
    2.4153    3.7611    5.1391 C   0  0  0  0  0  0  0  0  0  0  0  0
    1.3021    2.8195    4.5857 C   0  0  1  0  0  0  0  0  0  0  0  0
    0.2970    3.6782    3.7884 C   0  0  0  0  0  0  0  0  0  0  0  0
    0.5910    3.4649    8.5564 C   0  0  1  0  0  0  0  0  0  0  0  0
    0.9801    3.9121    9.9701 C   0  0  0  0  0  0  0  0  0  0  0  0
   -0.6640    4.2562    8.1350 C   0  0  0  0  0  0  0  0  0  0  0  0
   -1.9687    3.5791    8.5839 C   0  0  0  0  0  0  0  0  0  0  0  0
   -2.0275    2.1580    8.0271 C   0  0  0  0  0  0  0  0  0  0  0  0
   -2.9247    1.7803    7.2794 O   0  0  0  0  0  0  0  0  0  0  0  0
   -0.8752    1.2331    8.4237 C   0  0  0  0  0  0  0  0  0  0  0  0
    0.4923    1.9268    8.3759 C   0  0  1  0  0  0  0  0  0  0  0  0
    3.6897   -4.0132    2.4954 H   0  0  0  0  0  0  0  0  0  0  0  0
    2.2945   -3.3439    3.3057 H   0  0  0  0  0  0  0  0  0  0  0  0
    3.8967   -2.6662    3.6116 H   0  0  0  0  0  0  0  0  0  0  0  0
    2.3265   -2.5246    1.0105 H   0  0  0  0  0  0  0  0  0  0  0  0
    5.1582   -1.3991    1.4677 H   0  0  0  0  0  0  0  0  0  0  0  0
    5.7581   -2.2516   -0.5660 H   0  0  0  0  0  0  0  0  0  0  0  0
    4.4600   -4.2912   -1.2294 H   0  0  0  0  0  0  0  0  0  0  0  0
    2.9524   -3.5365   -0.8117 H   0  0  0  0  0  0  0  0  0  0  0  0
    2.6458   -0.9912   -2.1620 H   0  0  0  0  0  0  0  0  0  0  0  0
    1.7035   -2.4293   -2.5481 H   0  0  0  0  0  0  0  0  0  0  0  0
    2.4918   -1.5248   -3.8341 H   0  0  0  0  0  0  0  0  0  0  0  0
    5.2741   -1.1080   -2.4912 H   0  0  0  0  0  0  0  0  0  0  0  0
    4.9650   -1.6345   -4.1306 H   0  0  0  0  0  0  0  0  0  0  0  0
    5.9584   -2.6398   -3.0706 H   0  0  0  0  0  0  0  0  0  0  0  0
    3.2062   -4.5101   -3.1391 H   0  0  0  0  0  0  0  0  0  0  0  0
    1.8057   -0.3895    1.3047 H   0  0  0  0  0  0  0  0  0  0  0  0
    4.3710    0.0983    2.8404 H   0  0  0  0  0  0  0  0  0  0  0  0
    3.8299    0.7852    1.2988 H   0  0  0  0  0  0  0  0  0  0  0  0
    3.6662    2.4942    3.1659 H   0  0  0  0  0  0  0  0  0  0  0  0
    0.1800    0.8356    1.9697 H   0  0  0  0  0  0  0  0  0  0  0  0
    0.8336   -1.5859    3.2905 H   0  0  0  0  0  0  0  0  0  0  0  0
    2.2122   -1.0652    4.2334 H   0  0  0  0  0  0  0  0  0  0  0  0
   -0.7228    0.2997    5.2154 H   0  0  0  0  0  0  0  0  0  0  0  0
    0.8581   -0.1405    5.8073 H   0  0  0  0  0  0  0  0  0  0  0  0
   -0.4231    2.4649    5.8031 H   0  0  0  0  0  0  0  0  0  0  0  0
    2.1257    1.3611    7.0731 H   0  0  0  0  0  0  0  0  0  0  0  0
    2.6902    3.2289    8.0921 H   0  0  0  0  0  0  0  0  0  0  0  0
    1.1259    5.0734    6.2689 H   0  0  0  0  0  0  0  0  0  0  0  0
    2.7801    5.1581    6.7664 H   0  0  0  0  0  0  0  0  0  0  0  0
    2.6770    4.5101    4.3894 H   0  0  0  0  0  0  0  0  0  0  0  0
    3.3335    3.2061    5.3315 H   0  0  0  0  0  0  0  0  0  0  0  0
   -0.0914    4.5005    4.3889 H   0  0  0  0  0  0  0  0  0  0  0  0
   -0.5667    3.1009    3.4639 H   0  0  0  0  0  0  0  0  0  0  0  0
    0.7625    4.0896    2.8901 H   0  0  0  0  0  0  0  0  0  0  0  0
    0.1725    3.7380   10.6824 H   0  0  0  0  0  0  0  0  0  0  0  0
    1.2368    4.9716    9.9973 H   0  0  0  0  0  0  0  0  0  0  0  0
    1.8517    3.3617   10.3363 H   0  0  0  0  0  0  0  0  0  0  0  0
   -0.6239    5.2802    8.5094 H   0  0  0  0  0  0  0  0  0  0  0  0
   -0.7213    4.3380    7.0494 H   0  0  0  0  0  0  0  0  0  0  0  0
   -2.0301    3.5285    9.6754 H   0  0  0  0  0  0  0  0  0  0  0  0
   -2.8263    4.1424    8.2269 H   0  0  0  0  0  0  0  0  0  0  0  0
   -1.0788    0.8763    9.4312 H   0  0  0  0  0  0  0  0  0  0  0  0
   -0.8881    0.3593    7.7701 H   0  0  0  0  0  0  0  0  0  0  0  0
    1.1618    1.4485    9.0890 H   0  0  0  0  0  0  0  0  0  0  0  0
  1  2  1  0
  1 33  1  0
  1 34  1  0
  1 35  1  0
  2  3  1  0
  2 10  1  0
  2 36  1  6
  3  4  2  3
  3 37  1  0
  4  5  1  0
  4 38  1  0
  5  6  1  0
  5 39  1  0
  5 40  1  0
  6  7  1  0
  6  8  1  0
  6  9  1  0
  7 41  1  0
  7 42  1  0
  7 43  1  0
  8 44  1  0
  8 45  1  0
  8 46  1  0
  9 47  1  0
 10 16  1  0
 10 11  1  0
 10 48  1  6
 11 12  1  0
 11 49  1  0
 11 50  1  0
 12 13  2  0
 12 51  1  0
 13 23  1  0
 13 14  1  0
 14 15  1  6
 14 16  1  0
 14 17  1  0
 15 52  1  0
 16 53  1  0
 16 54  1  0
 17 18  1  0
 17 55  1  0
 17 56  1  0
 18 23  1  0
 18 19  1  0
 18 57  1  1
 19 32  1  0
 19 20  1  0
 19 58  1  6
 20 21  1  0
 20 25  1  0
 20 59  1  1
 21 22  1  0
 21 60  1  0
 21 61  1  0
 22 23  1  0
 22 62  1  0
 22 63  1  0
 23 24  1  6
 24 64  1  0
 24 65  1  0
 24 66  1  0
 25 32  1  0
 25 26  1  1
 25 27  1  0
 26 67  1  0
 26 68  1  0
 26 69  1  0
 27 28  1  0
 27 70  1  0
 27 71  1  0
 28 29  1  0
 28 72  1  0
 28 73  1  0
 29 30  2  0
 29 31  1  0
 31 32  1  0
 31 74  1  0
 31 75  1  0
 32 76  1  1
M  END
>  <i_m_ct_stereo_status>  (384) 
1

>  <s_m_source_file>  (384) 
/var/tmp/pbs.5076255.sched01/tmpp4327t_d/123x5hmlc3y.sdf

>  <i_m_source_file_index>  (384) 
35

>  <i_lp_mmshare_version>  (384) 
48012

>  <i_f3d_flags>  (384) 
0

>  <s_epik_input>  (384) 
W0NIM11DKFtDSDNdKShbT0hdKVtDSDJdXFtDSF09W0NIXVxbQ0BASF0oW0NIM10pW0NAQEhdKFtDSDJdMSlbQ0gyXVtDSF09QyhbQ0BAXTEyW09IXSlbQ0BAXTMoW0NIM10pW0NAQEhdKFtDSDJdMilbQ0BIXTRbQ0BASF0oW0NIMl1bQ0gyXTMpW0NAXTUoW0NIM10pW0NASF00W0NIMl1DKD1PKVtDSDJdW0NIMl01

>  <s_epik_cmdline>  (384) 
J2VwaWtfcHl0aG9uJywgJy1waHQnLCAnMi4wJywgJy1waCcsICc3LjAnLCAnLXRuJywgJzgnLCAnLW1hJywgJzIwMCcsICctaW1hZScsICc8aW5maWxlLm1hZT4nLCAnLW9tYWUnLCAnPG91dGZpbGUubWFlPic=

>  <r_lp_tautomer_probability>  (384) 
1

>  <r_epik_Ionization_Penalty>  (384) 
1.34489e-06

>  <r_epik_Ionization_Penalty_Charging>  (384) 
0

>  <r_epik_Ionization_Penalty_Neutral>  (384) 
1.34489e-06

>  <r_epik_State_Penalty>  (384) 
-0

>  <r_epik_Charging_Adjusted_Penalty>  (384) 
0

>  <i_epik_Tot_Q>  (384) 
0

>  <i_epik_Tot_abs_Q>  (384) 
0

>  <s_lp_Force_Field>  (384) 
OPLS3e

>  <r_lp_Energy>  (384) 
36.2525

>  <b_lp_Chiralities_Consistent>  (384) 
1

>  <s_lp_Variant>  (384) 
114:0-2

>  <s_i_glide_gridfile>  (384) 
pfpi4k_grid

>  <i_i_glide_lignum>  (384) 
35

>  <i_i_glide_rotatable_bonds>  (384) 
6

>  <r_i_docking_score>  (384) 
-2.40592

>  <r_i_glide_ligand_efficiency>  (384) 
-0.0751851

>  <r_i_glide_ligand_efficiency_sa>  (384) 
-0.238698

>  <r_i_glide_ligand_efficiency_ln>  (384) 
-0.538751

>  <r_i_glide_gscore>  (384) 
-2.40592

>  <r_i_glide_lipo>  (384) 
-0.0465501

>  <r_i_glide_hbond>  (384) 
-0.32

>  <r_i_glide_metal>  (384) 
-0

>  <r_i_glide_rewards>  (384) 
-0.404605

>  <r_i_glide_evdw>  (384) 
-19.717

>  <r_i_glide_ecoul>  (384) 
-6.89186

>  <r_i_glide_erotb>  (384) 
0.411341

>  <r_i_glide_esite>  (384) 
-0.0264776

>  <r_i_glide_emodel>  (384) 
-25.6133

>  <r_i_glide_energy>  (384) 
-26.6089

>  <r_i_glide_einternal>  (384) 
9.04436

>  <r_i_glide_intrahb_reward>  (384) 
-0

>  <i_i_glide_confnum>  (384) 
2

>  <i_i_glide_posenum>  (384) 
1

>  <r_i_glide_eff_state_penalty>  (384) 
0

>  <ligand_id>  (384) 
114

>  <original_smiles>  (384) 
CC(C=CCC(C)(C)O)C1CC=C2C(O)(C1)CC1C3C(CCC21C)C1(C)CCC(=O)CC31

>  <smiles>  (384) 
[H]OC12C(=C([H])C([H])([H])C([H])(C([H])(C([H])=C([H])C([H])([H])C(O[H])(C([H])([H])[H])C([H])([H])[H])C([H])([H])[H])C1([H])[H])C1(C([H])([H])[H])C([H])([H])C([H])([H])C3([H])C([H])(C1([H])C2([H])[H])C1([H])C([H])([H])C(=O)C([H])([H])C([H])([H])C13C([H])([H])[H]

$$$$
114:1:2
     RDKit          3D

 76 80  0  0  1  0  0  0  0  0999 V2000
    2.8512   -3.2951    2.3540 C   0  0  0  0  0  0  0  0  0  0  0  0
    3.0173   -2.0357    1.4832 C   0  0  2  0  0  0  0  0  0  0  0  0
    4.2787   -2.1608    0.6354 C   0  0  0  0  0  0  0  0  0  0  0  0
    4.3843   -2.5383   -0.6536 C   0  0  0  0  0  0  0  0  0  0  0  0
    3.2741   -2.9430   -1.6200 C   0  0  0  0  0  0  0  0  0  0  0  0
    3.3292   -2.2196   -2.9850 C   0  0  0  0  0  0  0  0  0  0  0  0
    3.1641   -0.7000   -2.8415 C   0  0  0  0  0  0  0  0  0  0  0  0
    4.5996   -2.5559   -3.7777 C   0  0  0  0  0  0  0  0  0  0  0  0
    2.2470   -2.6917   -3.7594 O   0  0  0  0  0  0  0  0  0  0  0  0
    2.9761   -0.7051    2.2920 C   0  0  2  0  0  0  0  0  0  0  0  0
    4.1457   -0.5357    3.3034 C   0  0  0  0  0  0  0  0  0  0  0  0
    3.9033    0.5275    4.3651 C   0  0  0  0  0  0  0  0  0  0  0  0
    2.7457    1.2037    4.4976 C   0  0  0  0  0  0  0  0  0  0  0  0
    1.5157    0.8881    3.6742 C   0  0  1  0  0  0  0  0  0  0  0  0
    1.3560    1.8656    2.6660 O   0  0  0  0  0  0  0  0  0  0  0  0
    1.6093   -0.4906    2.9860 C   0  0  0  0  0  0  0  0  0  0  0  0
    0.3580    1.0100    4.6810 C   0  0  0  0  0  0  0  0  0  0  0  0
    0.8791    1.8467    5.8768 C   0  0  1  0  0  0  0  0  0  0  0  0
    0.6271    1.1716    7.2341 C   0  0  1  0  0  0  0  0  0  0  0  0
    1.3143    1.7935    8.4430 C   0  0  1  0  0  0  0  0  0  0  0  0
    2.5602    2.6356    8.1483 C   0  0  0  0  0  0  0  0  0  0  0  0
    3.2700    2.0994    6.8841 C   0  0  0  0  0  0  0  0  0  0  0  0
    2.3794    2.1896    5.6058 C   0  0  1  0  0  0  0  0  0  0  0  0
    2.4972    3.6243    5.0376 C   0  0  0  0  0  0  0  0  0  0  0  0
   -0.0434    2.3834    8.9008 C   0  0  1  0  0  0  0  0  0  0  0  0
   -0.3570    2.2081   10.3938 C   0  0  0  0  0  0  0  0  0  0  0  0
   -0.3334    3.8490    8.5263 C   0  0  0  0  0  0  0  0  0  0  0  0
   -1.7989    4.0802    8.1281 C   0  0  0  0  0  0  0  0  0  0  0  0
   -2.1791    3.1569    6.9717 C   0  0  0  0  0  0  0  0  0  0  0  0
   -2.5876    3.5856    5.8944 O   0  0  0  0  0  0  0  0  0  0  0  0
   -2.0050    1.6614    7.2203 C   0  0  0  0  0  0  0  0  0  0  0  0
   -0.7056    1.3280    7.9741 C   0  0  1  0  0  0  0  0  0  0  0  0
    2.8758   -4.1961    1.7399 H   0  0  0  0  0  0  0  0  0  0  0  0
    1.8989   -3.2934    2.8801 H   0  0  0  0  0  0  0  0  0  0  0  0
    3.6445   -3.3922    3.0947 H   0  0  0  0  0  0  0  0  0  0  0  0
    2.1704   -2.0029    0.8019 H   0  0  0  0  0  0  0  0  0  0  0  0
    5.2012   -1.9270    1.1459 H   0  0  0  0  0  0  0  0  0  0  0  0
    5.3810   -2.5810   -1.0670 H   0  0  0  0  0  0  0  0  0  0  0  0
    3.3712   -4.0147   -1.7822 H   0  0  0  0  0  0  0  0  0  0  0  0
    2.2910   -2.7979   -1.1741 H   0  0  0  0  0  0  0  0  0  0  0  0
    3.9830   -0.2594   -2.2747 H   0  0  0  0  0  0  0  0  0  0  0  0
    2.2391   -0.4608   -2.3296 H   0  0  0  0  0  0  0  0  0  0  0  0
    3.1339   -0.1975   -3.8083 H   0  0  0  0  0  0  0  0  0  0  0  0
    5.5039   -2.2657   -3.2444 H   0  0  0  0  0  0  0  0  0  0  0  0
    4.5955   -2.0077   -4.7195 H   0  0  0  0  0  0  0  0  0  0  0  0
    4.6661   -3.6249   -3.9973 H   0  0  0  0  0  0  0  0  0  0  0  0
    2.1739   -2.1746   -4.5511 H   0  0  0  0  0  0  0  0  0  0  0  0
    3.0673    0.1010    1.5624 H   0  0  0  0  0  0  0  0  0  0  0  0
    4.3276   -1.4545    3.8566 H   0  0  0  0  0  0  0  0  0  0  0  0
    5.0656   -0.2875    2.7711 H   0  0  0  0  0  0  0  0  0  0  0  0
    4.7276    0.7174    5.0344 H   0  0  0  0  0  0  0  0  0  0  0  0
    0.6679    1.6010    2.0736 H   0  0  0  0  0  0  0  0  0  0  0  0
    0.7939   -0.6173    2.2714 H   0  0  0  0  0  0  0  0  0  0  0  0
    1.4698   -1.2654    3.7405 H   0  0  0  0  0  0  0  0  0  0  0  0
   -0.5231    1.4672    4.2344 H   0  0  0  0  0  0  0  0  0  0  0  0
    0.0448    0.0251    5.0279 H   0  0  0  0  0  0  0  0  0  0  0  0
    0.3388    2.7926    5.8509 H   0  0  0  0  0  0  0  0  0  0  0  0
    0.9106    0.1184    7.1990 H   0  0  0  0  0  0  0  0  0  0  0  0
    1.5748    0.9734    9.1104 H   0  0  0  0  0  0  0  0  0  0  0  0
    2.3222    3.6880    8.0062 H   0  0  0  0  0  0  0  0  0  0  0  0
    3.2423    2.6160    8.9974 H   0  0  0  0  0  0  0  0  0  0  0  0
    4.2037    2.6419    6.7287 H   0  0  0  0  0  0  0  0  0  0  0  0
    3.5547    1.0653    7.0780 H   0  0  0  0  0  0  0  0  0  0  0  0
    2.2755    4.3781    5.7915 H   0  0  0  0  0  0  0  0  0  0  0  0
    1.8077    3.8016    4.2139 H   0  0  0  0  0  0  0  0  0  0  0  0
    3.5020    3.8145    4.6606 H   0  0  0  0  0  0  0  0  0  0  0  0
   -1.3945    2.4540   10.6257 H   0  0  0  0  0  0  0  0  0  0  0  0
    0.2840    2.8353   11.0146 H   0  0  0  0  0  0  0  0  0  0  0  0
   -0.1992    1.1767   10.7195 H   0  0  0  0  0  0  0  0  0  0  0  0
   -0.0499    4.5241    9.3366 H   0  0  0  0  0  0  0  0  0  0  0  0
    0.2662    4.1533    7.6691 H   0  0  0  0  0  0  0  0  0  0  0  0
   -2.4650    3.8823    8.9722 H   0  0  0  0  0  0  0  0  0  0  0  0
   -1.9361    5.1167    7.8345 H   0  0  0  0  0  0  0  0  0  0  0  0
   -2.8757    1.3374    7.7865 H   0  0  0  0  0  0  0  0  0  0  0  0
   -2.0462    1.1439    6.2600 H   0  0  0  0  0  0  0  0  0  0  0  0
   -0.8409    0.4188    8.5562 H   0  0  0  0  0  0  0  0  0  0  0  0
  1  2  1  0
  1 33  1  0
  1 34  1  0
  1 35  1  0
  2  3  1  0
  2 10  1  0
  2 36  1  6
  3  4  2  3
  3 37  1  0
  4  5  1  0
  4 38  1  0
  5  6  1  0
  5 39  1  0
  5 40  1  0
  6  7  1  0
  6  8  1  0
  6  9  1  0
  7 41  1  0
  7 42  1  0
  7 43  1  0
  8 44  1  0
  8 45  1  0
  8 46  1  0
  9 47  1  0
 10 16  1  0
 10 11  1  0
 10 48  1  6
 11 12  1  0
 11 49  1  0
 11 50  1  0
 12 13  2  0
 12 51  1  0
 13 23  1  0
 13 14  1  0
 14 15  1  6
 14 16  1  0
 14 17  1  0
 15 52  1  0
 16 53  1  0
 16 54  1  0
 17 18  1  0
 17 55  1  0
 17 56  1  0
 18 23  1  0
 18 19  1  0
 18 57  1  1
 19 32  1  0
 19 20  1  0
 19 58  1  6
 20 21  1  0
 20 25  1  0
 20 59  1  1
 21 22  1  0
 21 60  1  0
 21 61  1  0
 22 23  1  0
 22 62  1  0
 22 63  1  0
 23 24  1  6
 24 64  1  0
 24 65  1  0
 24 66  1  0
 25 32  1  0
 25 26  1  1
 25 27  1  0
 26 67  1  0
 26 68  1  0
 26 69  1  0
 27 28  1  0
 27 70  1  0
 27 71  1  0
 28 29  1  0
 28 72  1  0
 28 73  1  0
 29 30  2  0
 29 31  1  0
 31 32  1  0
 31 74  1  0
 31 75  1  0
 32 76  1  1
M  END
>  <i_m_ct_stereo_status>  (385) 
1

>  <s_m_source_file>  (385) 
/var/tmp/pbs.5076255.sched01/tmpp4327t_d/123x5hmlc3y.sdf

>  <i_m_source_file_index>  (385) 
35

>  <i_lp_mmshare_version>  (385) 
48012

>  <i_f3d_flags>  (385) 
0

>  <s_epik_input>  (385) 
W0NIM11DKFtDSDNdKShbT0hdKVtDSDJdXFtDSF09W0NIXVxbQ0BASF0oW0NIM10pW0NAQEhdKFtDSDJdMSlbQ0gyXVtDSF09QyhbQ0BAXTEyW09IXSlbQ0BAXTMoW0NIM10pW0NAQEhdKFtDSDJdMilbQ0BIXTRbQ0BASF0oW0NIMl1bQ0gyXTMpW0NAXTUoW0NIM10pW0NASF00W0NIMl1DKD1PKVtDSDJdW0NIMl01

>  <s_epik_cmdline>  (385) 
J2VwaWtfcHl0aG9uJywgJy1waHQnLCAnMi4wJywgJy1waCcsICc3LjAnLCAnLXRuJywgJzgnLCAnLW1hJywgJzIwMCcsICctaW1hZScsICc8aW5maWxlLm1hZT4nLCAnLW9tYWUnLCAnPG91dGZpbGUubWFlPic=

>  <r_lp_tautomer_probability>  (385) 
1

>  <r_epik_Ionization_Penalty>  (385) 
1.34489e-06

>  <r_epik_Ionization_Penalty_Charging>  (385) 
0

>  <r_epik_Ionization_Penalty_Neutral>  (385) 
1.34489e-06

>  <r_epik_State_Penalty>  (385) 
-0

>  <r_epik_Charging_Adjusted_Penalty>  (385) 
0

>  <i_epik_Tot_Q>  (385) 
0

>  <i_epik_Tot_abs_Q>  (385) 
0

>  <s_lp_Force_Field>  (385) 
OPLS3e

>  <r_lp_Energy>  (385) 
36.2525

>  <b_lp_Chiralities_Consistent>  (385) 
1

>  <s_lp_Variant>  (385) 
114:0-2

>  <s_i_glide_gridfile>  (385) 
pfpi4k_grid

>  <i_i_glide_lignum>  (385) 
35

>  <i_i_glide_rotatable_bonds>  (385) 
6

>  <r_i_docking_score>  (385) 
-1.65341

>  <r_i_glide_ligand_efficiency>  (385) 
-0.051669

>  <r_i_glide_ligand_efficiency_sa>  (385) 
-0.164039

>  <r_i_glide_ligand_efficiency_ln>  (385) 
-0.370243

>  <r_i_glide_gscore>  (385) 
-1.65341

>  <r_i_glide_lipo>  (385) 
-0.116869

>  <r_i_glide_hbond>  (385) 
-0.247361

>  <r_i_glide_metal>  (385) 
-0

>  <r_i_glide_rewards>  (385) 
-0.525165

>  <r_i_glide_evdw>  (385) 
-23.885

>  <r_i_glide_ecoul>  (385) 
0.125975

>  <r_i_glide_erotb>  (385) 
0.411341

>  <r_i_glide_esite>  (385) 
0

>  <r_i_glide_emodel>  (385) 
-25.2952

>  <r_i_glide_energy>  (385) 
-23.759

>  <r_i_glide_einternal>  (385) 
2.18176

>  <r_i_glide_intrahb_reward>  (385) 
-0

>  <i_i_glide_confnum>  (385) 
2

>  <i_i_glide_posenum>  (385) 
15

>  <r_i_glide_eff_state_penalty>  (385) 
0

>  <ligand_id>  (385) 
114

>  <original_smiles>  (385) 
CC(C=CCC(C)(C)O)C1CC=C2C(O)(C1)CC1C3C(CCC21C)C1(C)CCC(=O)CC31

>  <smiles>  (385) 
[H]OC12C(=C([H])C([H])([H])C([H])(C([H])(C([H])=C([H])C([H])([H])C(O[H])(C([H])([H])[H])C([H])([H])[H])C([H])([H])[H])C1([H])[H])C1(C([H])([H])[H])C([H])([H])C([H])([H])C3([H])C([H])(C1([H])C2([H])[H])C1([H])C([H])([H])C(=O)C([H])([H])C([H])([H])C13C([H])([H])[H]

$$$$
115:0:0
     RDKit          3D

 80 86  0  0  1  0  0  0  0  0999 V2000
   -0.2297   -3.2190    5.7147 C   0  0  0  0  0  0  0  0  0  0  0  0
   -0.8854   -1.9551    5.5974 O   0  0  0  0  0  0  0  0  0  0  0  0
   -0.0166   -0.8241    5.4808 C   0  0  2  0  0  0  0  0  0  0  0  0
   -0.8137    0.3951    5.9910 C   0  0  0  0  0  0  0  0  0  0  0  0
    0.0076    1.7199    5.9275 C   0  0  1  0  0  0  0  0  0  0  0  0
    0.4661    1.9505    4.4594 C   0  0  2  0  0  0  0  0  0  0  0  0
   -0.6861    2.3530    3.5021 C   0  0  0  0  0  0  0  0  0  0  0  0
   -1.4323    3.5839    4.0175 C   0  0  1  0  0  0  0  0  0  0  0  0
   -2.5620    3.8331    3.2131 O   0  0  0  0  0  0  0  0  0  0  0  0
   -1.7915    3.3583    5.4780 C   0  0  0  0  0  0  0  0  0  0  0  0
   -2.9760    3.2673    6.0556 C   0  0  0  0  0  0  0  0  0  0  0  0
   -2.9192    2.9294    7.3752 O   0  0  0  0  0  0  0  0  0  0  0  0
   -1.5355    2.8245    7.7510 C   0  0  0  0  0  0  0  0  0  0  0  0
   -0.7079    3.0070    6.4501 C   0  0  1  0  0  0  0  0  0  0  0  0
    0.2814    4.1824    6.6219 C   0  0  0  0  0  0  0  0  0  0  0  0
    1.2372    0.7609    3.9486 C   0  0  0  0  0  0  0  0  0  0  0  0
    0.4932   -0.5959    4.0278 C   0  0  1  0  0  0  0  0  0  0  0  0
    1.3155   -1.7007    3.6258 O   0  0  0  0  0  0  0  0  0  0  0  0
    2.4985   -1.4912    2.8496 C   0  0  2  0  0  0  0  0  0  0  0  0
    2.3062   -2.3306    1.5068 C   0  0  0  0  0  0  0  0  0  0  0  0
    3.3685   -2.2611    0.2921 C   0  0  1  0  0  0  0  0  0  0  0  0
    2.6481   -2.6573   -0.8512 O   0  0  0  0  0  0  0  0  0  0  0  0
    3.7485   -0.9562    0.1011 O   0  0  0  0  0  0  0  0  0  0  0  0
    4.6033   -0.4553    1.1065 C   0  0  0  0  0  0  0  0  0  0  0  0
    5.2998   -1.5569    2.0099 C   0  0  1  0  0  0  0  0  0  0  0  0
    5.7868   -0.6527    3.1035 C   0  0  0  0  0  0  0  0  0  0  0  0
    4.7769   -0.6371    4.0101 C   0  0  0  0  0  0  0  0  0  0  0  0
    4.6479    0.0935    5.1819 O   0  0  0  0  0  0  0  0  0  0  0  0
    5.6377    0.8836    5.6753 C   0  0  0  0  0  0  0  0  0  0  0  0
    5.1453    1.7609    6.8208 C   0  0  0  0  0  0  0  0  0  0  0  0
    6.8129    0.9398    5.3059 O   0  0  0  0  0  0  0  0  0  0  0  0
    3.7452   -1.7742    3.8063 C   0  0  1  0  0  0  0  0  0  0  0  0
    3.3846   -2.4095    5.1762 C   0  0  0  0  0  0  0  0  0  0  0  0
    4.6879   -2.6250    3.0099 C   0  0  1  0  0  0  0  0  0  0  0  0
    4.3029   -4.0881    2.6296 C   0  0  0  0  0  0  0  0  0  0  0  0
    4.4261   -4.4057    1.1320 C   0  0  0  0  0  0  0  0  0  0  0  0
    4.7149   -3.1370    0.3419 C   0  0  2  0  0  0  0  0  0  0  0  0
    5.9782   -2.3886    0.9563 C   0  0  0  0  0  0  0  0  0  0  0  0
   -0.9606   -3.9958    5.9349 H   0  0  0  0  0  0  0  0  0  0  0  0
    0.5056   -3.2405    6.5201 H   0  0  0  0  0  0  0  0  0  0  0  0
    0.2623   -3.5151    4.7917 H   0  0  0  0  0  0  0  0  0  0  0  0
    0.8201   -0.9468    6.1677 H   0  0  0  0  0  0  0  0  0  0  0  0
   -1.7307    0.4797    5.4093 H   0  0  0  0  0  0  0  0  0  0  0  0
   -1.1142    0.1781    7.0110 H   0  0  0  0  0  0  0  0  0  0  0  0
    0.8983    1.5750    6.5449 H   0  0  0  0  0  0  0  0  0  0  0  0
    1.1807    2.7714    4.4493 H   0  0  0  0  0  0  0  0  0  0  0  0
   -0.2813    2.5499    2.5096 H   0  0  0  0  0  0  0  0  0  0  0  0
   -1.3851    1.5256    3.3799 H   0  0  0  0  0  0  0  0  0  0  0  0
   -0.7652    4.4394    3.9515 H   0  0  0  0  0  0  0  0  0  0  0  0
   -2.2744    3.7904    2.3090 H   0  0  0  0  0  0  0  0  0  0  0  0
   -3.9604    3.3376    5.6149 H   0  0  0  0  0  0  0  0  0  0  0  0
   -1.3127    3.6239    8.4602 H   0  0  0  0  0  0  0  0  0  0  0  0
   -1.3223    1.8950    8.2786 H   0  0  0  0  0  0  0  0  0  0  0  0
    1.0442    3.9414    7.3594 H   0  0  0  0  0  0  0  0  0  0  0  0
   -0.2397    5.0786    6.9580 H   0  0  0  0  0  0  0  0  0  0  0  0
    0.7940    4.4565    5.7000 H   0  0  0  0  0  0  0  0  0  0  0  0
    1.5034    1.0111    2.9271 H   0  0  0  0  0  0  0  0  0  0  0  0
    2.1517    0.6974    4.5285 H   0  0  0  0  0  0  0  0  0  0  0  0
   -0.3623   -0.5641    3.3517 H   0  0  0  0  0  0  0  0  0  0  0  0
    2.5186   -0.4972    2.4967 H   0  0  0  0  0  0  0  0  0  0  0  0
    1.9625   -3.3707    1.6568 H   0  0  0  0  0  0  0  0  0  0  0  0
    1.4189   -1.8548    1.1199 H   0  0  0  0  0  0  0  0  0  0  0  0
    1.9457   -2.0223   -0.9765 H   0  0  0  0  0  0  0  0  0  0  0  0
    5.3793    0.1208    0.6010 H   0  0  0  0  0  0  0  0  0  0  0  0
    4.1238    0.3641    1.6320 H   0  0  0  0  0  0  0  0  0  0  0  0
    6.6676   -0.0429    3.0402 H   0  0  0  0  0  0  0  0  0  0  0  0
    4.1523    1.4493    7.1485 H   0  0  0  0  0  0  0  0  0  0  0  0
    5.0969    2.8094    6.5221 H   0  0  0  0  0  0  0  0  0  0  0  0
    5.8274    1.6775    7.6661 H   0  0  0  0  0  0  0  0  0  0  0  0
    2.7946   -3.3146    5.0582 H   0  0  0  0  0  0  0  0  0  0  0  0
    2.8069   -1.7007    5.7646 H   0  0  0  0  0  0  0  0  0  0  0  0
    4.2703   -2.6420    5.7683 H   0  0  0  0  0  0  0  0  0  0  0  0
    5.5053   -2.8829    3.6856 H   0  0  0  0  0  0  0  0  0  0  0  0
    4.9427   -4.7880    3.1779 H   0  0  0  0  0  0  0  0  0  0  0  0
    3.3005   -4.3316    2.9813 H   0  0  0  0  0  0  0  0  0  0  0  0
    5.2604   -5.0872    0.9946 H   0  0  0  0  0  0  0  0  0  0  0  0
    3.5366   -4.9128    0.7525 H   0  0  0  0  0  0  0  0  0  0  0  0
    4.9782   -3.4027   -0.6817 H   0  0  0  0  0  0  0  0  0  0  0  0
    6.4875   -1.7705    0.2111 H   0  0  0  0  0  0  0  0  0  0  0  0
    6.7197   -3.0833    1.3688 H   0  0  0  0  0  0  0  0  0  0  0  0
  1  2  1  0
  1 39  1  0
  1 40  1  0
  1 41  1  0
  2  3  1  0
  3 17  1  0
  3  4  1  0
  3 42  1  1
  4  5  1  0
  4 43  1  0
  4 44  1  0
  5 14  1  0
  5  6  1  0
  5 45  1  1
  6  7  1  0
  6 16  1  0
  6 46  1  1
  7  8  1  0
  7 47  1  0
  7 48  1  0
  8  9  1  0
  8 10  1  0
  8 49  1  1
  9 50  1  0
 10 14  1  0
 10 11  2  0
 11 12  1  0
 11 51  1  0
 12 13  1  0
 13 14  1  0
 13 52  1  0
 13 53  1  0
 14 15  1  1
 15 54  1  0
 15 55  1  0
 15 56  1  0
 16 17  1  0
 16 57  1  0
 16 58  1  0
 17 18  1  0
 17 59  1  6
 18 19  1  0
 19 32  1  0
 19 20  1  0
 19 60  1  6
 20 21  1  0
 20 61  1  0
 20 62  1  0
 21 37  1  0
 21 22  1  6
 21 23  1  0
 22 63  1  0
 23 24  1  0
 24 25  1  0
 24 64  1  0
 24 65  1  0
 25 34  1  0
 25 38  1  0
 25 26  1  1
 26 27  2  0
 26 66  1  0
 27 28  1  0
 27 32  1  0
 28 29  1  0
 29 30  1  0
 29 31  2  0
 30 67  1  0
 30 68  1  0
 30 69  1  0
 32 33  1  1
 32 34  1  0
 33 70  1  0
 33 71  1  0
 33 72  1  0
 34 35  1  0
 34 73  1  1
 35 36  1  0
 35 74  1  0
 35 75  1  0
 36 37  1  0
 36 76  1  0
 36 77  1  0
 37 38  1  0
 37 78  1  6
 38 79  1  0
 38 80  1  0
M  END
>  <i_m_ct_stereo_status>  (386) 
1

>  <s_m_source_file>  (386) 
/var/tmp/pbs.5076255.sched01/tmpp4327t_d/123x5hmlc3y.sdf

>  <i_m_source_file_index>  (386) 
36

>  <i_lp_mmshare_version>  (386) 
48012

>  <i_f3d_flags>  (386) 
0

>  <s_epik_input>  (386) 
W0NIM11DKD1PKU9DKD1bQ0hdMSlbQ0BdKFtDSDNdKShbQ0BASF0yW0NAXTEzNClbQ0BASF0oW0NIMl1bQ0BAXShbT0hdKShPW0NIMl0zKVtDQEBIXShbQ0gyXTQpW0NIMl1bQ0gyXTIpT1tDQEBIXShbQ0BASF0oW0NIMl01KU9bQ0gzXSlbQ0gyXVtDQEhdKFtDQEhdNVtDQEBdNjdbQ0gzXSlbQ0gyXVtDQEBIXShbT0hdKUM2PVtDSF1PW0NIMl03

>  <s_epik_cmdline>  (386) 
J2VwaWtfcHl0aG9uJywgJy1waHQnLCAnMi4wJywgJy1waCcsICc3LjAnLCAnLXRuJywgJzgnLCAnLW1hJywgJzIwMCcsICctaW1hZScsICc8aW5maWxlLm1hZT4nLCAnLW9tYWUnLCAnPG91dGZpbGUubWFlPic=

>  <r_lp_tautomer_probability>  (386) 
1

>  <r_epik_Ionization_Penalty>  (386) 
1.06998e-07

>  <r_epik_Ionization_Penalty_Charging>  (386) 
0

>  <r_epik_Ionization_Penalty_Neutral>  (386) 
1.06998e-07

>  <r_epik_State_Penalty>  (386) 
-0

>  <r_epik_Charging_Adjusted_Penalty>  (386) 
0

>  <i_epik_Tot_Q>  (386) 
0

>  <i_epik_Tot_abs_Q>  (386) 
0

>  <s_lp_Force_Field>  (386) 
OPLS3e

>  <r_lp_Energy>  (386) 
131.371

>  <b_lp_Chiralities_Consistent>  (386) 
1

>  <s_lp_Variant>  (386) 
115:0-1

>  <s_i_glide_gridfile>  (386) 
pfpi4k_grid

>  <i_i_glide_lignum>  (386) 
36

>  <i_i_glide_rotatable_bonds>  (386) 
7

>  <r_i_docking_score>  (386) 
-2.82007

>  <r_i_glide_ligand_efficiency>  (386) 
-0.0742123

>  <r_i_glide_ligand_efficiency_sa>  (386) 
-0.2495

>  <r_i_glide_ligand_efficiency_ln>  (386) 
-0.608089

>  <r_i_glide_gscore>  (386) 
-2.82007

>  <r_i_glide_lipo>  (386) 
-0.676412

>  <r_i_glide_hbond>  (386) 
0

>  <r_i_glide_metal>  (386) 
-0

>  <r_i_glide_rewards>  (386) 
-0.091329

>  <r_i_glide_evdw>  (386) 
-25.0239

>  <r_i_glide_ecoul>  (386) 
-6.49742

>  <r_i_glide_erotb>  (386) 
0.21963

>  <r_i_glide_esite>  (386) 
-0.0461477

>  <r_i_glide_emodel>  (386) 
-26.1207

>  <r_i_glide_energy>  (386) 
-31.5213

>  <r_i_glide_einternal>  (386) 
21.5644

>  <r_i_glide_intrahb_reward>  (386) 
-0

>  <i_i_glide_confnum>  (386) 
5

>  <i_i_glide_posenum>  (386) 
21

>  <r_i_glide_eff_state_penalty>  (386) 
0

>  <ligand_id>  (386) 
115

>  <original_smiles>  (386) 
COC1CC2C(CC(O)C3=COCC32C)CC1OC1CC2(O)OCC34C=C(OC(C)=O)C1(C)C3CCC2C4

>  <smiles>  (386) 
[H]OC1([H])C2=C([H])OC([H])([H])C2(C([H])([H])[H])C2([H])C([H])([H])C([H])(OC([H])([H])[H])C([H])(OC3([H])C([H])([H])C4(O[H])OC([H])([H])C56C([H])=C(OC(=O)C([H])([H])[H])C3(C([H])([H])[H])C5([H])C([H])([H])C([H])([H])C4([H])C6([H])[H])C([H])([H])C2([H])C1([H])[H]

$$$$
115:0:1
     RDKit          3D

 80 86  0  0  1  0  0  0  0  0999 V2000
    0.2869   -6.6312    0.5463 C   0  0  0  0  0  0  0  0  0  0  0  0
    0.2364   -6.2598    1.9239 O   0  0  0  0  0  0  0  0  0  0  0  0
    1.4546   -6.4920    2.6347 C   0  0  2  0  0  0  0  0  0  0  0  0
    1.5072   -7.9983    2.9843 C   0  0  0  0  0  0  0  0  0  0  0  0
    2.7815   -8.3851    3.7735 C   0  0  1  0  0  0  0  0  0  0  0  0
    2.8506   -7.5339    5.0676 C   0  0  2  0  0  0  0  0  0  0  0  0
    1.7946   -7.9609    6.1274 C   0  0  0  0  0  0  0  0  0  0  0  0
    1.8769   -9.4665    6.4421 C   0  0  1  0  0  0  0  0  0  0  0  0
    0.8224   -9.8398    7.2984 O   0  0  0  0  0  0  0  0  0  0  0  0
    1.8902  -10.2492    5.1358 C   0  0  0  0  0  0  0  0  0  0  0  0
    1.0316  -11.1442    4.6686 C   0  0  0  0  0  0  0  0  0  0  0  0
    1.3017  -11.5342    3.3874 O   0  0  0  0  0  0  0  0  0  0  0  0
    2.5198  -10.8950    2.9725 C   0  0  0  0  0  0  0  0  0  0  0  0
    2.9162   -9.9036    4.1082 C   0  0  1  0  0  0  0  0  0  0  0  0
    4.3390  -10.2584    4.6038 C   0  0  0  0  0  0  0  0  0  0  0  0
    2.7921   -6.0384    4.7349 C   0  0  0  0  0  0  0  0  0  0  0  0
    1.5265   -5.6291    3.9329 C   0  0  1  0  0  0  0  0  0  0  0  0
    1.6048   -4.2406    3.5903 O   0  0  0  0  0  0  0  0  0  0  0  0
    1.5602   -3.2826    4.6643 C   0  0  2  0  0  0  0  0  0  0  0  0
    0.0772   -2.6827    4.6493 C   0  0  0  0  0  0  0  0  0  0  0  0
   -0.4399   -1.5798    5.7166 C   0  0  1  0  0  0  0  0  0  0  0  0
   -1.8507   -1.6441    5.6739 O   0  0  0  0  0  0  0  0  0  0  0  0
   -0.0543   -1.9703    6.9703 O   0  0  0  0  0  0  0  0  0  0  0  0
    1.3301   -1.7975    7.1730 C   0  0  0  0  0  0  0  0  0  0  0  0
    2.0665   -0.7989    6.1840 C   0  0  1  0  0  0  0  0  0  0  0  0
    3.4695   -1.1607    6.5470 C   0  0  0  0  0  0  0  0  0  0  0  0
    3.7891   -2.1901    5.7111 C   0  0  0  0  0  0  0  0  0  0  0  0
    4.9137   -2.9943    5.6938 O   0  0  0  0  0  0  0  0  0  0  0  0
    5.8123   -3.0328    6.7139 C   0  0  0  0  0  0  0  0  0  0  0  0
    6.8011   -4.1763    6.5455 C   0  0  0  0  0  0  0  0  0  0  0  0
    5.8734   -2.3014    7.7030 O   0  0  0  0  0  0  0  0  0  0  0  0
    2.8258   -2.3230    4.5008 C   0  0  1  0  0  0  0  0  0  0  0  0
    3.6204   -2.5489    3.1989 C   0  0  0  0  0  0  0  0  0  0  0  0
    2.3054   -0.9157    4.6232 C   0  0  1  0  0  0  0  0  0  0  0  0
    1.3757   -0.2998    3.5351 C   0  0  0  0  0  0  0  0  0  0  0  0
    0.0781    0.3070    4.0799 C   0  0  0  0  0  0  0  0  0  0  0  0
   -0.0668   -0.0120    5.5667 C   0  0  2  0  0  0  0  0  0  0  0  0
    1.2294    0.4374    6.3522 C   0  0  0  0  0  0  0  0  0  0  0  0
   -0.6878   -6.4776    0.0903 H   0  0  0  0  0  0  0  0  0  0  0  0
    0.5386   -7.6775    0.3995 H   0  0  0  0  0  0  0  0  0  0  0  0
    1.0006   -6.0244   -0.0141 H   0  0  0  0  0  0  0  0  0  0  0  0
    2.3042   -6.2258    2.0017 H   0  0  0  0  0  0  0  0  0  0  0  0
    0.6067   -8.2620    3.5375 H   0  0  0  0  0  0  0  0  0  0  0  0
    1.4608   -8.5802    2.0715 H   0  0  0  0  0  0  0  0  0  0  0  0
    3.6311   -8.1226    3.1432 H   0  0  0  0  0  0  0  0  0  0  0  0
    3.8245   -7.6801    5.5280 H   0  0  0  0  0  0  0  0  0  0  0  0
    1.9243   -7.3866    7.0439 H   0  0  0  0  0  0  0  0  0  0  0  0
    0.7877   -7.7407    5.7741 H   0  0  0  0  0  0  0  0  0  0  0  0
    2.8086   -9.6754    6.9644 H   0  0  0  0  0  0  0  0  0  0  0  0
    0.9750  -10.7846    7.5074 H   0  0  0  0  0  0  0  0  0  0  0  0
    0.1533  -11.5766    5.1225 H   0  0  0  0  0  0  0  0  0  0  0  0
    3.2719  -11.6762    2.8445 H   0  0  0  0  0  0  0  0  0  0  0  0
    2.4274  -10.4296    1.9948 H   0  0  0  0  0  0  0  0  0  0  0  0
    5.0813  -10.0592    3.8307 H   0  0  0  0  0  0  0  0  0  0  0  0
    4.4126  -11.3176    4.8644 H   0  0  0  0  0  0  0  0  0  0  0  0
    4.6358   -9.7032    5.4941 H   0  0  0  0  0  0  0  0  0  0  0  0
    2.9010   -5.4955    5.6716 H   0  0  0  0  0  0  0  0  0  0  0  0
    3.6706   -5.7724    4.1435 H   0  0  0  0  0  0  0  0  0  0  0  0
    0.6236   -5.7935    4.5226 H   0  0  0  0  0  0  0  0  0  0  0  0
    1.6484   -3.8307    5.5864 H   0  0  0  0  0  0  0  0  0  0  0  0
   -0.2159   -2.3807    3.6499 H   0  0  0  0  0  0  0  0  0  0  0  0
   -0.5399   -3.5580    4.8462 H   0  0  0  0  0  0  0  0  0  0  0  0
   -2.0778   -2.5564    5.6730 H   0  0  0  0  0  0  0  0  0  0  0  0
    1.4288   -1.4074    8.1881 H   0  0  0  0  0  0  0  0  0  0  0  0
    1.7984   -2.7723    7.2908 H   0  0  0  0  0  0  0  0  0  0  0  0
    3.9904   -0.7724    7.4118 H   0  0  0  0  0  0  0  0  0  0  0  0
    6.7576   -4.5827    5.5346 H   0  0  0  0  0  0  0  0  0  0  0  0
    6.5681   -4.9751    7.2505 H   0  0  0  0  0  0  0  0  0  0  0  0
    7.8136   -3.8313    6.7454 H   0  0  0  0  0  0  0  0  0  0  0  0
    2.9872   -2.4510    2.3187 H   0  0  0  0  0  0  0  0  0  0  0  0
    4.0598   -3.5458    3.1795 H   0  0  0  0  0  0  0  0  0  0  0  0
    4.4406   -1.8350    3.0956 H   0  0  0  0  0  0  0  0  0  0  0  0
    3.1654   -0.2603    4.4275 H   0  0  0  0  0  0  0  0  0  0  0  0
    1.9078    0.4929    3.0033 H   0  0  0  0  0  0  0  0  0  0  0  0
    1.1571   -1.0222    2.7499 H   0  0  0  0  0  0  0  0  0  0  0  0
    0.1264    1.3911    3.9705 H   0  0  0  0  0  0  0  0  0  0  0  0
   -0.7900   -0.0191    3.5063 H   0  0  0  0  0  0  0  0  0  0  0  0
   -0.8999    0.5684    5.9645 H   0  0  0  0  0  0  0  0  0  0  0  0
    1.0100    0.6554    7.3963 H   0  0  0  0  0  0  0  0  0  0  0  0
    1.6858    1.3304    5.9242 H   0  0  0  0  0  0  0  0  0  0  0  0
  1  2  1  0
  1 39  1  0
  1 40  1  0
  1 41  1  0
  2  3  1  0
  3 17  1  0
  3  4  1  0
  3 42  1  6
  4  5  1  0
  4 43  1  0
  4 44  1  0
  5 14  1  0
  5  6  1  0
  5 45  1  6
  6  7  1  0
  6 16  1  0
  6 46  1  1
  7  8  1  0
  7 47  1  0
  7 48  1  0
  8  9  1  0
  8 10  1  0
  8 49  1  1
  9 50  1  0
 10 14  1  0
 10 11  2  0
 11 12  1  0
 11 51  1  0
 12 13  1  0
 13 14  1  0
 13 52  1  0
 13 53  1  0
 14 15  1  1
 15 54  1  0
 15 55  1  0
 15 56  1  0
 16 17  1  0
 16 57  1  0
 16 58  1  0
 17 18  1  0
 17 59  1  1
 18 19  1  0
 19 32  1  0
 19 20  1  0
 19 60  1  1
 20 21  1  0
 20 61  1  0
 20 62  1  0
 21 37  1  0
 21 22  1  1
 21 23  1  0
 22 63  1  0
 23 24  1  0
 24 25  1  0
 24 64  1  0
 24 65  1  0
 25 34  1  0
 25 38  1  0
 25 26  1  1
 26 27  2  0
 26 66  1  0
 27 28  1  0
 27 32  1  0
 28 29  1  0
 29 30  1  0
 29 31  2  0
 30 67  1  0
 30 68  1  0
 30 69  1  0
 32 33  1  6
 32 34  1  0
 33 70  1  0
 33 71  1  0
 33 72  1  0
 34 35  1  0
 34 73  1  1
 35 36  1  0
 35 74  1  0
 35 75  1  0
 36 37  1  0
 36 76  1  0
 36 77  1  0
 37 38  1  0
 37 78  1  1
 38 79  1  0
 38 80  1  0
M  END
>  <i_m_ct_stereo_status>  (387) 
1

>  <s_m_source_file>  (387) 
/var/tmp/pbs.5076255.sched01/tmpp4327t_d/123x5hmlc3y.sdf

>  <i_m_source_file_index>  (387) 
36

>  <i_lp_mmshare_version>  (387) 
48012

>  <i_f3d_flags>  (387) 
0

>  <s_epik_input>  (387) 
W0NIM11DKD1PKU9DKD1bQ0hdMSlbQ0BdKFtDSDNdKShbQ0BASF0yW0NAXTEzNClbQ0BASF0oW0NIMl1bQ0BAXShbT0hdKShPW0NIMl0zKVtDQEBIXShbQ0gyXTQpW0NIMl1bQ0gyXTIpT1tDQEBIXShbQ0BASF0oW0NIMl01KU9bQ0gzXSlbQ0gyXVtDQEhdKFtDQEhdNVtDQEBdNjdbQ0gzXSlbQ0gyXVtDQEBIXShbT0hdKUM2PVtDSF1PW0NIMl03

>  <s_epik_cmdline>  (387) 
J2VwaWtfcHl0aG9uJywgJy1waHQnLCAnMi4wJywgJy1waCcsICc3LjAnLCAnLXRuJywgJzgnLCAnLW1hJywgJzIwMCcsICctaW1hZScsICc8aW5maWxlLm1hZT4nLCAnLW9tYWUnLCAnPG91dGZpbGUubWFlPic=

>  <r_lp_tautomer_probability>  (387) 
1

>  <r_epik_Ionization_Penalty>  (387) 
1.06998e-07

>  <r_epik_Ionization_Penalty_Charging>  (387) 
0

>  <r_epik_Ionization_Penalty_Neutral>  (387) 
1.06998e-07

>  <r_epik_State_Penalty>  (387) 
-0

>  <r_epik_Charging_Adjusted_Penalty>  (387) 
0

>  <i_epik_Tot_Q>  (387) 
0

>  <i_epik_Tot_abs_Q>  (387) 
0

>  <s_lp_Force_Field>  (387) 
OPLS3e

>  <r_lp_Energy>  (387) 
131.371

>  <b_lp_Chiralities_Consistent>  (387) 
1

>  <s_lp_Variant>  (387) 
115:0-1

>  <s_i_glide_gridfile>  (387) 
pfpi4k_grid

>  <i_i_glide_lignum>  (387) 
36

>  <i_i_glide_rotatable_bonds>  (387) 
7

>  <r_i_docking_score>  (387) 
-2.68364

>  <r_i_glide_ligand_efficiency>  (387) 
-0.0706221

>  <r_i_glide_ligand_efficiency_sa>  (387) 
-0.23743

>  <r_i_glide_ligand_efficiency_ln>  (387) 
-0.578672

>  <r_i_glide_gscore>  (387) 
-2.68364

>  <r_i_glide_lipo>  (387) 
-0.0728632

>  <r_i_glide_hbond>  (387) 
-0.426079

>  <r_i_glide_metal>  (387) 
-0

>  <r_i_glide_rewards>  (387) 
-0.0241096

>  <r_i_glide_evdw>  (387) 
-21.6935

>  <r_i_glide_ecoul>  (387) 
-8.41636

>  <r_i_glide_erotb>  (387) 
0.21963

>  <r_i_glide_esite>  (387) 
-0.0330866

>  <r_i_glide_emodel>  (387) 
-34.2038

>  <r_i_glide_energy>  (387) 
-30.1099

>  <r_i_glide_einternal>  (387) 
3.32993

>  <r_i_glide_intrahb_reward>  (387) 
-0

>  <i_i_glide_confnum>  (387) 
5

>  <i_i_glide_posenum>  (387) 
10

>  <r_i_glide_eff_state_penalty>  (387) 
0

>  <ligand_id>  (387) 
115

>  <original_smiles>  (387) 
COC1CC2C(CC(O)C3=COCC32C)CC1OC1CC2(O)OCC34C=C(OC(C)=O)C1(C)C3CCC2C4

>  <smiles>  (387) 
[H]OC1([H])C2=C([H])OC([H])([H])C2(C([H])([H])[H])C2([H])C([H])([H])C([H])(OC([H])([H])[H])C([H])(OC3([H])C([H])([H])C4(O[H])OC([H])([H])C56C([H])=C(OC(=O)C([H])([H])[H])C3(C([H])([H])[H])C5([H])C([H])([H])C([H])([H])C4([H])C6([H])[H])C([H])([H])C2([H])C1([H])[H]

$$$$
115:0:2
     RDKit          3D

 80 86  0  0  1  0  0  0  0  0999 V2000
    1.1148   -1.7316    7.2569 C   0  0  0  0  0  0  0  0  0  0  0  0
    0.3185   -1.6308    6.0831 O   0  0  0  0  0  0  0  0  0  0  0  0
    0.8190   -0.6794    5.1473 C   0  0  2  0  0  0  0  0  0  0  0  0
    0.2718    0.7207    5.5070 C   0  0  0  0  0  0  0  0  0  0  0  0
    0.7254    1.8104    4.4895 C   0  0  1  0  0  0  0  0  0  0  0  0
    0.2292    1.4320    3.0727 C   0  0  2  0  0  0  0  0  0  0  0  0
   -1.2895    1.5884    2.8687 C   0  0  0  0  0  0  0  0  0  0  0  0
   -1.7616    3.0027    3.2436 C   0  0  1  0  0  0  0  0  0  0  0  0
   -3.1717    3.0449    3.2508 O   0  0  0  0  0  0  0  0  0  0  0  0
   -1.1847    3.3688    4.6030 C   0  0  0  0  0  0  0  0  0  0  0  0
   -1.8055    3.6409    5.7393 C   0  0  0  0  0  0  0  0  0  0  0  0
   -0.9631    3.7983    6.8013 O   0  0  0  0  0  0  0  0  0  0  0  0
    0.3862    3.6672    6.3211 C   0  0  0  0  0  0  0  0  0  0  0  0
    0.2907    3.2678    4.8212 C   0  0  1  0  0  0  0  0  0  0  0  0
    1.0512    4.3084    3.9655 C   0  0  0  0  0  0  0  0  0  0  0  0
    0.7163    0.0512    2.7230 C   0  0  0  0  0  0  0  0  0  0  0  0
    0.3810   -1.0747    3.7199 C   0  0  1  0  0  0  0  0  0  0  0  0
    0.9284   -2.3401    3.2994 O   0  0  0  0  0  0  0  0  0  0  0  0
    2.3194   -2.4532    2.9947 C   0  0  2  0  0  0  0  0  0  0  0  0
    2.4862   -2.0921    1.4291 C   0  0  0  0  0  0  0  0  0  0  0  0
    3.9087   -1.9961    0.7022 C   0  0  1  0  0  0  0  0  0  0  0  0
    3.6860   -1.2452   -0.4628 O   0  0  0  0  0  0  0  0  0  0  0  0
    4.7499   -1.3007    1.5303 O   0  0  0  0  0  0  0  0  0  0  0  0
    5.1601   -2.0590    2.6525 C   0  0  0  0  0  0  0  0  0  0  0  0
    4.9637   -3.6282    2.5322 C   0  0  1  0  0  0  0  0  0  0  0  0
    5.2013   -3.9755    3.9717 C   0  0  0  0  0  0  0  0  0  0  0  0
    3.9874   -3.8870    4.5604 C   0  0  0  0  0  0  0  0  0  0  0  0
    3.6537   -4.0294    5.9007 O   0  0  0  0  0  0  0  0  0  0  0  0
    4.5808   -4.0242    6.8989 C   0  0  0  0  0  0  0  0  0  0  0  0
    3.9293   -4.1094    8.2685 C   0  0  0  0  0  0  0  0  0  0  0  0
    5.8102   -3.9328    6.7987 O   0  0  0  0  0  0  0  0  0  0  0  0
    2.8079   -3.8745    3.5431 C   0  0  1  0  0  0  0  0  0  0  0  0
    1.6785   -4.8063    4.0278 C   0  0  0  0  0  0  0  0  0  0  0  0
    3.6294   -4.4770    2.4349 C   0  0  1  0  0  0  0  0  0  0  0  0
    2.9678   -4.9336    1.0936 C   0  0  0  0  0  0  0  0  0  0  0  0
    3.6207   -4.3471   -0.1669 C   0  0  0  0  0  0  0  0  0  0  0  0
    4.6795   -3.3112    0.2025 C   0  0  2  0  0  0  0  0  0  0  0  0
    5.7000   -3.9151    1.2494 C   0  0  0  0  0  0  0  0  0  0  0  0
    0.6339   -2.3866    7.9844 H   0  0  0  0  0  0  0  0  0  0  0  0
    1.2659   -0.7641    7.7363 H   0  0  0  0  0  0  0  0  0  0  0  0
    2.0972   -2.1434    7.0245 H   0  0  0  0  0  0  0  0  0  0  0  0
    1.9055   -0.6397    5.2058 H   0  0  0  0  0  0  0  0  0  0  0  0
   -0.8156    0.6789    5.5604 H   0  0  0  0  0  0  0  0  0  0  0  0
    0.6213    0.9633    6.5037 H   0  0  0  0  0  0  0  0  0  0  0  0
    1.8151    1.8038    4.4791 H   0  0  0  0  0  0  0  0  0  0  0  0
    0.6977    2.0880    2.3389 H   0  0  0  0  0  0  0  0  0  0  0  0
   -1.5545    1.3640    1.8334 H   0  0  0  0  0  0  0  0  0  0  0  0
   -1.8022    0.8531    3.4857 H   0  0  0  0  0  0  0  0  0  0  0  0
   -1.3771    3.7063    2.5046 H   0  0  0  0  0  0  0  0  0  0  0  0
   -3.4847    2.2260    2.8788 H   0  0  0  0  0  0  0  0  0  0  0  0
   -2.8647    3.7119    5.9484 H   0  0  0  0  0  0  0  0  0  0  0  0
    0.8767    4.6356    6.4337 H   0  0  0  0  0  0  0  0  0  0  0  0
    0.9768    2.9794    6.9253 H   0  0  0  0  0  0  0  0  0  0  0  0
    2.1240    4.2696    4.1605 H   0  0  0  0  0  0  0  0  0  0  0  0
    0.7075    5.3213    4.1878 H   0  0  0  0  0  0  0  0  0  0  0  0
    0.9139    4.1689    2.8921 H   0  0  0  0  0  0  0  0  0  0  0  0
    0.3656   -0.1986    1.7174 H   0  0  0  0  0  0  0  0  0  0  0  0
    1.8041    0.1638    2.6959 H   0  0  0  0  0  0  0  0  0  0  0  0
   -0.7006   -1.2210    3.7222 H   0  0  0  0  0  0  0  0  0  0  0  0
    2.8006   -1.7020    3.5990 H   0  0  0  0  0  0  0  0  0  0  0  0
    1.8283   -2.6909    0.7989 H   0  0  0  0  0  0  0  0  0  0  0  0
    2.1399   -1.1042    1.2997 H   0  0  0  0  0  0  0  0  0  0  0  0
    2.7543   -1.0525   -0.5007 H   0  0  0  0  0  0  0  0  0  0  0  0
    6.2208   -1.8525    2.7687 H   0  0  0  0  0  0  0  0  0  0  0  0
    4.7889   -1.6048    3.5717 H   0  0  0  0  0  0  0  0  0  0  0  0
    6.1874   -4.0993    4.4035 H   0  0  0  0  0  0  0  0  0  0  0  0
    2.8753   -4.3756    8.1743 H   0  0  0  0  0  0  0  0  0  0  0  0
    4.0009   -3.1503    8.7823 H   0  0  0  0  0  0  0  0  0  0  0  0
    4.4285   -4.8653    8.8721 H   0  0  0  0  0  0  0  0  0  0  0  0
    0.9329   -4.9698    3.2522 H   0  0  0  0  0  0  0  0  0  0  0  0
    1.1667   -4.3919    4.8981 H   0  0  0  0  0  0  0  0  0  0  0  0
    2.0632   -5.7881    4.3227 H   0  0  0  0  0  0  0  0  0  0  0  0
    3.9108   -5.4824    2.7726 H   0  0  0  0  0  0  0  0  0  0  0  0
    3.0040   -6.0218    1.0127 H   0  0  0  0  0  0  0  0  0  0  0  0
    1.9001   -4.7319    1.1068 H   0  0  0  0  0  0  0  0  0  0  0  0
    4.1122   -5.1476   -0.7176 H   0  0  0  0  0  0  0  0  0  0  0  0
    2.8722   -3.9260   -0.8444 H   0  0  0  0  0  0  0  0  0  0  0  0
    5.2491   -3.0387   -0.6904 H   0  0  0  0  0  0  0  0  0  0  0  0
    6.6637   -3.4040    1.2016 H   0  0  0  0  0  0  0  0  0  0  0  0
    5.8790   -4.9796    1.0778 H   0  0  0  0  0  0  0  0  0  0  0  0
  1  2  1  0
  1 39  1  0
  1 40  1  0
  1 41  1  0
  2  3  1  0
  3 17  1  0
  3  4  1  0
  3 42  1  6
  4  5  1  0
  4 43  1  0
  4 44  1  0
  5 14  1  0
  5  6  1  0
  5 45  1  6
  6  7  1  0
  6 16  1  0
  6 46  1  6
  7  8  1  0
  7 47  1  0
  7 48  1  0
  8  9  1  0
  8 10  1  0
  8 49  1  6
  9 50  1  0
 10 14  1  0
 10 11  2  0
 11 12  1  0
 11 51  1  0
 12 13  1  0
 13 14  1  0
 13 52  1  0
 13 53  1  0
 14 15  1  6
 15 54  1  0
 15 55  1  0
 15 56  1  0
 16 17  1  0
 16 57  1  0
 16 58  1  0
 17 18  1  0
 17 59  1  1
 18 19  1  0
 19 32  1  0
 19 20  1  0
 19 60  1  1
 20 21  1  0
 20 61  1  0
 20 62  1  0
 21 37  1  0
 21 22  1  6
 21 23  1  0
 22 63  1  0
 23 24  1  0
 24 25  1  0
 24 64  1  0
 24 65  1  0
 25 34  1  0
 25 38  1  0
 25 26  1  1
 26 27  2  0
 26 66  1  0
 27 28  1  0
 27 32  1  0
 28 29  1  0
 29 30  1  0
 29 31  2  0
 30 67  1  0
 30 68  1  0
 30 69  1  0
 32 33  1  1
 32 34  1  0
 33 70  1  0
 33 71  1  0
 33 72  1  0
 34 35  1  0
 34 73  1  1
 35 36  1  0
 35 74  1  0
 35 75  1  0
 36 37  1  0
 36 76  1  0
 36 77  1  0
 37 38  1  0
 37 78  1  6
 38 79  1  0
 38 80  1  0
M  END
>  <i_m_ct_stereo_status>  (388) 
1

>  <s_m_source_file>  (388) 
/var/tmp/pbs.5076255.sched01/tmpp4327t_d/123x5hmlc3y.sdf

>  <i_m_source_file_index>  (388) 
36

>  <i_lp_mmshare_version>  (388) 
48012

>  <i_f3d_flags>  (388) 
0

>  <s_epik_input>  (388) 
W0NIM11DKD1PKU9DKD1bQ0hdMSlbQ0BdKFtDSDNdKShbQ0BASF0yW0NAXTEzNClbQ0BASF0oW0NIMl1bQ0BAXShbT0hdKShPW0NIMl0zKVtDQEBIXShbQ0gyXTQpW0NIMl1bQ0gyXTIpT1tDQEBIXShbQ0BASF0oW0NIMl01KU9bQ0gzXSlbQ0gyXVtDQEhdKFtDQEhdNVtDQEBdNjdbQ0gzXSlbQ0gyXVtDQEBIXShbT0hdKUM2PVtDSF1PW0NIMl03

>  <s_epik_cmdline>  (388) 
J2VwaWtfcHl0aG9uJywgJy1waHQnLCAnMi4wJywgJy1waCcsICc3LjAnLCAnLXRuJywgJzgnLCAnLW1hJywgJzIwMCcsICctaW1hZScsICc8aW5maWxlLm1hZT4nLCAnLW9tYWUnLCAnPG91dGZpbGUubWFlPic=

>  <r_lp_tautomer_probability>  (388) 
1

>  <r_epik_Ionization_Penalty>  (388) 
1.06998e-07

>  <r_epik_Ionization_Penalty_Charging>  (388) 
0

>  <r_epik_Ionization_Penalty_Neutral>  (388) 
1.06998e-07

>  <r_epik_State_Penalty>  (388) 
-0

>  <r_epik_Charging_Adjusted_Penalty>  (388) 
0

>  <i_epik_Tot_Q>  (388) 
0

>  <i_epik_Tot_abs_Q>  (388) 
0

>  <s_lp_Force_Field>  (388) 
OPLS3e

>  <r_lp_Energy>  (388) 
131.371

>  <b_lp_Chiralities_Consistent>  (388) 
1

>  <s_lp_Variant>  (388) 
115:0-1

>  <s_i_glide_gridfile>  (388) 
pfpi4k_grid

>  <i_i_glide_lignum>  (388) 
36

>  <i_i_glide_rotatable_bonds>  (388) 
7

>  <r_i_docking_score>  (388) 
-2.36304

>  <r_i_glide_ligand_efficiency>  (388) 
-0.0621853

>  <r_i_glide_ligand_efficiency_sa>  (388) 
-0.209065

>  <r_i_glide_ligand_efficiency_ln>  (388) 
-0.509541

>  <r_i_glide_gscore>  (388) 
-2.36304

>  <r_i_glide_lipo>  (388) 
-0.223917

>  <r_i_glide_hbond>  (388) 
-0.299303

>  <r_i_glide_metal>  (388) 
-0

>  <r_i_glide_rewards>  (388) 
0

>  <r_i_glide_evdw>  (388) 
-24.5749

>  <r_i_glide_ecoul>  (388) 
-5.40712

>  <r_i_glide_erotb>  (388) 
0.21963

>  <r_i_glide_esite>  (388) 
-0.0196363

>  <r_i_glide_emodel>  (388) 
-30.3847

>  <r_i_glide_energy>  (388) 
-29.9821

>  <r_i_glide_einternal>  (388) 
6.14013

>  <r_i_glide_intrahb_reward>  (388) 
-0

>  <i_i_glide_confnum>  (388) 
5

>  <i_i_glide_posenum>  (388) 
37

>  <r_i_glide_eff_state_penalty>  (388) 
0

>  <ligand_id>  (388) 
115

>  <original_smiles>  (388) 
COC1CC2C(CC(O)C3=COCC32C)CC1OC1CC2(O)OCC34C=C(OC(C)=O)C1(C)C3CCC2C4

>  <smiles>  (388) 
[H]OC1([H])C2=C([H])OC([H])([H])C2(C([H])([H])[H])C2([H])C([H])([H])C([H])(OC([H])([H])[H])C([H])(OC3([H])C([H])([H])C4(O[H])OC([H])([H])C56C([H])=C(OC(=O)C([H])([H])[H])C3(C([H])([H])[H])C5([H])C([H])([H])C([H])([H])C4([H])C6([H])[H])C([H])([H])C2([H])C1([H])[H]

$$$$
116:0:0
     RDKit          3D

 25 27  0  0  1  0  0  0  0  0999 V2000
   -4.3686   -8.0469   -5.0029 C   0  0  0  0  0  0  0  0  0  0  0  0
   -5.6184   -7.7869   -5.7706 C   0  0  0  0  0  0  0  0  0  0  0  0
   -6.1427   -8.6827   -6.6976 N   0  0  0  0  0  0  0  0  0  0  0  0
   -7.2661   -8.1217   -7.2017 C   0  0  0  0  0  0  0  0  0  0  0  0
   -8.0491   -8.8792   -8.2162 C   0  0  0  0  0  0  0  0  0  0  0  0
   -7.5116   -6.8909   -6.6653 N   0  0  0  0  0  0  0  0  0  0  0  0
   -6.5214   -6.6843   -5.7829 C   0  0  0  0  0  0  0  0  0  0  0  0
   -6.6147   -5.1415   -4.9257 S   0  0  0  0  0  0  0  0  0  0  0  0
   -8.1219   -4.8571   -5.8892 C   0  0  0  0  0  0  0  0  0  0  0  0
   -8.9379   -3.7093   -5.7831 C   0  0  0  0  0  0  0  0  0  0  0  0
  -10.1004   -3.6282   -6.5753 C   0  0  0  0  0  0  0  0  0  0  0  0
  -10.4156   -4.6852   -7.4489 C   0  0  0  0  0  0  0  0  0  0  0  0
   -9.6018   -5.8282   -7.5758 C   0  0  0  0  0  0  0  0  0  0  0  0
   -8.4458   -5.9298   -6.7967 C   0  0  0  0  0  0  0  0  0  0  0  0
   -4.1170   -7.2165   -4.3431 H   0  0  0  0  0  0  0  0  0  0  0  0
   -3.5409   -8.2046   -5.6908 H   0  0  0  0  0  0  0  0  0  0  0  0
   -4.4782   -8.9600   -4.4169 H   0  0  0  0  0  0  0  0  0  0  0  0
   -8.9256   -8.3227   -8.5199 H   0  0  0  0  0  0  0  0  0  0  0  0
   -8.3645   -9.8249   -7.7701 H   0  0  0  0  0  0  0  0  0  0  0  0
   -7.4078   -9.0452   -9.0835 H   0  0  0  0  0  0  0  0  0  0  0  0
   -8.6926   -2.9004   -5.1141 H   0  0  0  0  0  0  0  0  0  0  0  0
  -10.7506   -2.7632   -6.4940 H   0  0  0  0  0  0  0  0  0  0  0  0
  -11.3290   -4.6544   -8.0262 H   0  0  0  0  0  0  0  0  0  0  0  0
   -9.9292   -6.6047   -8.2353 H   0  0  0  0  0  0  0  0  0  0  0  0
   -5.7679   -9.5857   -6.9522 H   0  0  0  0  0  0  0  0  0  0  0  0
  1  2  1  0
  1 15  1  0
  1 16  1  0
  1 17  1  0
  2  7  2  0
  2  3  1  0
  3  4  2  0
  3 25  1  0
  4  5  1  0
  4  6  1  0
  5 18  1  0
  5 19  1  0
  5 20  1  0
  6 14  1  0
  6  7  1  0
  7  8  1  0
  8  9  1  0
  9 14  2  0
  9 10  1  0
 10 11  2  0
 10 21  1  0
 11 12  1  0
 11 22  1  0
 12 13  2  0
 12 23  1  0
 13 14  1  0
 13 24  1  0
M  CHG  1   3   1
M  END
>  <i_m_ct_stereo_status>  (389) 
1

>  <s_m_source_file>  (389) 
/var/tmp/pbs.5076255.sched01/tmpp4327t_d/123x5hmlc3y.sdf

>  <i_m_source_file_index>  (389) 
37

>  <i_lp_mmshare_version>  (389) 
48012

>  <i_f3d_flags>  (389) 
0

>  <s_epik_input>  (389) 
W0NIM11jMW5jKFtDSDNdKWMobjEyKXNjM2MyW2NIXVtjSF1bY0hdW2NIXTM=

>  <s_epik_cmdline>  (389) 
J2VwaWtfcHl0aG9uJywgJy1waHQnLCAnMi4wJywgJy1waCcsICc3LjAnLCAnLXRuJywgJzgnLCAnLW1hJywgJzIwMCcsICctaW1hZScsICc8aW5maWxlLm1hZT4nLCAnLW9tYWUnLCAnPG91dGZpbGUubWFlPic=

>  <r_epik_Ionization_Penalty>  (389) 
0.0111791

>  <r_epik_Ionization_Penalty_Charging>  (389) 
0

>  <r_epik_Ionization_Penalty_Neutral>  (389) 
0.0111791

>  <r_epik_State_Penalty>  (389) 
0.00858953

>  <r_epik_Charging_Adjusted_Penalty>  (389) 
0.00858953

>  <i_epik_Tot_Q>  (389) 
1

>  <i_epik_Tot_abs_Q>  (389) 
1

>  <s_lp_Force_Field>  (389) 
OPLS3e

>  <r_lp_Energy>  (389) 
18.0205

>  <b_lp_Chiralities_Consistent>  (389) 
1

>  <s_lp_Variant>  (389) 
116:0-1

>  <s_i_glide_gridfile>  (389) 
pfpi4k_grid

>  <i_i_glide_lignum>  (389) 
37

>  <i_i_glide_rotatable_bonds>  (389) 
0

>  <r_i_docking_score>  (389) 
-6.40659

>  <r_i_glide_ligand_efficiency>  (389) 
-0.457613

>  <r_i_glide_ligand_efficiency_sa>  (389) 
-1.10291

>  <r_i_glide_ligand_efficiency_ln>  (389) 
-1.76051

>  <r_i_glide_gscore>  (389) 
-6.40659

>  <r_i_glide_lipo>  (389) 
-2.20236

>  <r_i_glide_hbond>  (389) 
0

>  <r_i_glide_metal>  (389) 
-0

>  <r_i_glide_rewards>  (389) 
-2.90295

>  <r_i_glide_evdw>  (389) 
-25.1714

>  <r_i_glide_ecoul>  (389) 
-0.284729

>  <r_i_glide_erotb>  (389) 
0

>  <r_i_glide_esite>  (389) 
0

>  <r_i_glide_emodel>  (389) 
-36.1137

>  <r_i_glide_energy>  (389) 
-25.4561

>  <r_i_glide_einternal>  (389) 
0

>  <r_i_glide_intrahb_reward>  (389) 
-0

>  <i_i_glide_confnum>  (389) 
1

>  <i_i_glide_posenum>  (389) 
2

>  <r_i_glide_eff_state_penalty>  (389) 
0

>  <ligand_id>  (389) 
116

>  <original_smiles>  (389) 
Cc1nc(C)n2c1sc1ccccc12

>  <smiles>  (389) 
[H]c1c([H])c([H])c2c(sc3c(C([H])([H])[H])[n+]([H])c(C([H])([H])[H])n32)c1[H]

$$$$
116:0:1
     RDKit          3D

 25 27  0  0  1  0  0  0  0  0999 V2000
   -2.7453    2.9490    2.8091 C   0  0  0  0  0  0  0  0  0  0  0  0
   -1.6657    3.4522    3.7195 C   0  0  0  0  0  0  0  0  0  0  0  0
   -0.4748    4.0181    3.2767 N   0  0  0  0  0  0  0  0  0  0  0  0
    0.2643    4.3646    4.3545 C   0  0  0  0  0  0  0  0  0  0  0  0
    1.5967    4.9829    4.1090 C   0  0  0  0  0  0  0  0  0  0  0  0
   -0.3918    4.0605    5.5020 N   0  0  0  0  0  0  0  0  0  0  0  0
   -1.5452    3.5013    5.1269 C   0  0  0  0  0  0  0  0  0  0  0  0
   -2.5706    2.9783    6.4643 S   0  0  0  0  0  0  0  0  0  0  0  0
   -1.2720    3.6418    7.5319 C   0  0  0  0  0  0  0  0  0  0  0  0
   -1.3196    3.6355    8.9407 C   0  0  0  0  0  0  0  0  0  0  0  0
   -0.2146    4.1565    9.6387 C   0  0  0  0  0  0  0  0  0  0  0  0
    0.8989    4.6720    8.9385 C   0  0  0  0  0  0  0  0  0  0  0  0
    0.9429    4.6910    7.5261 C   0  0  0  0  0  0  0  0  0  0  0  0
   -0.1429    4.1801    6.8198 C   0  0  0  0  0  0  0  0  0  0  0  0
   -3.6146    2.5604    3.3435 H   0  0  0  0  0  0  0  0  0  0  0  0
   -2.3419    2.1703    2.1698 H   0  0  0  0  0  0  0  0  0  0  0  0
   -3.0686    3.7576    2.1574 H   0  0  0  0  0  0  0  0  0  0  0  0
    2.0656    5.2028    5.0535 H   0  0  0  0  0  0  0  0  0  0  0  0
    1.4396    5.8996    3.5431 H   0  0  0  0  0  0  0  0  0  0  0  0
    2.2001    4.2693    3.5499 H   0  0  0  0  0  0  0  0  0  0  0  0
   -2.1678    3.2403    9.4701 H   0  0  0  0  0  0  0  0  0  0  0  0
   -0.2040    4.1617   10.7233 H   0  0  0  0  0  0  0  0  0  0  0  0
    1.7435    5.0653    9.4721 H   0  0  0  0  0  0  0  0  0  0  0  0
    1.8218    5.0955    7.0450 H   0  0  0  0  0  0  0  0  0  0  0  0
   -0.1862    4.1625    2.3065 H   0  0  0  0  0  0  0  0  0  0  0  0
  1  2  1  0
  1 15  1  0
  1 16  1  0
  1 17  1  0
  2  7  2  0
  2  3  1  0
  3  4  2  0
  3 25  1  0
  4  5  1  0
  4  6  1  0
  5 18  1  0
  5 19  1  0
  5 20  1  0
  6 14  1  0
  6  7  1  0
  7  8  1  0
  8  9  1  0
  9 14  2  0
  9 10  1  0
 10 11  2  0
 10 21  1  0
 11 12  1  0
 11 22  1  0
 12 13  2  0
 12 23  1  0
 13 14  1  0
 13 24  1  0
M  CHG  1   3   1
M  END
>  <i_m_ct_stereo_status>  (390) 
1

>  <s_m_source_file>  (390) 
/var/tmp/pbs.5076255.sched01/tmpp4327t_d/123x5hmlc3y.sdf

>  <i_m_source_file_index>  (390) 
37

>  <i_lp_mmshare_version>  (390) 
48012

>  <i_f3d_flags>  (390) 
0

>  <s_epik_input>  (390) 
W0NIM11jMW5jKFtDSDNdKWMobjEyKXNjM2MyW2NIXVtjSF1bY0hdW2NIXTM=

>  <s_epik_cmdline>  (390) 
J2VwaWtfcHl0aG9uJywgJy1waHQnLCAnMi4wJywgJy1waCcsICc3LjAnLCAnLXRuJywgJzgnLCAnLW1hJywgJzIwMCcsICctaW1hZScsICc8aW5maWxlLm1hZT4nLCAnLW9tYWUnLCAnPG91dGZpbGUubWFlPic=

>  <r_epik_Ionization_Penalty>  (390) 
0.0111791

>  <r_epik_Ionization_Penalty_Charging>  (390) 
0

>  <r_epik_Ionization_Penalty_Neutral>  (390) 
0.0111791

>  <r_epik_State_Penalty>  (390) 
0.00858953

>  <r_epik_Charging_Adjusted_Penalty>  (390) 
0.00858953

>  <i_epik_Tot_Q>  (390) 
1

>  <i_epik_Tot_abs_Q>  (390) 
1

>  <s_lp_Force_Field>  (390) 
OPLS3e

>  <r_lp_Energy>  (390) 
18.0205

>  <b_lp_Chiralities_Consistent>  (390) 
1

>  <s_lp_Variant>  (390) 
116:0-1

>  <s_i_glide_gridfile>  (390) 
pfpi4k_grid

>  <i_i_glide_lignum>  (390) 
37

>  <i_i_glide_rotatable_bonds>  (390) 
0

>  <r_i_docking_score>  (390) 
-4.27021

>  <r_i_glide_ligand_efficiency>  (390) 
-0.305015

>  <r_i_glide_ligand_efficiency_sa>  (390) 
-0.735129

>  <r_i_glide_ligand_efficiency_ln>  (390) 
-1.17344

>  <r_i_glide_gscore>  (390) 
-4.27021

>  <r_i_glide_lipo>  (390) 
-0.162805

>  <r_i_glide_hbond>  (390) 
-0.2

>  <r_i_glide_metal>  (390) 
-0

>  <r_i_glide_rewards>  (390) 
-2.02306

>  <r_i_glide_evdw>  (390) 
-13.4701

>  <r_i_glide_ecoul>  (390) 
-6.99793

>  <r_i_glide_erotb>  (390) 
0

>  <r_i_glide_esite>  (390) 
-0.161149

>  <r_i_glide_emodel>  (390) 
-27.4807

>  <r_i_glide_energy>  (390) 
-20.468

>  <r_i_glide_einternal>  (390) 
0

>  <r_i_glide_intrahb_reward>  (390) 
-0

>  <i_i_glide_confnum>  (390) 
1

>  <i_i_glide_posenum>  (390) 
1

>  <r_i_glide_eff_state_penalty>  (390) 
0

>  <ligand_id>  (390) 
116

>  <original_smiles>  (390) 
Cc1nc(C)n2c1sc1ccccc12

>  <smiles>  (390) 
[H]c1c([H])c([H])c2c(sc3c(C([H])([H])[H])[n+]([H])c(C([H])([H])[H])n32)c1[H]

$$$$
116:0:2
     RDKit          3D

 25 27  0  0  1  0  0  0  0  0999 V2000
    1.4614    0.0517    2.0571 C   0  0  0  0  0  0  0  0  0  0  0  0
    0.3983    0.8092    2.7448 C   0  0  0  0  0  0  0  0  0  0  0  0
   -0.5724    1.5739    2.0821 N   0  0  0  0  0  0  0  0  0  0  0  0
   -1.3549    2.1240    3.0336 C   0  0  0  0  0  0  0  0  0  0  0  0
   -2.4712    3.0106    2.6253 C   0  0  0  0  0  0  0  0  0  0  0  0
   -0.9769    1.7686    4.3019 N   0  0  0  0  0  0  0  0  0  0  0  0
    0.0811    0.9733    4.1237 C   0  0  0  0  0  0  0  0  0  0  0  0
    0.7762    0.3632    5.6232 S   0  0  0  0  0  0  0  0  0  0  0  0
   -0.5104    1.2995    6.4710 C   0  0  0  0  0  0  0  0  0  0  0  0
   -0.6778    1.3538    7.8697 C   0  0  0  0  0  0  0  0  0  0  0  0
   -1.7324    2.1305    8.3937 C   0  0  0  0  0  0  0  0  0  0  0  0
   -2.5826    2.8291    7.5151 C   0  0  0  0  0  0  0  0  0  0  0  0
   -2.4180    2.7868    6.1121 C   0  0  0  0  0  0  0  0  0  0  0  0
   -1.3837    2.0188    5.5707 C   0  0  0  0  0  0  0  0  0  0  0  0
    2.1227   -0.4889    2.7410 H   0  0  0  0  0  0  0  0  0  0  0  0
    2.0436    0.7361    1.4479 H   0  0  0  0  0  0  0  0  0  0  0  0
    0.9947   -0.6576    1.3855 H   0  0  0  0  0  0  0  0  0  0  0  0
   -3.0036    3.3550    3.4967 H   0  0  0  0  0  0  0  0  0  0  0  0
   -3.1411    2.4267    1.9966 H   0  0  0  0  0  0  0  0  0  0  0  0
   -2.0333    3.8517    2.0878 H   0  0  0  0  0  0  0  0  0  0  0  0
   -0.0073    0.8207    8.5316 H   0  0  0  0  0  0  0  0  0  0  0  0
   -1.8920    2.1986    9.4614 H   0  0  0  0  0  0  0  0  0  0  0  0
   -3.3952    3.4232    7.9207 H   0  0  0  0  0  0  0  0  0  0  0  0
   -3.1144    3.3447    5.5064 H   0  0  0  0  0  0  0  0  0  0  0  0
   -0.6466    1.7042    1.0788 H   0  0  0  0  0  0  0  0  0  0  0  0
  1  2  1  0
  1 15  1  0
  1 16  1  0
  1 17  1  0
  2  7  2  0
  2  3  1  0
  3  4  2  0
  3 25  1  0
  4  5  1  0
  4  6  1  0
  5 18  1  0
  5 19  1  0
  5 20  1  0
  6 14  1  0
  6  7  1  0
  7  8  1  0
  8  9  1  0
  9 14  2  0
  9 10  1  0
 10 11  2  0
 10 21  1  0
 11 12  1  0
 11 22  1  0
 12 13  2  0
 12 23  1  0
 13 14  1  0
 13 24  1  0
M  CHG  1   3   1
M  END
>  <i_m_ct_stereo_status>  (391) 
1

>  <s_m_source_file>  (391) 
/var/tmp/pbs.5076255.sched01/tmpp4327t_d/123x5hmlc3y.sdf

>  <i_m_source_file_index>  (391) 
37

>  <i_lp_mmshare_version>  (391) 
48012

>  <i_f3d_flags>  (391) 
0

>  <s_epik_input>  (391) 
W0NIM11jMW5jKFtDSDNdKWMobjEyKXNjM2MyW2NIXVtjSF1bY0hdW2NIXTM=

>  <s_epik_cmdline>  (391) 
J2VwaWtfcHl0aG9uJywgJy1waHQnLCAnMi4wJywgJy1waCcsICc3LjAnLCAnLXRuJywgJzgnLCAnLW1hJywgJzIwMCcsICctaW1hZScsICc8aW5maWxlLm1hZT4nLCAnLW9tYWUnLCAnPG91dGZpbGUubWFlPic=

>  <r_epik_Ionization_Penalty>  (391) 
0.0111791

>  <r_epik_Ionization_Penalty_Charging>  (391) 
0

>  <r_epik_Ionization_Penalty_Neutral>  (391) 
0.0111791

>  <r_epik_State_Penalty>  (391) 
0.00858953

>  <r_epik_Charging_Adjusted_Penalty>  (391) 
0.00858953

>  <i_epik_Tot_Q>  (391) 
1

>  <i_epik_Tot_abs_Q>  (391) 
1

>  <s_lp_Force_Field>  (391) 
OPLS3e

>  <r_lp_Energy>  (391) 
18.0205

>  <b_lp_Chiralities_Consistent>  (391) 
1

>  <s_lp_Variant>  (391) 
116:0-1

>  <s_i_glide_gridfile>  (391) 
pfpi4k_grid

>  <i_i_glide_lignum>  (391) 
37

>  <i_i_glide_rotatable_bonds>  (391) 
0

>  <r_i_docking_score>  (391) 
-3.40125

>  <r_i_glide_ligand_efficiency>  (391) 
-0.242946

>  <r_i_glide_ligand_efficiency_sa>  (391) 
-0.585535

>  <r_i_glide_ligand_efficiency_ln>  (391) 
-0.934651

>  <r_i_glide_gscore>  (391) 
-3.40125

>  <r_i_glide_lipo>  (391) 
-0.239564

>  <r_i_glide_hbond>  (391) 
-0.0262621

>  <r_i_glide_metal>  (391) 
-0

>  <r_i_glide_rewards>  (391) 
-2.02306

>  <r_i_glide_evdw>  (391) 
-15.7984

>  <r_i_glide_ecoul>  (391) 
-1.26387

>  <r_i_glide_erotb>  (391) 
0

>  <r_i_glide_esite>  (391) 
-0.13286

>  <r_i_glide_emodel>  (391) 
-22.6469

>  <r_i_glide_energy>  (391) 
-17.0623

>  <r_i_glide_einternal>  (391) 
0

>  <r_i_glide_intrahb_reward>  (391) 
-0

>  <i_i_glide_confnum>  (391) 
1

>  <i_i_glide_posenum>  (391) 
3

>  <r_i_glide_eff_state_penalty>  (391) 
0

>  <ligand_id>  (391) 
116

>  <original_smiles>  (391) 
Cc1nc(C)n2c1sc1ccccc12

>  <smiles>  (391) 
[H]c1c([H])c([H])c2c(sc3c(C([H])([H])[H])[n+]([H])c(C([H])([H])[H])n32)c1[H]

$$$$
116:1:0
     RDKit          3D

 24 26  0  0  1  0  0  0  0  0999 V2000
   -4.0027  -10.8753   -6.1182 C   0  0  0  0  0  0  0  0  0  0  0  0
   -5.1089   -9.9586   -6.5325 C   0  0  0  0  0  0  0  0  0  0  0  0
   -6.0384  -10.3152   -7.5375 N   0  0  0  0  0  0  0  0  0  0  0  0
   -6.9231   -9.2955   -7.6982 C   0  0  0  0  0  0  0  0  0  0  0  0
   -8.0530   -9.3187   -8.6620 C   0  0  0  0  0  0  0  0  0  0  0  0
   -6.6145   -8.2931   -6.8600 N   0  0  0  0  0  0  0  0  0  0  0  0
   -5.5344   -8.6586   -6.1538 C   0  0  0  0  0  0  0  0  0  0  0  0
   -4.9664   -7.4485   -4.9942 S   0  0  0  0  0  0  0  0  0  0  0  0
   -6.3452   -6.4349   -5.5523 C   0  0  0  0  0  0  0  0  0  0  0  0
   -6.6377   -5.1469   -5.0649 C   0  0  0  0  0  0  0  0  0  0  0  0
   -7.7623   -4.5179   -5.6562 C   0  0  0  0  0  0  0  0  0  0  0  0
   -8.5219   -5.1526   -6.6761 C   0  0  0  0  0  0  0  0  0  0  0  0
   -8.2045   -6.4437   -7.1579 C   0  0  0  0  0  0  0  0  0  0  0  0
   -7.1003   -7.1002   -6.5850 C   0  0  0  0  0  0  0  0  0  0  0  0
   -3.3568  -10.4604   -5.3416 H   0  0  0  0  0  0  0  0  0  0  0  0
   -3.3851  -11.1186   -6.9782 H   0  0  0  0  0  0  0  0  0  0  0  0
   -4.4074  -11.8162   -5.7554 H   0  0  0  0  0  0  0  0  0  0  0  0
   -8.0424  -10.2656   -9.1933 H   0  0  0  0  0  0  0  0  0  0  0  0
   -7.9478   -8.5147   -9.3909 H   0  0  0  0  0  0  0  0  0  0  0  0
   -9.0047   -9.2311   -8.1363 H   0  0  0  0  0  0  0  0  0  0  0  0
   -6.0491   -4.6595   -4.3000 H   0  0  0  0  0  0  0  0  0  0  0  0
   -8.0475   -3.5281   -5.3282 H   0  0  0  0  0  0  0  0  0  0  0  0
   -9.3742   -4.6407   -7.0945 H   0  0  0  0  0  0  0  0  0  0  0  0
   -8.8020   -6.9096   -7.9224 H   0  0  0  0  0  0  0  0  0  0  0  0
  1  2  1  0
  1 15  1  0
  1 16  1  0
  1 17  1  0
  2  7  2  0
  2  3  1  0
  3  4  2  0
  4  5  1  0
  4  6  1  0
  5 18  1  0
  5 19  1  0
  5 20  1  0
  6 14  1  0
  6  7  1  0
  7  8  1  0
  8  9  1  0
  9 14  2  0
  9 10  1  0
 10 11  2  0
 10 21  1  0
 11 12  1  0
 11 22  1  0
 12 13  2  0
 12 23  1  0
 13 14  1  0
 13 24  1  0
M  END
>  <i_m_ct_stereo_status>  (392) 
1

>  <s_m_source_file>  (392) 
/var/tmp/pbs.5076255.sched01/tmpp4327t_d/123x5hmlc3y.sdf

>  <i_m_source_file_index>  (392) 
38

>  <i_lp_mmshare_version>  (392) 
48012

>  <i_f3d_flags>  (392) 
0

>  <s_epik_input>  (392) 
W0NIM11jMW5jKFtDSDNdKWMobjEyKXNjM2MyW2NIXVtjSF1bY0hdW2NIXTM=

>  <s_epik_cmdline>  (392) 
J2VwaWtfcHl0aG9uJywgJy1waHQnLCAnMi4wJywgJy1waCcsICc3LjAnLCAnLXRuJywgJzgnLCAnLW1hJywgJzIwMCcsICctaW1hZScsICc8aW5maWxlLm1hZT4nLCAnLW9tYWUnLCAnPG91dGZpbGUubWFlPic=

>  <r_epik_Ionization_Penalty>  (392) 
2.35792

>  <r_epik_Ionization_Penalty_Charging>  (392) 
2.35792

>  <r_epik_Ionization_Penalty_Neutral>  (392) 
3.4534e-13

>  <r_epik_State_Penalty>  (392) 
2.51275

>  <r_epik_Charging_Adjusted_Penalty>  (392) 
4.87066

>  <i_epik_Tot_Q>  (392) 
0

>  <i_epik_Tot_abs_Q>  (392) 
0

>  <s_lp_Force_Field>  (392) 
OPLS3e

>  <r_lp_Energy>  (392) 
14.26

>  <b_lp_Chiralities_Consistent>  (392) 
1

>  <s_lp_Variant>  (392) 
116:0-2

>  <s_i_glide_gridfile>  (392) 
pfpi4k_grid

>  <i_i_glide_lignum>  (392) 
38

>  <i_i_glide_rotatable_bonds>  (392) 
0

>  <r_i_docking_score>  (392) 
-6.95209

>  <r_i_glide_ligand_efficiency>  (392) 
-0.496578

>  <r_i_glide_ligand_efficiency_sa>  (392) 
-1.19682

>  <r_i_glide_ligand_efficiency_ln>  (392) 
-1.91041

>  <r_i_glide_gscore>  (392) 
-6.95209

>  <r_i_glide_lipo>  (392) 
-2.42977

>  <r_i_glide_hbond>  (392) 
0

>  <r_i_glide_metal>  (392) 
-0

>  <r_i_glide_rewards>  (392) 
-3.07359

>  <r_i_glide_evdw>  (392) 
-26.0174

>  <r_i_glide_ecoul>  (392) 
-0.985771

>  <r_i_glide_erotb>  (392) 
0

>  <r_i_glide_esite>  (392) 
0

>  <r_i_glide_emodel>  (392) 
-38.6745

>  <r_i_glide_energy>  (392) 
-27.0031

>  <r_i_glide_einternal>  (392) 
0

>  <r_i_glide_intrahb_reward>  (392) 
-0

>  <i_i_glide_confnum>  (392) 
1

>  <i_i_glide_posenum>  (392) 
13

>  <r_i_glide_eff_state_penalty>  (392) 
0

>  <ligand_id>  (392) 
116

>  <original_smiles>  (392) 
Cc1nc(C)n2c1sc1ccccc12

>  <smiles>  (392) 
[H]c1c([H])c([H])c2c(sc3c(C([H])([H])[H])nc(C([H])([H])[H])n32)c1[H]

$$$$
116:1:1
     RDKit          3D

 24 26  0  0  1  0  0  0  0  0999 V2000
   -6.7285  -10.9310   -8.7323 C   0  0  0  0  0  0  0  0  0  0  0  0
   -6.3664   -9.9018   -7.7114 C   0  0  0  0  0  0  0  0  0  0  0  0
   -5.2896  -10.0927   -6.8161 N   0  0  0  0  0  0  0  0  0  0  0  0
   -5.2008   -9.0101   -5.9994 C   0  0  0  0  0  0  0  0  0  0  0  0
   -4.1837   -8.8605   -4.9276 C   0  0  0  0  0  0  0  0  0  0  0  0
   -6.1560   -8.1231   -6.3225 N   0  0  0  0  0  0  0  0  0  0  0  0
   -6.8680   -8.6256   -7.3427 C   0  0  0  0  0  0  0  0  0  0  0  0
   -8.1830   -7.5850   -7.9179 S   0  0  0  0  0  0  0  0  0  0  0  0
   -7.6618   -6.4324   -6.6322 C   0  0  0  0  0  0  0  0  0  0  0  0
   -8.2717   -5.1896   -6.3809 C   0  0  0  0  0  0  0  0  0  0  0  0
   -7.6984   -4.4349   -5.3248 C   0  0  0  0  0  0  0  0  0  0  0  0
   -6.5840   -4.9112   -4.5846 C   0  0  0  0  0  0  0  0  0  0  0  0
   -5.9853   -6.1652   -4.8482 C   0  0  0  0  0  0  0  0  0  0  0  0
   -6.5339   -6.9413   -5.8869 C   0  0  0  0  0  0  0  0  0  0  0  0
   -7.5742  -10.6405   -9.3577 H   0  0  0  0  0  0  0  0  0  0  0  0
   -6.9627  -11.8754   -8.2474 H   0  0  0  0  0  0  0  0  0  0  0  0
   -5.8793  -11.1274   -9.3794 H   0  0  0  0  0  0  0  0  0  0  0  0
   -3.5524   -9.7460   -4.9169 H   0  0  0  0  0  0  0  0  0  0  0  0
   -4.6564   -8.7701   -3.9491 H   0  0  0  0  0  0  0  0  0  0  0  0
   -3.5472   -7.9968   -5.1203 H   0  0  0  0  0  0  0  0  0  0  0  0
   -9.1199   -4.8266   -6.9428 H   0  0  0  0  0  0  0  0  0  0  0  0
   -8.1175   -3.4701   -5.0773 H   0  0  0  0  0  0  0  0  0  0  0  0
   -6.1848   -4.2959   -3.7926 H   0  0  0  0  0  0  0  0  0  0  0  0
   -5.1420   -6.5096   -4.2750 H   0  0  0  0  0  0  0  0  0  0  0  0
  1  2  1  0
  1 15  1  0
  1 16  1  0
  1 17  1  0
  2  7  2  0
  2  3  1  0
  3  4  2  0
  4  5  1  0
  4  6  1  0
  5 18  1  0
  5 19  1  0
  5 20  1  0
  6 14  1  0
  6  7  1  0
  7  8  1  0
  8  9  1  0
  9 14  2  0
  9 10  1  0
 10 11  2  0
 10 21  1  0
 11 12  1  0
 11 22  1  0
 12 13  2  0
 12 23  1  0
 13 14  1  0
 13 24  1  0
M  END
>  <i_m_ct_stereo_status>  (393) 
1

>  <s_m_source_file>  (393) 
/var/tmp/pbs.5076255.sched01/tmpp4327t_d/123x5hmlc3y.sdf

>  <i_m_source_file_index>  (393) 
38

>  <i_lp_mmshare_version>  (393) 
48012

>  <i_f3d_flags>  (393) 
0

>  <s_epik_input>  (393) 
W0NIM11jMW5jKFtDSDNdKWMobjEyKXNjM2MyW2NIXVtjSF1bY0hdW2NIXTM=

>  <s_epik_cmdline>  (393) 
J2VwaWtfcHl0aG9uJywgJy1waHQnLCAnMi4wJywgJy1waCcsICc3LjAnLCAnLXRuJywgJzgnLCAnLW1hJywgJzIwMCcsICctaW1hZScsICc8aW5maWxlLm1hZT4nLCAnLW9tYWUnLCAnPG91dGZpbGUubWFlPic=

>  <r_epik_Ionization_Penalty>  (393) 
2.35792

>  <r_epik_Ionization_Penalty_Charging>  (393) 
2.35792

>  <r_epik_Ionization_Penalty_Neutral>  (393) 
3.4534e-13

>  <r_epik_State_Penalty>  (393) 
2.51275

>  <r_epik_Charging_Adjusted_Penalty>  (393) 
4.87066

>  <i_epik_Tot_Q>  (393) 
0

>  <i_epik_Tot_abs_Q>  (393) 
0

>  <s_lp_Force_Field>  (393) 
OPLS3e

>  <r_lp_Energy>  (393) 
14.26

>  <b_lp_Chiralities_Consistent>  (393) 
1

>  <s_lp_Variant>  (393) 
116:0-2

>  <s_i_glide_gridfile>  (393) 
pfpi4k_grid

>  <i_i_glide_lignum>  (393) 
38

>  <i_i_glide_rotatable_bonds>  (393) 
0

>  <r_i_docking_score>  (393) 
-6.59849

>  <r_i_glide_ligand_efficiency>  (393) 
-0.471321

>  <r_i_glide_ligand_efficiency_sa>  (393) 
-1.13595

>  <r_i_glide_ligand_efficiency_ln>  (393) 
-1.81324

>  <r_i_glide_gscore>  (393) 
-6.59849

>  <r_i_glide_lipo>  (393) 
-2.26621

>  <r_i_glide_hbond>  (393) 
0

>  <r_i_glide_metal>  (393) 
-0

>  <r_i_glide_rewards>  (393) 
-3.01391

>  <r_i_glide_evdw>  (393) 
-26.6348

>  <r_i_glide_ecoul>  (393) 
0.0891065

>  <r_i_glide_erotb>  (393) 
0

>  <r_i_glide_esite>  (393) 
0

>  <r_i_glide_emodel>  (393) 
-37.6135

>  <r_i_glide_energy>  (393) 
-26.5456

>  <r_i_glide_einternal>  (393) 
0

>  <r_i_glide_intrahb_reward>  (393) 
-0

>  <i_i_glide_confnum>  (393) 
2

>  <i_i_glide_posenum>  (393) 
35

>  <r_i_glide_eff_state_penalty>  (393) 
0

>  <ligand_id>  (393) 
116

>  <original_smiles>  (393) 
Cc1nc(C)n2c1sc1ccccc12

>  <smiles>  (393) 
[H]c1c([H])c([H])c2c(sc3c(C([H])([H])[H])nc(C([H])([H])[H])n32)c1[H]

$$$$
116:1:2
     RDKit          3D

 24 26  0  0  1  0  0  0  0  0999 V2000
   -2.9121    3.1816    8.2838 C   0  0  0  0  0  0  0  0  0  0  0  0
   -1.9882    2.2801    7.5348 C   0  0  0  0  0  0  0  0  0  0  0  0
   -1.2326    1.2834    8.1895 N   0  0  0  0  0  0  0  0  0  0  0  0
   -0.4680    0.6351    7.2734 C   0  0  0  0  0  0  0  0  0  0  0  0
    0.4619   -0.4740    7.6076 C   0  0  0  0  0  0  0  0  0  0  0  0
   -0.7014    1.1421    6.0558 N   0  0  0  0  0  0  0  0  0  0  0  0
   -1.6024    2.1300    6.1763 C   0  0  0  0  0  0  0  0  0  0  0  0
   -2.0241    2.9419    4.6564 S   0  0  0  0  0  0  0  0  0  0  0  0
   -0.8593    1.8041    3.8794 C   0  0  0  0  0  0  0  0  0  0  0  0
   -0.5634    1.7835    2.5064 C   0  0  0  0  0  0  0  0  0  0  0  0
    0.3810    0.8118    2.0959 C   0  0  0  0  0  0  0  0  0  0  0  0
    0.9894   -0.0752    3.0257 C   0  0  0  0  0  0  0  0  0  0  0  0
    0.6872   -0.0391    4.4076 C   0  0  0  0  0  0  0  0  0  0  0  0
   -0.2532    0.9168    4.8394 C   0  0  0  0  0  0  0  0  0  0  0  0
   -3.3750    3.9244    7.6343 H   0  0  0  0  0  0  0  0  0  0  0  0
   -2.3783    3.7259    9.0583 H   0  0  0  0  0  0  0  0  0  0  0  0
   -3.6810    2.6005    8.7909 H   0  0  0  0  0  0  0  0  0  0  0  0
    0.4178   -0.6525    8.6797 H   0  0  0  0  0  0  0  0  0  0  0  0
    1.4887   -0.2088    7.3464 H   0  0  0  0  0  0  0  0  0  0  0  0
    0.1630   -1.3881    7.0911 H   0  0  0  0  0  0  0  0  0  0  0  0
   -0.9980    2.4745    1.8017 H   0  0  0  0  0  0  0  0  0  0  0  0
    0.6399    0.7516    1.0475 H   0  0  0  0  0  0  0  0  0  0  0  0
    1.7054   -0.7979    2.6668 H   0  0  0  0  0  0  0  0  0  0  0  0
    1.1620   -0.7181    5.0957 H   0  0  0  0  0  0  0  0  0  0  0  0
  1  2  1  0
  1 15  1  0
  1 16  1  0
  1 17  1  0
  2  7  2  0
  2  3  1  0
  3  4  2  0
  4  5  1  0
  4  6  1  0
  5 18  1  0
  5 19  1  0
  5 20  1  0
  6 14  1  0
  6  7  1  0
  7  8  1  0
  8  9  1  0
  9 14  2  0
  9 10  1  0
 10 11  2  0
 10 21  1  0
 11 12  1  0
 11 22  1  0
 12 13  2  0
 12 23  1  0
 13 14  1  0
 13 24  1  0
M  END
>  <i_m_ct_stereo_status>  (394) 
1

>  <s_m_source_file>  (394) 
/var/tmp/pbs.5076255.sched01/tmpp4327t_d/123x5hmlc3y.sdf

>  <i_m_source_file_index>  (394) 
38

>  <i_lp_mmshare_version>  (394) 
48012

>  <i_f3d_flags>  (394) 
0

>  <s_epik_input>  (394) 
W0NIM11jMW5jKFtDSDNdKWMobjEyKXNjM2MyW2NIXVtjSF1bY0hdW2NIXTM=

>  <s_epik_cmdline>  (394) 
J2VwaWtfcHl0aG9uJywgJy1waHQnLCAnMi4wJywgJy1waCcsICc3LjAnLCAnLXRuJywgJzgnLCAnLW1hJywgJzIwMCcsICctaW1hZScsICc8aW5maWxlLm1hZT4nLCAnLW9tYWUnLCAnPG91dGZpbGUubWFlPic=

>  <r_epik_Ionization_Penalty>  (394) 
2.35792

>  <r_epik_Ionization_Penalty_Charging>  (394) 
2.35792

>  <r_epik_Ionization_Penalty_Neutral>  (394) 
3.4534e-13

>  <r_epik_State_Penalty>  (394) 
2.51275

>  <r_epik_Charging_Adjusted_Penalty>  (394) 
4.87066

>  <i_epik_Tot_Q>  (394) 
0

>  <i_epik_Tot_abs_Q>  (394) 
0

>  <s_lp_Force_Field>  (394) 
OPLS3e

>  <r_lp_Energy>  (394) 
14.26

>  <b_lp_Chiralities_Consistent>  (394) 
1

>  <s_lp_Variant>  (394) 
116:0-2

>  <s_i_glide_gridfile>  (394) 
pfpi4k_grid

>  <i_i_glide_lignum>  (394) 
38

>  <i_i_glide_rotatable_bonds>  (394) 
0

>  <r_i_docking_score>  (394) 
-3.57191

>  <r_i_glide_ligand_efficiency>  (394) 
-0.255136

>  <r_i_glide_ligand_efficiency_sa>  (394) 
-0.614914

>  <r_i_glide_ligand_efficiency_ln>  (394) 
-0.981547

>  <r_i_glide_gscore>  (394) 
-3.57191

>  <r_i_glide_lipo>  (394) 
-0.116376

>  <r_i_glide_hbond>  (394) 
-0.0200927

>  <r_i_glide_metal>  (394) 
-0

>  <r_i_glide_rewards>  (394) 
-2.02993

>  <r_i_glide_evdw>  (394) 
-15.5975

>  <r_i_glide_ecoul>  (394) 
-3.7059

>  <r_i_glide_erotb>  (394) 
0

>  <r_i_glide_esite>  (394) 
-0.0697414

>  <r_i_glide_emodel>  (394) 
-25.2369

>  <r_i_glide_energy>  (394) 
-19.3034

>  <r_i_glide_einternal>  (394) 
0

>  <r_i_glide_intrahb_reward>  (394) 
-0

>  <i_i_glide_confnum>  (394) 
2

>  <i_i_glide_posenum>  (394) 
15

>  <r_i_glide_eff_state_penalty>  (394) 
0

>  <ligand_id>  (394) 
116

>  <original_smiles>  (394) 
Cc1nc(C)n2c1sc1ccccc12

>  <smiles>  (394) 
[H]c1c([H])c([H])c2c(sc3c(C([H])([H])[H])nc(C([H])([H])[H])n32)c1[H]

$$$$
