0:1:0
     RDKit          3D

 61 68  0  0  1  0  0  0  0  0999 V2000
    7.0807   -7.4378    1.8747 O   0  0  0  0  0  0  0  0  0  0  0  0
    6.5570   -8.0174    2.8323 C   0  0  0  0  0  0  0  0  0  0  0  0
    7.1785   -9.2351    3.4158 C   0  0  0  0  0  0  0  0  0  0  0  0
    8.1088   -9.2090    4.4089 C   0  0  0  0  0  0  0  0  0  0  0  0
    8.6479   -8.0788    5.2282 C   0  0  0  0  0  0  0  0  0  0  0  0
    7.8964   -6.9375    5.5134 C   0  0  0  0  0  0  0  0  0  0  0  0
    8.3011   -5.8518    6.2649 C   0  0  0  0  0  0  0  0  0  0  0  0
    9.6181   -5.9172    6.7285 C   0  0  0  0  0  0  0  0  0  0  0  0
   10.3589   -7.0744    6.4005 C   0  0  0  0  0  0  0  0  0  0  0  0
    9.9300   -8.1482    5.6896 N   0  0  0  0  0  0  0  0  0  0  0  0
    6.7605  -10.5378    2.7224 C   0  0  0  0  0  0  0  0  0  0  0  0
    5.3270  -10.9622    3.0895 C   0  0  0  0  0  0  0  0  0  0  0  0
    4.1778   -9.9753    2.7009 C   0  0  1  0  0  0  0  0  0  0  0  0
    4.2713   -9.8052    1.2807 O   0  0  0  0  0  0  0  0  0  0  0  0
    2.7595  -10.4936    3.0793 C   0  0  1  0  0  0  0  0  0  0  0  0
    2.6983  -10.9067    4.5941 C   0  0  0  0  0  0  0  0  0  0  0  0
    3.3180   -9.9111    5.5627 C   0  0  0  0  0  0  0  0  0  0  0  0
    3.3350   -9.8923    6.9685 C   0  0  0  0  0  0  0  0  0  0  0  0
    4.0665   -8.9074    7.6792 C   0  0  0  0  0  0  0  0  0  0  0  0
    4.7901   -7.9000    6.9791 C   0  0  0  0  0  0  0  0  0  0  0  0
    5.4975   -6.9727    7.6895 O   0  0  0  0  0  0  0  0  0  0  0  0
    4.6955   -7.8510    5.5525 C   0  0  0  0  0  0  0  0  0  0  0  0
    4.0089   -8.8651    4.9399 C   0  0  0  0  0  0  0  0  0  0  0  0
    4.0454   -8.6227    3.4504 C   0  0  1  0  0  0  0  0  0  0  0  0
    5.1554   -7.5298    3.3511 C   0  0  1  0  0  0  0  0  0  0  0  0
    5.0738   -6.9186    4.6392 O   0  0  0  0  0  0  0  0  0  0  0  0
    2.7278   -8.0291    2.8853 C   0  0  2  0  0  0  0  0  0  0  0  0
    1.8391   -7.0265    3.6257 C   0  0  0  0  0  0  0  0  0  0  0  0
    0.6432   -7.5867    3.8743 C   0  0  0  0  0  0  0  0  0  0  0  0
   -0.7354   -7.0745    4.2378 C   0  0  0  0  0  0  0  0  0  0  0  0
   -1.6567   -7.9226    3.3267 C   0  0  0  0  0  0  0  0  0  0  0  0
   -0.7946   -9.0716    2.7490 C   0  0  0  0  0  0  0  0  0  0  0  0
    0.5415   -9.0156    3.4973 C   0  0  1  0  0  0  0  0  0  0  0  0
    1.8520   -9.2785    2.7163 C   0  0  2  0  0  0  0  0  0  0  0  0
    8.4316  -10.1726    4.7503 H   0  0  0  0  0  0  0  0  0  0  0  0
    6.9944   -6.8620    5.1197 H   0  0  0  0  0  0  0  0  0  0  0  0
    7.6048   -5.0237    6.4288 H   0  0  0  0  0  0  0  0  0  0  0  0
    9.9777   -5.0864    7.2888 H   0  0  0  0  0  0  0  0  0  0  0  0
   11.3563   -7.1250    6.7452 H   0  0  0  0  0  0  0  0  0  0  0  0
    6.8991  -10.4869    1.6344 H   0  0  0  0  0  0  0  0  0  0  0  0
    7.4364  -11.3321    3.0416 H   0  0  0  0  0  0  0  0  0  0  0  0
    5.1204  -11.9263    2.6186 H   0  0  0  0  0  0  0  0  0  0  0  0
    5.3241  -11.1575    4.1580 H   0  0  0  0  0  0  0  0  0  0  0  0
    4.2246  -10.6975    0.9148 H   0  0  0  0  0  0  0  0  0  0  0  0
    2.4461  -11.3536    2.4969 H   0  0  0  0  0  0  0  0  0  0  0  0
    1.7104  -11.1536    4.9508 H   0  0  0  0  0  0  0  0  0  0  0  0
    3.2558  -11.8212    4.7381 H   0  0  0  0  0  0  0  0  0  0  0  0
    2.7970  -10.6619    7.4838 H   0  0  0  0  0  0  0  0  0  0  0  0
    4.0519   -8.9276    8.7629 H   0  0  0  0  0  0  0  0  0  0  0  0
    5.9930   -6.3837    7.1403 H   0  0  0  0  0  0  0  0  0  0  0  0
    4.9222   -6.6572    2.7451 H   0  0  0  0  0  0  0  0  0  0  0  0
    2.9666   -7.5965    1.9039 H   0  0  0  0  0  0  0  0  0  0  0  0
    2.0786   -5.9716    3.6865 H   0  0  0  0  0  0  0  0  0  0  0  0
   -0.9204   -7.3570    5.2717 H   0  0  0  0  0  0  0  0  0  0  0  0
   -0.9115   -6.0039    4.1426 H   0  0  0  0  0  0  0  0  0  0  0  0
   -2.5150   -8.3235    3.8731 H   0  0  0  0  0  0  0  0  0  0  0  0
   -2.0536   -7.3184    2.5094 H   0  0  0  0  0  0  0  0  0  0  0  0
   -1.2656  -10.0489    2.8636 H   0  0  0  0  0  0  0  0  0  0  0  0
   -0.6359   -8.9122    1.6821 H   0  0  0  0  0  0  0  0  0  0  0  0
    0.4547   -9.5429    4.4399 H   0  0  0  0  0  0  0  0  0  0  0  0
    1.6142   -9.3267    1.6616 H   0  0  0  0  0  0  0  0  0  0  0  0
  1  2  2  0
  2 25  1  0
  2  3  1  0
  3  4  2  3
  3 11  1  0
  4  5  1  0
  4 35  1  0
  5 10  1  0
  5  6  2  0
  6  7  1  0
  6 36  1  0
  7  8  2  0
  7 37  1  0
  8  9  1  0
  8 38  1  0
  9 10  2  0
  9 39  1  0
 11 12  1  0
 11 40  1  0
 11 41  1  0
 12 13  1  0
 12 42  1  0
 12 43  1  0
 13 24  1  0
 13 14  1  6
 13 15  1  0
 14 44  1  0
 15 34  1  0
 15 16  1  0
 15 45  1  6
 16 17  1  0
 16 46  1  0
 16 47  1  0
 17 23  2  0
 17 18  1  0
 18 19  2  0
 18 48  1  0
 19 20  1  0
 19 49  1  0
 20 21  1  0
 20 22  2  0
 21 50  1  0
 22 26  1  0
 22 23  1  0
 24 23  1  1
 24 25  1  0
 24 27  1  0
 25 26  1  0
 25 51  1  6
 27 34  1  0
 27 28  1  0
 27 52  1  6
 28 29  2  0
 28 53  1  0
 29 33  1  0
 29 30  1  0
 30 31  1  0
 30 54  1  0
 30 55  1  0
 31 32  1  0
 31 56  1  0
 31 57  1  0
 32 33  1  0
 32 58  1  0
 32 59  1  0
 33 34  1  0
 33 60  1  1
 34 61  1  6
M  END
>  <i_m_ct_stereo_status>  (1) 
1

>  <s_m_source_file>  (1) 
/var/tmp/pbs.5076255.sched01/tmpgr0kyu9k/0plolsrat.sdf

>  <i_m_source_file_index>  (1) 
2

>  <i_lp_mmshare_version>  (1) 
48012

>  <i_f3d_flags>  (1) 
0

>  <s_epik_input>  (1) 
bjFbY0hdW2NIXVtjSF1bY0hdYzFcW0NIXT1DKFtDSDJdW0NIMl0yKVxDKD1PKVtDQEBIXTNPYyhjKFtPSF0pW2NIXVtjSF00KWM1YzRbQ0gyXVtDQEhdKFtDQF0yKFtDQF0zNTYpW09IXSlbQ0BASF03W0NASF02W0NIXT1DOFtDQEhdN1tDSDJdW0NIMl1bQ0gyXTg=

>  <s_epik_cmdline>  (1) 
J2VwaWtfcHl0aG9uJywgJy1waHQnLCAnMi4wJywgJy1waCcsICc3LjAnLCAnLXRuJywgJzgnLCAnLW1hJywgJzIwMCcsICctaW1hZScsICc8aW5maWxlLm1hZT4nLCAnLW9tYWUnLCAnPG91dGZpbGUubWFlPic=

>  <r_lp_tautomer_probability>  (1) 
1

>  <r_epik_Ionization_Penalty>  (1) 
0.0178539

>  <r_epik_Ionization_Penalty_Charging>  (1) 
0

>  <r_epik_Ionization_Penalty_Neutral>  (1) 
0.0178539

>  <r_epik_State_Penalty>  (1) 
0.0123996

>  <r_epik_Charging_Adjusted_Penalty>  (1) 
0.0123996

>  <i_epik_Tot_Q>  (1) 
0

>  <i_epik_Tot_abs_Q>  (1) 
0

>  <s_lp_Force_Field>  (1) 
OPLS3e

>  <r_lp_Energy>  (1) 
73.837

>  <b_lp_Chiralities_Consistent>  (1) 
1

>  <s_lp_Variant>  (1) 
0:0-2

>  <s_i_glide_gridfile>  (1) 
pfpi4k_grid

>  <i_i_glide_lignum>  (1) 
2

>  <i_i_glide_rotatable_bonds>  (1) 
3

>  <r_i_docking_score>  (1) 
-1.76068

>  <r_i_glide_ligand_efficiency>  (1) 
-0.0517846

>  <r_i_glide_ligand_efficiency_sa>  (1) 
-0.167762

>  <r_i_glide_ligand_efficiency_ln>  (1) 
-0.388983

>  <r_i_glide_gscore>  (1) 
-1.76068

>  <r_i_glide_lipo>  (1) 
-0.149169

>  <r_i_glide_hbond>  (1) 
-0.16

>  <r_i_glide_metal>  (1) 
-0

>  <r_i_glide_rewards>  (1) 
-0.355743

>  <r_i_glide_evdw>  (1) 
-24.1511

>  <r_i_glide_ecoul>  (1) 
-6.59552

>  <r_i_glide_erotb>  (1) 
0

>  <r_i_glide_esite>  (1) 
0

>  <r_i_glide_emodel>  (1) 
-27.5316

>  <r_i_glide_energy>  (1) 
-30.7467

>  <r_i_glide_einternal>  (1) 
2.49274

>  <r_i_glide_intrahb_reward>  (1) 
-0

>  <i_i_glide_confnum>  (1) 
1

>  <i_i_glide_posenum>  (1) 
40

>  <r_i_glide_eff_state_penalty>  (1) 
0

>  <ligand_id>  (1) 
0

>  <original_smiles>  (1) 
O=C1C(=Cc2ccccn2)CCC2(O)C3Cc4ccc(O)c5c4C2(C1O5)C1C=C2CCCC2C31

>  <smiles>  (1) 
[H]Oc1c([H])c([H])c2c3c1OC1([H])C(=O)C(=C([H])c4nc([H])c([H])c([H])c4[H])C([H])([H])C([H])([H])C4(O[H])C([H])(C2([H])[H])C2([H])C5([H])C(=C([H])C2([H])C314)C([H])([H])C([H])([H])C5([H])[H]

$$$$
0:1:1
     RDKit          3D

 61 68  0  0  1  0  0  0  0  0999 V2000
    4.1934   -1.9283    4.0634 O   0  0  0  0  0  0  0  0  0  0  0  0
    3.3675   -2.3603    4.8666 C   0  0  0  0  0  0  0  0  0  0  0  0
    3.4204   -2.0745    6.3207 C   0  0  0  0  0  0  0  0  0  0  0  0
    2.7420   -1.0705    6.9192 C   0  0  0  0  0  0  0  0  0  0  0  0
    1.9016   -0.0168    6.3226 C   0  0  0  0  0  0  0  0  0  0  0  0
    2.1565    0.5562    5.0565 C   0  0  0  0  0  0  0  0  0  0  0  0
    1.2922    1.5404    4.5471 C   0  0  0  0  0  0  0  0  0  0  0  0
    0.1977    1.9385    5.3324 C   0  0  0  0  0  0  0  0  0  0  0  0
    0.0243    1.3248    6.5915 C   0  0  0  0  0  0  0  0  0  0  0  0
    0.8386    0.3629    7.0703 N   0  0  0  0  0  0  0  0  0  0  0  0
    4.3108   -3.0442    7.0705 C   0  0  0  0  0  0  0  0  0  0  0  0
    3.6332   -4.4121    7.2608 C   0  0  0  0  0  0  0  0  0  0  0  0
    3.2769   -5.1957    5.9577 C   0  0  1  0  0  0  0  0  0  0  0  0
    4.4919   -5.3721    5.2545 O   0  0  0  0  0  0  0  0  0  0  0  0
    2.6974   -6.6070    6.2282 C   0  0  1  0  0  0  0  0  0  0  0  0
    1.4702   -6.4961    7.1796 C   0  0  0  0  0  0  0  0  0  0  0  0
    0.4541   -5.3991    6.8401 C   0  0  0  0  0  0  0  0  0  0  0  0
   -0.7683   -5.0770    7.4672 C   0  0  0  0  0  0  0  0  0  0  0  0
   -1.4767   -3.9087    7.0625 C   0  0  0  0  0  0  0  0  0  0  0  0
   -0.9511   -3.0311    6.0892 C   0  0  0  0  0  0  0  0  0  0  0  0
   -1.6365   -1.8974    5.7363 O   0  0  0  0  0  0  0  0  0  0  0  0
    0.2843   -3.3234    5.4548 C   0  0  0  0  0  0  0  0  0  0  0  0
    0.8820   -4.5192    5.8414 C   0  0  0  0  0  0  0  0  0  0  0  0
    2.1389   -4.6739    5.0245 C   0  0  1  0  0  0  0  0  0  0  0  0
    2.2454   -3.2616    4.3358 C   0  0  1  0  0  0  0  0  0  0  0  0
    0.9788   -2.5955    4.5288 O   0  0  0  0  0  0  0  0  0  0  0  0
    2.0509   -5.8385    3.9821 C   0  0  2  0  0  0  0  0  0  0  0  0
    0.7440   -6.1480    3.2818 C   0  0  0  0  0  0  0  0  0  0  0  0
    0.3225   -7.3775    3.5848 C   0  0  0  0  0  0  0  0  0  0  0  0
   -0.5923   -8.3644    2.9093 C   0  0  0  0  0  0  0  0  0  0  0  0
    0.1805   -9.6984    3.0443 C   0  0  0  0  0  0  0  0  0  0  0  0
    1.3591   -9.4489    4.0195 C   0  0  0  0  0  0  0  0  0  0  0  0
    1.1310   -8.0602    4.6185 C   0  0  1  0  0  0  0  0  0  0  0  0
    2.3499   -7.1205    4.8060 C   0  0  2  0  0  0  0  0  0  0  0  0
    2.8695   -0.9723    7.9901 H   0  0  0  0  0  0  0  0  0  0  0  0
    3.0141    0.2932    4.4641 H   0  0  0  0  0  0  0  0  0  0  0  0
    1.4698    1.9874    3.5779 H   0  0  0  0  0  0  0  0  0  0  0  0
   -0.4863    2.7059    4.9897 H   0  0  0  0  0  0  0  0  0  0  0  0
   -0.8047    1.6122    7.2255 H   0  0  0  0  0  0  0  0  0  0  0  0
    5.2749   -3.1326    6.5590 H   0  0  0  0  0  0  0  0  0  0  0  0
    4.5370   -2.6231    8.0484 H   0  0  0  0  0  0  0  0  0  0  0  0
    4.3174   -5.0236    7.8509 H   0  0  0  0  0  0  0  0  0  0  0  0
    2.7627   -4.2527    7.8958 H   0  0  0  0  0  0  0  0  0  0  0  0
    5.0956   -5.8394    5.8166 H   0  0  0  0  0  0  0  0  0  0  0  0
    3.4229   -7.2797    6.6836 H   0  0  0  0  0  0  0  0  0  0  0  0
    0.9536   -7.4343    7.3033 H   0  0  0  0  0  0  0  0  0  0  0  0
    1.8304   -6.2692    8.1756 H   0  0  0  0  0  0  0  0  0  0  0  0
   -1.1648   -5.7080    8.2434 H   0  0  0  0  0  0  0  0  0  0  0  0
   -2.4461   -3.7285    7.5115 H   0  0  0  0  0  0  0  0  0  0  0  0
   -1.1712   -1.4024    5.0796 H   0  0  0  0  0  0  0  0  0  0  0  0
    2.3968   -3.3884    3.2584 H   0  0  0  0  0  0  0  0  0  0  0  0
    2.8369   -5.7195    3.2173 H   0  0  0  0  0  0  0  0  0  0  0  0
    0.4050   -5.5849    2.4271 H   0  0  0  0  0  0  0  0  0  0  0  0
   -1.5078   -8.4405    3.4957 H   0  0  0  0  0  0  0  0  0  0  0  0
   -0.8659   -8.1295    1.8765 H   0  0  0  0  0  0  0  0  0  0  0  0
   -0.4658  -10.4964    3.4148 H   0  0  0  0  0  0  0  0  0  0  0  0
    0.5655  -10.0463    2.0825 H   0  0  0  0  0  0  0  0  0  0  0  0
    1.4185  -10.2063    4.8003 H   0  0  0  0  0  0  0  0  0  0  0  0
    2.2927   -9.4848    3.4596 H   0  0  0  0  0  0  0  0  0  0  0  0
    0.4381   -8.1297    5.4498 H   0  0  0  0  0  0  0  0  0  0  0  0
    3.2367   -7.5822    4.3687 H   0  0  0  0  0  0  0  0  0  0  0  0
  1  2  2  0
  2 25  1  0
  2  3  1  0
  3  4  2  3
  3 11  1  0
  4  5  1  0
  4 35  1  0
  5 10  1  0
  5  6  2  0
  6  7  1  0
  6 36  1  0
  7  8  2  0
  7 37  1  0
  8  9  1  0
  8 38  1  0
  9 10  2  0
  9 39  1  0
 11 12  1  0
 11 40  1  0
 11 41  1  0
 12 13  1  0
 12 42  1  0
 12 43  1  0
 13 24  1  0
 13 14  1  6
 13 15  1  0
 14 44  1  0
 15 34  1  0
 15 16  1  0
 15 45  1  1
 16 17  1  0
 16 46  1  0
 16 47  1  0
 17 23  2  0
 17 18  1  0
 18 19  2  0
 18 48  1  0
 19 20  1  0
 19 49  1  0
 20 21  1  0
 20 22  2  0
 21 50  1  0
 22 26  1  0
 22 23  1  0
 24 23  1  1
 24 25  1  0
 24 27  1  0
 25 26  1  0
 25 51  1  6
 27 34  1  0
 27 28  1  0
 27 52  1  6
 28 29  2  0
 28 53  1  0
 29 33  1  0
 29 30  1  0
 30 31  1  0
 30 54  1  0
 30 55  1  0
 31 32  1  0
 31 56  1  0
 31 57  1  0
 32 33  1  0
 32 58  1  0
 32 59  1  0
 33 34  1  0
 33 60  1  1
 34 61  1  6
M  END
>  <i_m_ct_stereo_status>  (2) 
1

>  <s_m_source_file>  (2) 
/var/tmp/pbs.5076255.sched01/tmpgr0kyu9k/0plolsrat.sdf

>  <i_m_source_file_index>  (2) 
2

>  <i_lp_mmshare_version>  (2) 
48012

>  <i_f3d_flags>  (2) 
0

>  <s_epik_input>  (2) 
bjFbY0hdW2NIXVtjSF1bY0hdYzFcW0NIXT1DKFtDSDJdW0NIMl0yKVxDKD1PKVtDQEBIXTNPYyhjKFtPSF0pW2NIXVtjSF00KWM1YzRbQ0gyXVtDQEhdKFtDQF0yKFtDQF0zNTYpW09IXSlbQ0BASF03W0NASF02W0NIXT1DOFtDQEhdN1tDSDJdW0NIMl1bQ0gyXTg=

>  <s_epik_cmdline>  (2) 
J2VwaWtfcHl0aG9uJywgJy1waHQnLCAnMi4wJywgJy1waCcsICc3LjAnLCAnLXRuJywgJzgnLCAnLW1hJywgJzIwMCcsICctaW1hZScsICc8aW5maWxlLm1hZT4nLCAnLW9tYWUnLCAnPG91dGZpbGUubWFlPic=

>  <r_lp_tautomer_probability>  (2) 
1

>  <r_epik_Ionization_Penalty>  (2) 
0.0178539

>  <r_epik_Ionization_Penalty_Charging>  (2) 
0

>  <r_epik_Ionization_Penalty_Neutral>  (2) 
0.0178539

>  <r_epik_State_Penalty>  (2) 
0.0123996

>  <r_epik_Charging_Adjusted_Penalty>  (2) 
0.0123996

>  <i_epik_Tot_Q>  (2) 
0

>  <i_epik_Tot_abs_Q>  (2) 
0

>  <s_lp_Force_Field>  (2) 
OPLS3e

>  <r_lp_Energy>  (2) 
73.837

>  <b_lp_Chiralities_Consistent>  (2) 
1

>  <s_lp_Variant>  (2) 
0:0-2

>  <s_i_glide_gridfile>  (2) 
pfpi4k_grid

>  <i_i_glide_lignum>  (2) 
2

>  <i_i_glide_rotatable_bonds>  (2) 
3

>  <r_i_docking_score>  (2) 
-1.6868

>  <r_i_glide_ligand_efficiency>  (2) 
-0.0496116

>  <r_i_glide_ligand_efficiency_sa>  (2) 
-0.160722

>  <r_i_glide_ligand_efficiency_ln>  (2) 
-0.37266

>  <r_i_glide_gscore>  (2) 
-1.6868

>  <r_i_glide_lipo>  (2) 
-0.0622611

>  <r_i_glide_hbond>  (2) 
0

>  <r_i_glide_metal>  (2) 
-0

>  <r_i_glide_rewards>  (2) 
-0.316848

>  <r_i_glide_evdw>  (2) 
-21.6587

>  <r_i_glide_ecoul>  (2) 
-1.49834

>  <r_i_glide_erotb>  (2) 
0

>  <r_i_glide_esite>  (2) 
0

>  <r_i_glide_emodel>  (2) 
-25.2997

>  <r_i_glide_energy>  (2) 
-23.157

>  <r_i_glide_einternal>  (2) 
2.25638

>  <r_i_glide_intrahb_reward>  (2) 
-0

>  <i_i_glide_confnum>  (2) 
2

>  <i_i_glide_posenum>  (2) 
19

>  <r_i_glide_eff_state_penalty>  (2) 
0

>  <ligand_id>  (2) 
0

>  <original_smiles>  (2) 
O=C1C(=Cc2ccccn2)CCC2(O)C3Cc4ccc(O)c5c4C2(C1O5)C1C=C2CCCC2C31

>  <smiles>  (2) 
[H]Oc1c([H])c([H])c2c3c1OC1([H])C(=O)C(=C([H])c4nc([H])c([H])c([H])c4[H])C([H])([H])C([H])([H])C4(O[H])C([H])(C2([H])[H])C2([H])C5([H])C(=C([H])C2([H])C314)C([H])([H])C([H])([H])C5([H])[H]

$$$$
0:1:2
     RDKit          3D

 61 68  0  0  1  0  0  0  0  0999 V2000
    4.4860   -2.4461    2.5160 O   0  0  0  0  0  0  0  0  0  0  0  0
    3.8326   -2.8043    3.4948 C   0  0  0  0  0  0  0  0  0  0  0  0
    4.1814   -2.3910    4.8681 C   0  0  0  0  0  0  0  0  0  0  0  0
    3.6806   -1.2908    5.4708 C   0  0  0  0  0  0  0  0  0  0  0  0
    2.6974   -0.2802    5.0206 C   0  0  0  0  0  0  0  0  0  0  0  0
    2.3500    0.7566    5.9124 C   0  0  0  0  0  0  0  0  0  0  0  0
    1.3915    1.7115    5.5236 C   0  0  0  0  0  0  0  0  0  0  0  0
    0.7956    1.5965    4.2541 C   0  0  0  0  0  0  0  0  0  0  0  0
    1.2121    0.5431    3.4198 C   0  0  0  0  0  0  0  0  0  0  0  0
    2.1418   -0.3581    3.7922 N   0  0  0  0  0  0  0  0  0  0  0  0
    5.1946   -3.3020    5.5396 C   0  0  0  0  0  0  0  0  0  0  0  0
    4.5719   -4.6363    5.9926 C   0  0  0  0  0  0  0  0  0  0  0  0
    3.9732   -5.5402    4.8679 C   0  0  1  0  0  0  0  0  0  0  0  0
    5.0317   -5.7913    3.9628 O   0  0  0  0  0  0  0  0  0  0  0  0
    3.4428   -6.9056    5.3831 C   0  0  1  0  0  0  0  0  0  0  0  0
    2.4285   -6.6704    6.5471 C   0  0  0  0  0  0  0  0  0  0  0  0
    1.3716   -5.5917    6.2960 C   0  0  0  0  0  0  0  0  0  0  0  0
    0.2899   -5.1948    7.1119 C   0  0  0  0  0  0  0  0  0  0  0  0
   -0.4882   -4.0594    6.7531 C   0  0  0  0  0  0  0  0  0  0  0  0
   -0.1634   -3.2971    5.6034 C   0  0  0  0  0  0  0  0  0  0  0  0
   -0.8894   -2.1793    5.3027 O   0  0  0  0  0  0  0  0  0  0  0  0
    0.9087   -3.6883    4.7701 C   0  0  0  0  0  0  0  0  0  0  0  0
    1.5999   -4.8238    5.1447 C   0  0  0  0  0  0  0  0  0  0  0  0
    2.6798   -5.0786    4.1274 C   0  0  1  0  0  0  0  0  0  0  0  0
    2.6386   -3.7542    3.2855 C   0  0  1  0  0  0  0  0  0  0  0  0
    1.4050   -3.0834    3.6486 O   0  0  0  0  0  0  0  0  0  0  0  0
    2.3732   -6.3286    3.2433 C   0  0  2  0  0  0  0  0  0  0  0  0
    0.9592   -6.6876    2.8240 C   0  0  0  0  0  0  0  0  0  0  0  0
    0.6059   -7.8711    3.3271 C   0  0  0  0  0  0  0  0  0  0  0  0
   -0.4337   -8.8955    2.9604 C   0  0  0  0  0  0  0  0  0  0  0  0
    0.3574  -10.2192    3.0666 C   0  0  0  0  0  0  0  0  0  0  0  0
    1.7032   -9.9009    3.7621 C   0  0  0  0  0  0  0  0  0  0  0  0
    1.5914   -8.4593    4.2569 C   0  0  1  0  0  0  0  0  0  0  0  0
    2.8240   -7.5348    4.1081 C   0  0  2  0  0  0  0  0  0  0  0  0
    4.0382   -1.1164    6.4727 H   0  0  0  0  0  0  0  0  0  0  0  0
    2.8127    0.8172    6.8858 H   0  0  0  0  0  0  0  0  0  0  0  0
    1.1157    2.5157    6.1920 H   0  0  0  0  0  0  0  0  0  0  0  0
    0.0482    2.3016    3.9121 H   0  0  0  0  0  0  0  0  0  0  0  0
    0.7751    0.4040    2.4436 H   0  0  0  0  0  0  0  0  0  0  0  0
    6.0396   -3.4680    4.8720 H   0  0  0  0  0  0  0  0  0  0  0  0
    5.6110   -2.7971    6.4113 H   0  0  0  0  0  0  0  0  0  0  0  0
    5.3587   -5.2015    6.4968 H   0  0  0  0  0  0  0  0  0  0  0  0
    3.8434   -4.4008    6.7688 H   0  0  0  0  0  0  0  0  0  0  0  0
    5.7286   -6.2165    4.4358 H   0  0  0  0  0  0  0  0  0  0  0  0
    4.2505   -7.5373    5.7501 H   0  0  0  0  0  0  0  0  0  0  0  0
    1.9457   -7.5906    6.8568 H   0  0  0  0  0  0  0  0  0  0  0  0
    2.9840   -6.3554    7.4277 H   0  0  0  0  0  0  0  0  0  0  0  0
    0.0574   -5.7332    8.0182 H   0  0  0  0  0  0  0  0  0  0  0  0
   -1.3279   -3.7735    7.3615 H   0  0  0  0  0  0  0  0  0  0  0  0
   -0.5478   -1.7341    4.5407 H   0  0  0  0  0  0  0  0  0  0  0  0
    2.5939   -3.9911    2.2167 H   0  0  0  0  0  0  0  0  0  0  0  0
    2.9900   -6.3022    2.3383 H   0  0  0  0  0  0  0  0  0  0  0  0
    0.4422   -6.1972    2.0228 H   0  0  0  0  0  0  0  0  0  0  0  0
   -1.2173   -8.8946    3.7176 H   0  0  0  0  0  0  0  0  0  0  0  0
   -0.8961   -8.7471    1.9839 H   0  0  0  0  0  0  0  0  0  0  0  0
   -0.1908  -10.9654    3.6379 H   0  0  0  0  0  0  0  0  0  0  0  0
    0.5399  -10.6539    2.0828 H   0  0  0  0  0  0  0  0  0  0  0  0
    1.9106  -10.5850    4.5838 H   0  0  0  0  0  0  0  0  0  0  0  0
    2.5096  -10.0153    3.0362 H   0  0  0  0  0  0  0  0  0  0  0  0
    1.0828   -8.4387    5.2183 H   0  0  0  0  0  0  0  0  0  0  0  0
    3.6123   -8.0543    3.5556 H   0  0  0  0  0  0  0  0  0  0  0  0
  1  2  2  0
  2 25  1  0
  2  3  1  0
  3  4  2  3
  3 11  1  0
  4  5  1  0
  4 35  1  0
  5 10  1  0
  5  6  2  0
  6  7  1  0
  6 36  1  0
  7  8  2  0
  7 37  1  0
  8  9  1  0
  8 38  1  0
  9 10  2  0
  9 39  1  0
 11 12  1  0
 11 40  1  0
 11 41  1  0
 12 13  1  0
 12 42  1  0
 12 43  1  0
 13 24  1  0
 13 14  1  6
 13 15  1  0
 14 44  1  0
 15 34  1  0
 15 16  1  0
 15 45  1  1
 16 17  1  0
 16 46  1  0
 16 47  1  0
 17 23  2  0
 17 18  1  0
 18 19  2  0
 18 48  1  0
 19 20  1  0
 19 49  1  0
 20 21  1  0
 20 22  2  0
 21 50  1  0
 22 26  1  0
 22 23  1  0
 24 23  1  1
 24 25  1  0
 24 27  1  0
 25 26  1  0
 25 51  1  6
 27 34  1  0
 27 28  1  0
 27 52  1  6
 28 29  2  0
 28 53  1  0
 29 33  1  0
 29 30  1  0
 30 31  1  0
 30 54  1  0
 30 55  1  0
 31 32  1  0
 31 56  1  0
 31 57  1  0
 32 33  1  0
 32 58  1  0
 32 59  1  0
 33 34  1  0
 33 60  1  1
 34 61  1  6
M  END
>  <i_m_ct_stereo_status>  (3) 
1

>  <s_m_source_file>  (3) 
/var/tmp/pbs.5076255.sched01/tmpgr0kyu9k/0plolsrat.sdf

>  <i_m_source_file_index>  (3) 
2

>  <i_lp_mmshare_version>  (3) 
48012

>  <i_f3d_flags>  (3) 
0

>  <s_epik_input>  (3) 
bjFbY0hdW2NIXVtjSF1bY0hdYzFcW0NIXT1DKFtDSDJdW0NIMl0yKVxDKD1PKVtDQEBIXTNPYyhjKFtPSF0pW2NIXVtjSF00KWM1YzRbQ0gyXVtDQEhdKFtDQF0yKFtDQF0zNTYpW09IXSlbQ0BASF03W0NASF02W0NIXT1DOFtDQEhdN1tDSDJdW0NIMl1bQ0gyXTg=

>  <s_epik_cmdline>  (3) 
J2VwaWtfcHl0aG9uJywgJy1waHQnLCAnMi4wJywgJy1waCcsICc3LjAnLCAnLXRuJywgJzgnLCAnLW1hJywgJzIwMCcsICctaW1hZScsICc8aW5maWxlLm1hZT4nLCAnLW9tYWUnLCAnPG91dGZpbGUubWFlPic=

>  <r_lp_tautomer_probability>  (3) 
1

>  <r_epik_Ionization_Penalty>  (3) 
0.0178539

>  <r_epik_Ionization_Penalty_Charging>  (3) 
0

>  <r_epik_Ionization_Penalty_Neutral>  (3) 
0.0178539

>  <r_epik_State_Penalty>  (3) 
0.0123996

>  <r_epik_Charging_Adjusted_Penalty>  (3) 
0.0123996

>  <i_epik_Tot_Q>  (3) 
0

>  <i_epik_Tot_abs_Q>  (3) 
0

>  <s_lp_Force_Field>  (3) 
OPLS3e

>  <r_lp_Energy>  (3) 
73.837

>  <b_lp_Chiralities_Consistent>  (3) 
1

>  <s_lp_Variant>  (3) 
0:0-2

>  <s_i_glide_gridfile>  (3) 
pfpi4k_grid

>  <i_i_glide_lignum>  (3) 
2

>  <i_i_glide_rotatable_bonds>  (3) 
3

>  <r_i_docking_score>  (3) 
-1.49334

>  <r_i_glide_ligand_efficiency>  (3) 
-0.0439218

>  <r_i_glide_ligand_efficiency_sa>  (3) 
-0.14229

>  <r_i_glide_ligand_efficiency_ln>  (3) 
-0.329921

>  <r_i_glide_gscore>  (3) 
-1.49334

>  <r_i_glide_lipo>  (3) 
-0.0410351

>  <r_i_glide_hbond>  (3) 
0

>  <r_i_glide_metal>  (3) 
-0

>  <r_i_glide_rewards>  (3) 
-0.316848

>  <r_i_glide_evdw>  (3) 
-22.9532

>  <r_i_glide_ecoul>  (3) 
0.0813547

>  <r_i_glide_erotb>  (3) 
0

>  <r_i_glide_esite>  (3) 
0

>  <r_i_glide_emodel>  (3) 
-25.6655

>  <r_i_glide_energy>  (3) 
-22.8719

>  <r_i_glide_einternal>  (3) 
0.0408188

>  <r_i_glide_intrahb_reward>  (3) 
-0

>  <i_i_glide_confnum>  (3) 
1

>  <i_i_glide_posenum>  (3) 
3

>  <r_i_glide_eff_state_penalty>  (3) 
0

>  <ligand_id>  (3) 
0

>  <original_smiles>  (3) 
O=C1C(=Cc2ccccn2)CCC2(O)C3Cc4ccc(O)c5c4C2(C1O5)C1C=C2CCCC2C31

>  <smiles>  (3) 
[H]Oc1c([H])c([H])c2c3c1OC1([H])C(=O)C(=C([H])c4nc([H])c([H])c([H])c4[H])C([H])([H])C([H])([H])C4(O[H])C([H])(C2([H])[H])C2([H])C5([H])C(=C([H])C2([H])C314)C([H])([H])C([H])([H])C5([H])[H]

$$$$
0:3:0
     RDKit          3D

 62 69  0  0  1  0  0  0  0  0999 V2000
    3.6313   -1.4107   -1.0371 O   0  0  0  0  0  0  0  0  0  0  0  0
    3.7363   -1.7638    0.1299 C   0  0  0  0  0  0  0  0  0  0  0  0
    4.6488   -1.0515    1.0364 C   0  0  0  0  0  0  0  0  0  0  0  0
    4.2812   -0.0013    1.8167 C   0  0  0  0  0  0  0  0  0  0  0  0
    2.9607    0.6680    2.0373 C   0  0  0  0  0  0  0  0  0  0  0  0
    1.6830    0.1777    1.6539 C   0  0  0  0  0  0  0  0  0  0  0  0
    0.5075    0.8635    1.9943 C   0  0  0  0  0  0  0  0  0  0  0  0
    0.5945    2.1309    2.5839 C   0  0  0  0  0  0  0  0  0  0  0  0
    1.8792    2.6525    2.8388 C   0  0  0  0  0  0  0  0  0  0  0  0
    2.9547    1.8954    2.5940 N   0  0  0  0  0  0  0  0  0  0  0  0
    6.0741   -1.5853    0.9835 C   0  0  0  0  0  0  0  0  0  0  0  0
    6.1937   -2.9459    1.6932 C   0  0  0  0  0  0  0  0  0  0  0  0
    5.3577   -4.1347    1.1391 C   0  0  1  0  0  0  0  0  0  0  0  0
    5.7582   -4.2521   -0.2256 O   0  0  0  0  0  0  0  0  0  0  0  0
    5.5874   -5.4824    1.8775 C   0  0  1  0  0  0  0  0  0  0  0  0
    5.3720   -5.2859    3.4216 C   0  0  0  0  0  0  0  0  0  0  0  0
    4.1317   -4.5078    3.8425 C   0  0  0  0  0  0  0  0  0  0  0  0
    3.6128   -4.2480    5.1334 C   0  0  0  0  0  0  0  0  0  0  0  0
    2.4951   -3.3842    5.2773 C   0  0  0  0  0  0  0  0  0  0  0  0
    1.8951   -2.7774    4.1337 C   0  0  0  0  0  0  0  0  0  0  0  0
    0.8527   -1.9159    4.3035 O   0  0  0  0  0  0  0  0  0  0  0  0
    2.3658   -3.0714    2.8236 C   0  0  0  0  0  0  0  0  0  0  0  0
    3.4446   -3.9309    2.7544 C   0  0  0  0  0  0  0  0  0  0  0  0
    3.8063   -4.1033    1.3023 C   0  0  1  0  0  0  0  0  0  0  0  0
    2.9485   -2.9942    0.6240 C   0  0  1  0  0  0  0  0  0  0  0  0
    1.9683   -2.6236    1.6194 O   0  0  0  0  0  0  0  0  0  0  0  0
    3.3839   -5.4799    0.7334 C   0  0  2  0  0  0  0  0  0  0  0  0
    2.1239   -6.1962    1.2041 C   0  0  0  0  0  0  0  0  0  0  0  0
    2.4386   -7.3337    1.8312 C   0  0  0  0  0  0  0  0  0  0  0  0
    1.7032   -8.6172    2.1205 C   0  0  0  0  0  0  0  0  0  0  0  0
    2.7491   -9.7026    1.7626 C   0  0  0  0  0  0  0  0  0  0  0  0
    4.1043   -8.9903    1.5444 C   0  0  0  0  0  0  0  0  0  0  0  0
    3.8877   -7.5474    2.0081 C   0  0  1  0  0  0  0  0  0  0  0  0
    4.5385   -6.4067    1.1829 C   0  0  2  0  0  0  0  0  0  0  0  0
    5.0920    0.3817    2.4410 H   0  0  0  0  0  0  0  0  0  0  0  0
    1.5294   -0.6440    0.9908 H   0  0  0  0  0  0  0  0  0  0  0  0
   -0.4265    0.4109    1.7104 H   0  0  0  0  0  0  0  0  0  0  0  0
   -0.3040    2.7214    2.7220 H   0  0  0  0  0  0  0  0  0  0  0  0
    2.0814    3.6648    3.1836 H   0  0  0  0  0  0  0  0  0  0  0  0
    6.4409   -1.6409   -0.0461 H   0  0  0  0  0  0  0  0  0  0  0  0
    6.7464   -0.8820    1.4813 H   0  0  0  0  0  0  0  0  0  0  0  0
    7.2375   -3.2483    1.6572 H   0  0  0  0  0  0  0  0  0  0  0  0
    5.9770   -2.7637    2.7446 H   0  0  0  0  0  0  0  0  0  0  0  0
    5.2732   -4.9577   -0.6313 H   0  0  0  0  0  0  0  0  0  0  0  0
    6.5884   -5.8730    1.7069 H   0  0  0  0  0  0  0  0  0  0  0  0
    5.3956   -6.2346    3.9633 H   0  0  0  0  0  0  0  0  0  0  0  0
    6.2254   -4.7276    3.8224 H   0  0  0  0  0  0  0  0  0  0  0  0
    4.0772   -4.7145    6.0158 H   0  0  0  0  0  0  0  0  0  0  0  0
    2.0833   -3.1959    6.2651 H   0  0  0  0  0  0  0  0  0  0  0  0
    0.5904   -1.4642    3.5146 H   0  0  0  0  0  0  0  0  0  0  0  0
    2.3754   -3.3596   -0.2269 H   0  0  0  0  0  0  0  0  0  0  0  0
    3.3661   -5.4337   -0.3578 H   0  0  0  0  0  0  0  0  0  0  0  0
    1.1459   -5.9663    0.8122 H   0  0  0  0  0  0  0  0  0  0  0  0
    1.5338   -8.6558    3.1920 H   0  0  0  0  0  0  0  0  0  0  0  0
    0.7333   -8.7672    1.6427 H   0  0  0  0  0  0  0  0  0  0  0  0
    2.8239  -10.4738    2.5329 H   0  0  0  0  0  0  0  0  0  0  0  0
    2.4776  -10.2239    0.8467 H   0  0  0  0  0  0  0  0  0  0  0  0
    4.9176   -9.4679    2.0945 H   0  0  0  0  0  0  0  0  0  0  0  0
    4.3597   -9.0210    0.4836 H   0  0  0  0  0  0  0  0  0  0  0  0
    3.9979   -7.4905    3.0852 H   0  0  0  0  0  0  0  0  0  0  0  0
    4.9786   -6.8255    0.2753 H   0  0  0  0  0  0  0  0  0  0  0  0
    3.9062    2.3211    2.6938 H   0  0  0  0  0  0  0  0  0  0  0  0
  1  2  2  0
  2 25  1  0
  2  3  1  0
  3  4  2  3
  3 11  1  0
  4  5  1  0
  4 35  1  0
  5 10  1  0
  5  6  2  0
  6  7  1  0
  6 36  1  0
  7  8  2  0
  7 37  1  0
  8  9  1  0
  8 38  1  0
  9 10  2  0
  9 39  1  0
 10 62  1  0
 11 12  1  0
 11 40  1  0
 11 41  1  0
 12 13  1  0
 12 42  1  0
 12 43  1  0
 13 24  1  0
 13 14  1  6
 13 15  1  0
 14 44  1  0
 15 34  1  0
 15 16  1  0
 15 45  1  1
 16 17  1  0
 16 46  1  0
 16 47  1  0
 17 23  2  0
 17 18  1  0
 18 19  2  0
 18 48  1  0
 19 20  1  0
 19 49  1  0
 20 21  1  0
 20 22  2  0
 21 50  1  0
 22 26  1  0
 22 23  1  0
 24 23  1  1
 24 25  1  0
 24 27  1  0
 25 26  1  0
 25 51  1  6
 27 34  1  0
 27 28  1  0
 27 52  1  6
 28 29  2  0
 28 53  1  0
 29 33  1  0
 29 30  1  0
 30 31  1  0
 30 54  1  0
 30 55  1  0
 31 32  1  0
 31 56  1  0
 31 57  1  0
 32 33  1  0
 32 58  1  0
 32 59  1  0
 33 34  1  0
 33 60  1  1
 34 61  1  6
M  CHG  1  10   1
M  END
>  <i_m_ct_stereo_status>  (4) 
1

>  <s_m_source_file>  (4) 
/var/tmp/pbs.5076255.sched01/tmpgr0kyu9k/0plolsrat.sdf

>  <i_m_source_file_index>  (4) 
4

>  <i_lp_mmshare_version>  (4) 
48012

>  <i_f3d_flags>  (4) 
0

>  <s_epik_input>  (4) 
bjFbY0hdW2NIXVtjSF1bY0hdYzFcW0NIXT1DKFtDSDJdW0NIMl0yKVxDKD1PKVtDQEBIXTNPYyhjKFtPSF0pW2NIXVtjSF00KWM1YzRbQ0gyXVtDQEhdKFtDQF0yKFtDQF0zNTYpW09IXSlbQ0BASF03W0NASF02W0NIXT1DOFtDQEhdN1tDSDJdW0NIMl1bQ0gyXTg=

>  <s_epik_cmdline>  (4) 
J2VwaWtfcHl0aG9uJywgJy1waHQnLCAnMi4wJywgJy1waCcsICc3LjAnLCAnLXRuJywgJzgnLCAnLW1hJywgJzIwMCcsICctaW1hZScsICc8aW5maWxlLm1hZT4nLCAnLW9tYWUnLCAnPG91dGZpbGUubWFlPic=

>  <r_lp_tautomer_probability>  (4) 
1

>  <r_epik_Ionization_Penalty>  (4) 
2.15935

>  <r_epik_Ionization_Penalty_Charging>  (4) 
2.15686

>  <r_epik_Ionization_Penalty_Neutral>  (4) 
0.00249265

>  <r_epik_State_Penalty>  (4) 
2.29713

>  <r_epik_Charging_Adjusted_Penalty>  (4) 
4.45399

>  <i_epik_Tot_Q>  (4) 
1

>  <i_epik_Tot_abs_Q>  (4) 
1

>  <s_lp_Force_Field>  (4) 
OPLS3e

>  <r_lp_Energy>  (4) 
76.0823

>  <b_lp_Chiralities_Consistent>  (4) 
1

>  <s_lp_Variant>  (4) 
0:0-4

>  <s_i_glide_gridfile>  (4) 
pfpi4k_grid

>  <i_i_glide_lignum>  (4) 
4

>  <i_i_glide_rotatable_bonds>  (4) 
3

>  <r_i_docking_score>  (4) 
-3.59699

>  <r_i_glide_ligand_efficiency>  (4) 
-0.105794

>  <r_i_glide_ligand_efficiency_sa>  (4) 
-0.342731

>  <r_i_glide_ligand_efficiency_ln>  (4) 
-0.794676

>  <r_i_glide_gscore>  (4) 
-3.59699

>  <r_i_glide_lipo>  (4) 
-0.64994

>  <r_i_glide_hbond>  (4) 
0

>  <r_i_glide_metal>  (4) 
-0

>  <r_i_glide_rewards>  (4) 
-0.309976

>  <r_i_glide_evdw>  (4) 
-26.8563

>  <r_i_glide_ecoul>  (4) 
-8.1471

>  <r_i_glide_erotb>  (4) 
0

>  <r_i_glide_esite>  (4) 
-0.0721954

>  <r_i_glide_emodel>  (4) 
-41.0558

>  <r_i_glide_energy>  (4) 
-35.0034

>  <r_i_glide_einternal>  (4) 
0.545187

>  <r_i_glide_intrahb_reward>  (4) 
-0

>  <i_i_glide_confnum>  (4) 
1

>  <i_i_glide_posenum>  (4) 
38

>  <r_i_glide_eff_state_penalty>  (4) 
0

>  <ligand_id>  (4) 
0

>  <original_smiles>  (4) 
O=C1C(=Cc2ccccn2)CCC2(O)C3Cc4ccc(O)c5c4C2(C1O5)C1C=C2CCCC2C31

>  <smiles>  (4) 
[H]Oc1c([H])c([H])c2c3c1OC1([H])C(=O)C(=C([H])c4c([H])c([H])c([H])c([H])[n+]4[H])C([H])([H])C([H])([H])C4(O[H])C([H])(C2([H])[H])C2([H])C5([H])C(=C([H])C2([H])C314)C([H])([H])C([H])([H])C5([H])[H]

$$$$
0:3:1
     RDKit          3D

 62 69  0  0  1  0  0  0  0  0999 V2000
    3.7586   -2.8318   -0.5924 O   0  0  0  0  0  0  0  0  0  0  0  0
    3.7903   -3.0844    0.6103 C   0  0  0  0  0  0  0  0  0  0  0  0
    4.8663   -2.6093    1.4892 C   0  0  0  0  0  0  0  0  0  0  0  0
    4.8028   -1.4689    2.2066 C   0  0  0  0  0  0  0  0  0  0  0  0
    3.7428   -0.4397    2.3157 C   0  0  0  0  0  0  0  0  0  0  0  0
    2.6569   -0.2529    1.4257 C   0  0  0  0  0  0  0  0  0  0  0  0
    1.6781    0.7257    1.6828 C   0  0  0  0  0  0  0  0  0  0  0  0
    1.8054    1.5441    2.8167 C   0  0  0  0  0  0  0  0  0  0  0  0
    2.9088    1.3445    3.6713 C   0  0  0  0  0  0  0  0  0  0  0  0
    3.8085    0.3735    3.3951 N   0  0  0  0  0  0  0  0  0  0  0  0
    6.0534   -3.5506    1.5354 C   0  0  0  0  0  0  0  0  0  0  0  0
    5.7679   -4.8106    2.3830 C   0  0  0  0  0  0  0  0  0  0  0  0
    4.6014   -5.7278    1.8932 C   0  0  1  0  0  0  0  0  0  0  0  0
    4.9314   -6.0990    0.5686 O   0  0  0  0  0  0  0  0  0  0  0  0
    4.4298   -7.0225    2.7264 C   0  0  1  0  0  0  0  0  0  0  0  0
    4.2784   -6.6566    4.2385 C   0  0  0  0  0  0  0  0  0  0  0  0
    3.2954   -5.5280    4.5516 C   0  0  0  0  0  0  0  0  0  0  0  0
    2.8941   -5.0159    5.8050 C   0  0  0  0  0  0  0  0  0  0  0  0
    2.0825   -3.8509    5.8657 C   0  0  0  0  0  0  0  0  0  0  0  0
    1.7117   -3.1634    4.6832 C   0  0  0  0  0  0  0  0  0  0  0  0
    0.9740   -2.0169    4.7637 O   0  0  0  0  0  0  0  0  0  0  0  0
    2.1201   -3.6568    3.4244 C   0  0  0  0  0  0  0  0  0  0  0  0
    2.8456   -4.8254    3.4205 C   0  0  0  0  0  0  0  0  0  0  0  0
    3.1353   -5.2104    1.9952 C   0  0  1  0  0  0  0  0  0  0  0  0
    2.6669   -3.9212    1.2308 C   0  0  1  0  0  0  0  0  0  0  0  0
    1.9469   -3.1040    2.1858 O   0  0  0  0  0  0  0  0  0  0  0  0
    2.3360   -6.4771    1.5516 C   0  0  2  0  0  0  0  0  0  0  0  0
    0.9267   -6.7683    2.0420 C   0  0  0  0  0  0  0  0  0  0  0  0
    0.8979   -7.8995    2.7485 C   0  0  0  0  0  0  0  0  0  0  0  0
   -0.1860   -8.8693    3.1302 C   0  0  0  0  0  0  0  0  0  0  0  0
    0.4901  -10.2378    2.8809 C   0  0  0  0  0  0  0  0  0  0  0  0
    1.9971   -9.9693    2.6466 C   0  0  0  0  0  0  0  0  0  0  0  0
    2.2238   -8.4991    2.9934 C   0  0  1  0  0  0  0  0  0  0  0  0
    3.1692   -7.6673    2.0903 C   0  0  2  0  0  0  0  0  0  0  0  0
    5.6775   -1.2647    2.8048 H   0  0  0  0  0  0  0  0  0  0  0  0
    2.5271   -0.8300    0.5273 H   0  0  0  0  0  0  0  0  0  0  0  0
    0.8436    0.8429    0.9989 H   0  0  0  0  0  0  0  0  0  0  0  0
    1.0776    2.3233    3.0086 H   0  0  0  0  0  0  0  0  0  0  0  0
    3.0996    1.9342    4.5576 H   0  0  0  0  0  0  0  0  0  0  0  0
    6.3669   -3.8088    0.5198 H   0  0  0  0  0  0  0  0  0  0  0  0
    6.8985   -3.0215    1.9707 H   0  0  0  0  0  0  0  0  0  0  0  0
    6.6861   -5.4020    2.3967 H   0  0  0  0  0  0  0  0  0  0  0  0
    5.6223   -4.4797    3.4110 H   0  0  0  0  0  0  0  0  0  0  0  0
    5.7519   -6.5638    0.5923 H   0  0  0  0  0  0  0  0  0  0  0  0
    5.2827   -7.6902    2.6131 H   0  0  0  0  0  0  0  0  0  0  0  0
    4.0407   -7.5226    4.8430 H   0  0  0  0  0  0  0  0  0  0  0  0
    5.2496   -6.3351    4.6109 H   0  0  0  0  0  0  0  0  0  0  0  0
    3.2198   -5.4900    6.7172 H   0  0  0  0  0  0  0  0  0  0  0  0
    1.7640   -3.4716    6.8220 H   0  0  0  0  0  0  0  0  0  0  0  0
    0.8136   -1.6223    3.9212 H   0  0  0  0  0  0  0  0  0  0  0  0
    1.9828   -4.2004    0.4239 H   0  0  0  0  0  0  0  0  0  0  0  0
    2.3218   -6.5312    0.4618 H   0  0  0  0  0  0  0  0  0  0  0  0
    0.0514   -6.2895    1.6431 H   0  0  0  0  0  0  0  0  0  0  0  0
   -0.3894   -8.7697    4.1976 H   0  0  0  0  0  0  0  0  0  0  0  0
   -1.1251   -8.7490    2.5895 H   0  0  0  0  0  0  0  0  0  0  0  0
    0.3327  -10.9103    3.7251 H   0  0  0  0  0  0  0  0  0  0  0  0
    0.0638  -10.7416    2.0154 H   0  0  0  0  0  0  0  0  0  0  0  0
    2.6302  -10.6236    3.2446 H   0  0  0  0  0  0  0  0  0  0  0  0
    2.2348  -10.1676    1.6019 H   0  0  0  0  0  0  0  0  0  0  0  0
    2.3644   -8.3923    4.0662 H   0  0  0  0  0  0  0  0  0  0  0  0
    3.4782   -8.2683    1.2297 H   0  0  0  0  0  0  0  0  0  0  0  0
    4.5869    0.2553    4.0398 H   0  0  0  0  0  0  0  0  0  0  0  0
  1  2  2  0
  2 25  1  0
  2  3  1  0
  3  4  2  3
  3 11  1  0
  4  5  1  0
  4 35  1  0
  5 10  1  0
  5  6  2  0
  6  7  1  0
  6 36  1  0
  7  8  2  0
  7 37  1  0
  8  9  1  0
  8 38  1  0
  9 10  2  0
  9 39  1  0
 10 62  1  0
 11 12  1  0
 11 40  1  0
 11 41  1  0
 12 13  1  0
 12 42  1  0
 12 43  1  0
 13 24  1  0
 13 14  1  6
 13 15  1  0
 14 44  1  0
 15 34  1  0
 15 16  1  0
 15 45  1  1
 16 17  1  0
 16 46  1  0
 16 47  1  0
 17 23  2  0
 17 18  1  0
 18 19  2  0
 18 48  1  0
 19 20  1  0
 19 49  1  0
 20 21  1  0
 20 22  2  0
 21 50  1  0
 22 26  1  0
 22 23  1  0
 24 23  1  1
 24 25  1  0
 24 27  1  0
 25 26  1  0
 25 51  1  6
 27 34  1  0
 27 28  1  0
 27 52  1  6
 28 29  2  0
 28 53  1  0
 29 33  1  0
 29 30  1  0
 30 31  1  0
 30 54  1  0
 30 55  1  0
 31 32  1  0
 31 56  1  0
 31 57  1  0
 32 33  1  0
 32 58  1  0
 32 59  1  0
 33 34  1  0
 33 60  1  1
 34 61  1  6
M  CHG  1  10   1
M  END
>  <i_m_ct_stereo_status>  (5) 
1

>  <s_m_source_file>  (5) 
/var/tmp/pbs.5076255.sched01/tmpgr0kyu9k/0plolsrat.sdf

>  <i_m_source_file_index>  (5) 
4

>  <i_lp_mmshare_version>  (5) 
48012

>  <i_f3d_flags>  (5) 
0

>  <s_epik_input>  (5) 
bjFbY0hdW2NIXVtjSF1bY0hdYzFcW0NIXT1DKFtDSDJdW0NIMl0yKVxDKD1PKVtDQEBIXTNPYyhjKFtPSF0pW2NIXVtjSF00KWM1YzRbQ0gyXVtDQEhdKFtDQF0yKFtDQF0zNTYpW09IXSlbQ0BASF03W0NASF02W0NIXT1DOFtDQEhdN1tDSDJdW0NIMl1bQ0gyXTg=

>  <s_epik_cmdline>  (5) 
J2VwaWtfcHl0aG9uJywgJy1waHQnLCAnMi4wJywgJy1waCcsICc3LjAnLCAnLXRuJywgJzgnLCAnLW1hJywgJzIwMCcsICctaW1hZScsICc8aW5maWxlLm1hZT4nLCAnLW9tYWUnLCAnPG91dGZpbGUubWFlPic=

>  <r_lp_tautomer_probability>  (5) 
1

>  <r_epik_Ionization_Penalty>  (5) 
2.15935

>  <r_epik_Ionization_Penalty_Charging>  (5) 
2.15686

>  <r_epik_Ionization_Penalty_Neutral>  (5) 
0.00249265

>  <r_epik_State_Penalty>  (5) 
2.29713

>  <r_epik_Charging_Adjusted_Penalty>  (5) 
4.45399

>  <i_epik_Tot_Q>  (5) 
1

>  <i_epik_Tot_abs_Q>  (5) 
1

>  <s_lp_Force_Field>  (5) 
OPLS3e

>  <r_lp_Energy>  (5) 
76.0823

>  <b_lp_Chiralities_Consistent>  (5) 
1

>  <s_lp_Variant>  (5) 
0:0-4

>  <s_i_glide_gridfile>  (5) 
pfpi4k_grid

>  <i_i_glide_lignum>  (5) 
4

>  <i_i_glide_rotatable_bonds>  (5) 
3

>  <r_i_docking_score>  (5) 
-2.34804

>  <r_i_glide_ligand_efficiency>  (5) 
-0.06906

>  <r_i_glide_ligand_efficiency_sa>  (5) 
-0.223728

>  <r_i_glide_ligand_efficiency_ln>  (5) 
-0.518748

>  <r_i_glide_gscore>  (5) 
-2.34804

>  <r_i_glide_lipo>  (5) 
-0.416707

>  <r_i_glide_hbond>  (5) 
0

>  <r_i_glide_metal>  (5) 
-0

>  <r_i_glide_rewards>  (5) 
-0.309976

>  <r_i_glide_evdw>  (5) 
-28.1922

>  <r_i_glide_ecoul>  (5) 
-1.35062

>  <r_i_glide_erotb>  (5) 
0

>  <r_i_glide_esite>  (5) 
-0.00915125

>  <r_i_glide_emodel>  (5) 
-34.5433

>  <r_i_glide_energy>  (5) 
-29.5429

>  <r_i_glide_einternal>  (5) 
0.12271

>  <r_i_glide_intrahb_reward>  (5) 
-0

>  <i_i_glide_confnum>  (5) 
2

>  <i_i_glide_posenum>  (5) 
11

>  <r_i_glide_eff_state_penalty>  (5) 
0

>  <ligand_id>  (5) 
0

>  <original_smiles>  (5) 
O=C1C(=Cc2ccccn2)CCC2(O)C3Cc4ccc(O)c5c4C2(C1O5)C1C=C2CCCC2C31

>  <smiles>  (5) 
[H]Oc1c([H])c([H])c2c3c1OC1([H])C(=O)C(=C([H])c4c([H])c([H])c([H])c([H])[n+]4[H])C([H])([H])C([H])([H])C4(O[H])C([H])(C2([H])[H])C2([H])C5([H])C(=C([H])C2([H])C314)C([H])([H])C([H])([H])C5([H])[H]

$$$$
0:3:2
     RDKit          3D

 62 69  0  0  1  0  0  0  0  0999 V2000
    5.8024   -4.6225    6.5724 O   0  0  0  0  0  0  0  0  0  0  0  0
    4.6653   -4.1788    6.5331 C   0  0  0  0  0  0  0  0  0  0  0  0
    4.1421   -3.3111    7.6137 C   0  0  0  0  0  0  0  0  0  0  0  0
    4.3587   -1.9849    7.6658 C   0  0  0  0  0  0  0  0  0  0  0  0
    4.9601   -1.0948    6.6433 C   0  0  0  0  0  0  0  0  0  0  0  0
    5.7394    0.0452    6.9595 C   0  0  0  0  0  0  0  0  0  0  0  0
    6.3046    0.8477    5.9273 C   0  0  0  0  0  0  0  0  0  0  0  0
    6.0671    0.4398    4.5741 C   0  0  0  0  0  0  0  0  0  0  0  0
    5.2818   -0.6861    4.3339 C   0  0  0  0  0  0  0  0  0  0  0  0
    4.7783   -1.4012    5.3396 N   0  0  0  0  0  0  0  0  0  0  0  0
    3.4658   -4.0885    8.7340 C   0  0  0  0  0  0  0  0  0  0  0  0
    2.0723   -4.5978    8.3198 C   0  0  0  0  0  0  0  0  0  0  0  0
    2.0320   -5.6274    7.1392 C   0  0  1  0  0  0  0  0  0  0  0  0
    2.8687   -6.7061    7.5241 O   0  0  0  0  0  0  0  0  0  0  0  0
    0.5948   -6.1632    6.8299 C   0  0  1  0  0  0  0  0  0  0  0  0
   -0.3815   -4.9507    6.6346 C   0  0  0  0  0  0  0  0  0  0  0  0
    0.1357   -3.8161    5.7303 C   0  0  0  0  0  0  0  0  0  0  0  0
   -0.5219   -2.6353    5.3215 C   0  0  0  0  0  0  0  0  0  0  0  0
    0.1939   -1.6701    4.5685 C   0  0  0  0  0  0  0  0  0  0  0  0
    1.5610   -1.8822    4.2271 C   0  0  0  0  0  0  0  0  0  0  0  0
    2.2473   -0.8992    3.5808 O   0  0  0  0  0  0  0  0  0  0  0  0
    2.2206   -3.0579    4.6111 C   0  0  0  0  0  0  0  0  0  0  0  0
    1.4885   -3.9785    5.3289 C   0  0  0  0  0  0  0  0  0  0  0  0
    2.3800   -5.1263    5.6957 C   0  0  1  0  0  0  0  0  0  0  0  0
    3.7959   -4.5757    5.3239 C   0  0  1  0  0  0  0  0  0  0  0  0
    3.5480   -3.3974    4.5088 O   0  0  0  0  0  0  0  0  0  0  0  0
    2.0395   -6.3852    4.8458 C   0  0  2  0  0  0  0  0  0  0  0  0
    1.5997   -6.2488    3.3985 C   0  0  0  0  0  0  0  0  0  0  0  0
    0.3662   -6.7245    3.2441 C   0  0  0  0  0  0  0  0  0  0  0  0
   -0.3905   -7.2494    2.0586 C   0  0  0  0  0  0  0  0  0  0  0  0
   -1.0712   -8.5075    2.6379 C   0  0  0  0  0  0  0  0  0  0  0  0
   -0.8679   -8.4753    4.1715 C   0  0  0  0  0  0  0  0  0  0  0  0
   -0.3042   -7.1012    4.5015 C   0  0  1  0  0  0  0  0  0  0  0  0
    0.8245   -7.0338    5.5605 C   0  0  2  0  0  0  0  0  0  0  0  0
    3.9825   -1.4577    8.5322 H   0  0  0  0  0  0  0  0  0  0  0  0
    5.9020    0.3220    7.9953 H   0  0  0  0  0  0  0  0  0  0  0  0
    6.9110    1.7196    6.1334 H   0  0  0  0  0  0  0  0  0  0  0  0
    6.4984    0.9415    3.7227 H   0  0  0  0  0  0  0  0  0  0  0  0
    5.0379   -1.0463    3.3389 H   0  0  0  0  0  0  0  0  0  0  0  0
    4.1005   -4.9150    9.0508 H   0  0  0  0  0  0  0  0  0  0  0  0
    3.3596   -3.4570    9.6161 H   0  0  0  0  0  0  0  0  0  0  0  0
    1.6475   -5.1026    9.1914 H   0  0  0  0  0  0  0  0  0  0  0  0
    1.4483   -3.7170    8.1541 H   0  0  0  0  0  0  0  0  0  0  0  0
    2.7690   -7.3781    6.8732 H   0  0  0  0  0  0  0  0  0  0  0  0
    0.2390   -6.7825    7.6557 H   0  0  0  0  0  0  0  0  0  0  0  0
   -1.3613   -5.2922    6.2897 H   0  0  0  0  0  0  0  0  0  0  0  0
   -0.5685   -4.5006    7.6157 H   0  0  0  0  0  0  0  0  0  0  0  0
   -1.5747   -2.4452    5.5420 H   0  0  0  0  0  0  0  0  0  0  0  0
   -0.2889   -0.7735    4.2361 H   0  0  0  0  0  0  0  0  0  0  0  0
    1.7109   -0.1814    3.3032 H   0  0  0  0  0  0  0  0  0  0  0  0
    4.3214   -5.3824    4.7701 H   0  0  0  0  0  0  0  0  0  0  0  0
    2.8733   -7.0887    4.8519 H   0  0  0  0  0  0  0  0  0  0  0  0
    2.2725   -6.0453    2.5929 H   0  0  0  0  0  0  0  0  0  0  0  0
   -1.1665   -6.5447    1.7789 H   0  0  0  0  0  0  0  0  0  0  0  0
    0.2353   -7.4477    1.1898 H   0  0  0  0  0  0  0  0  0  0  0  0
   -2.1276   -8.5290    2.3832 H   0  0  0  0  0  0  0  0  0  0  0  0
   -0.6487   -9.4254    2.2287 H   0  0  0  0  0  0  0  0  0  0  0  0
   -1.7857   -8.6645    4.7207 H   0  0  0  0  0  0  0  0  0  0  0  0
   -0.1755   -9.2739    4.4418 H   0  0  0  0  0  0  0  0  0  0  0  0
   -1.1080   -6.3707    4.6045 H   0  0  0  0  0  0  0  0  0  0  0  0
    1.1295   -8.0434    5.8766 H   0  0  0  0  0  0  0  0  0  0  0  0
    4.2029   -2.2229    5.0796 H   0  0  0  0  0  0  0  0  0  0  0  0
  1  2  2  0
  2 25  1  0
  2  3  1  0
  3  4  2  3
  3 11  1  0
  4  5  1  0
  4 35  1  0
  5 10  1  0
  5  6  2  0
  6  7  1  0
  6 36  1  0
  7  8  2  0
  7 37  1  0
  8  9  1  0
  8 38  1  0
  9 10  2  0
  9 39  1  0
 10 62  1  0
 11 12  1  0
 11 40  1  0
 11 41  1  0
 12 13  1  0
 12 42  1  0
 12 43  1  0
 13 24  1  0
 13 14  1  1
 13 15  1  0
 14 44  1  0
 15 34  1  0
 15 16  1  0
 15 45  1  1
 16 17  1  0
 16 46  1  0
 16 47  1  0
 17 23  2  0
 17 18  1  0
 18 19  2  0
 18 48  1  0
 19 20  1  0
 19 49  1  0
 20 21  1  0
 20 22  2  0
 21 50  1  0
 22 26  1  0
 22 23  1  0
 24 23  1  6
 24 25  1  0
 24 27  1  0
 25 26  1  0
 25 51  1  6
 27 34  1  0
 27 28  1  0
 27 52  1  6
 28 29  2  0
 28 53  1  0
 29 33  1  0
 29 30  1  0
 30 31  1  0
 30 54  1  0
 30 55  1  0
 31 32  1  0
 31 56  1  0
 31 57  1  0
 32 33  1  0
 32 58  1  0
 32 59  1  0
 33 34  1  0
 33 60  1  1
 34 61  1  1
M  CHG  1  10   1
M  END
>  <i_m_ct_stereo_status>  (6) 
1

>  <s_m_source_file>  (6) 
/var/tmp/pbs.5076255.sched01/tmpgr0kyu9k/0plolsrat.sdf

>  <i_m_source_file_index>  (6) 
4

>  <i_lp_mmshare_version>  (6) 
48012

>  <i_f3d_flags>  (6) 
0

>  <s_epik_input>  (6) 
bjFbY0hdW2NIXVtjSF1bY0hdYzFcW0NIXT1DKFtDSDJdW0NIMl0yKVxDKD1PKVtDQEBIXTNPYyhjKFtPSF0pW2NIXVtjSF00KWM1YzRbQ0gyXVtDQEhdKFtDQF0yKFtDQF0zNTYpW09IXSlbQ0BASF03W0NASF02W0NIXT1DOFtDQEhdN1tDSDJdW0NIMl1bQ0gyXTg=

>  <s_epik_cmdline>  (6) 
J2VwaWtfcHl0aG9uJywgJy1waHQnLCAnMi4wJywgJy1waCcsICc3LjAnLCAnLXRuJywgJzgnLCAnLW1hJywgJzIwMCcsICctaW1hZScsICc8aW5maWxlLm1hZT4nLCAnLW9tYWUnLCAnPG91dGZpbGUubWFlPic=

>  <r_lp_tautomer_probability>  (6) 
1

>  <r_epik_Ionization_Penalty>  (6) 
2.15935

>  <r_epik_Ionization_Penalty_Charging>  (6) 
2.15686

>  <r_epik_Ionization_Penalty_Neutral>  (6) 
0.00249265

>  <r_epik_State_Penalty>  (6) 
2.29713

>  <r_epik_Charging_Adjusted_Penalty>  (6) 
4.45399

>  <i_epik_Tot_Q>  (6) 
1

>  <i_epik_Tot_abs_Q>  (6) 
1

>  <s_lp_Force_Field>  (6) 
OPLS3e

>  <r_lp_Energy>  (6) 
76.0823

>  <b_lp_Chiralities_Consistent>  (6) 
1

>  <s_lp_Variant>  (6) 
0:0-4

>  <s_i_glide_gridfile>  (6) 
pfpi4k_grid

>  <i_i_glide_lignum>  (6) 
4

>  <i_i_glide_rotatable_bonds>  (6) 
3

>  <r_i_docking_score>  (6) 
-2.26476

>  <r_i_glide_ligand_efficiency>  (6) 
-0.0666106

>  <r_i_glide_ligand_efficiency_sa>  (6) 
-0.215793

>  <r_i_glide_ligand_efficiency_ln>  (6) 
-0.500349

>  <r_i_glide_gscore>  (6) 
-2.26476

>  <r_i_glide_lipo>  (6) 
-0.368271

>  <r_i_glide_hbond>  (6) 
0

>  <r_i_glide_metal>  (6) 
-0

>  <r_i_glide_rewards>  (6) 
-0.809976

>  <r_i_glide_evdw>  (6) 
-22.228

>  <r_i_glide_ecoul>  (6) 
0.165908

>  <r_i_glide_erotb>  (6) 
0

>  <r_i_glide_esite>  (6) 
0

>  <r_i_glide_emodel>  (6) 
-29.7296

>  <r_i_glide_energy>  (6) 
-22.0621

>  <r_i_glide_einternal>  (6) 
1.9155

>  <r_i_glide_intrahb_reward>  (6) 
-0.5

>  <i_i_glide_confnum>  (6) 
1

>  <i_i_glide_posenum>  (6) 
1

>  <r_i_glide_eff_state_penalty>  (6) 
0

>  <ligand_id>  (6) 
0

>  <original_smiles>  (6) 
O=C1C(=Cc2ccccn2)CCC2(O)C3Cc4ccc(O)c5c4C2(C1O5)C1C=C2CCCC2C31

>  <smiles>  (6) 
[H]Oc1c([H])c([H])c2c3c1OC1([H])C(=O)C(=C([H])c4c([H])c([H])c([H])c([H])[n+]4[H])C([H])([H])C([H])([H])C4(O[H])C([H])(C2([H])[H])C2([H])C5([H])C(=C([H])C2([H])C314)C([H])([H])C([H])([H])C5([H])[H]

$$$$
1:0:0
     RDKit          3D

 33 33  0  0  1  0  0  0  0  0999 V2000
  -10.6793   -9.2533   -9.0150 C   0  0  0  0  0  0  0  0  0  0  0  0
  -11.2513   -7.9079   -8.7605 N   0  0  0  0  0  0  0  0  0  0  0  0
  -11.8793   -7.4112  -10.0219 C   0  0  0  0  0  0  0  0  0  0  0  0
  -12.2664   -8.0122   -7.6827 C   0  0  0  0  0  0  0  0  0  0  0  0
  -10.1484   -7.0144   -8.3433 C   0  0  0  0  0  0  0  0  0  0  0  0
  -10.4953   -5.5900   -7.8387 C   0  0  0  0  0  0  0  0  0  0  0  0
   -9.2799   -4.6569   -7.6716 C   0  0  0  0  0  0  0  0  0  0  0  0
   -8.2491   -5.0782   -6.6298 C   0  0  0  0  0  0  0  0  0  0  0  0
   -7.4948   -6.2783   -6.7831 C   0  0  0  0  0  0  0  0  0  0  0  0
   -6.6451   -6.7231   -5.7784 C   0  0  0  0  0  0  0  0  0  0  0  0
   -6.4027   -5.9247   -4.6299 C   0  0  0  0  0  0  0  0  0  0  0  0
   -7.0745   -4.6824   -4.5055 C   0  0  0  0  0  0  0  0  0  0  0  0
   -8.0051   -4.2768   -5.4767 C   0  0  0  0  0  0  0  0  0  0  0  0
  -10.2068   -9.6669   -8.1140 H   0  0  0  0  0  0  0  0  0  0  0  0
   -9.9049   -9.2229   -9.7937 H   0  0  0  0  0  0  0  0  0  0  0  0
  -11.4429   -9.9730   -9.3301 H   0  0  0  0  0  0  0  0  0  0  0  0
  -12.3835   -6.4506   -9.8725 H   0  0  0  0  0  0  0  0  0  0  0  0
  -12.6222   -8.1319  -10.3890 H   0  0  0  0  0  0  0  0  0  0  0  0
  -11.1178   -7.2798  -10.8030 H   0  0  0  0  0  0  0  0  0  0  0  0
  -12.7826   -7.0628   -7.5218 H   0  0  0  0  0  0  0  0  0  0  0  0
  -11.8106   -8.3187   -6.7275 H   0  0  0  0  0  0  0  0  0  0  0  0
  -13.0136   -8.7685   -7.9470 H   0  0  0  0  0  0  0  0  0  0  0  0
   -9.6585   -7.5375   -7.5164 H   0  0  0  0  0  0  0  0  0  0  0  0
   -9.4163   -6.9477   -9.1596 H   0  0  0  0  0  0  0  0  0  0  0  0
  -11.2330   -5.1070   -8.4891 H   0  0  0  0  0  0  0  0  0  0  0  0
  -10.9784   -5.6862   -6.8579 H   0  0  0  0  0  0  0  0  0  0  0  0
   -8.7684   -4.5227   -8.6277 H   0  0  0  0  0  0  0  0  0  0  0  0
   -9.6719   -3.6739   -7.4050 H   0  0  0  0  0  0  0  0  0  0  0  0
   -7.5904   -6.8735   -7.6808 H   0  0  0  0  0  0  0  0  0  0  0  0
   -6.1596   -7.6826   -5.8813 H   0  0  0  0  0  0  0  0  0  0  0  0
   -5.7194   -6.2647   -3.8769 H   0  0  0  0  0  0  0  0  0  0  0  0
   -6.8741   -4.0565   -3.6508 H   0  0  0  0  0  0  0  0  0  0  0  0
   -8.5321   -3.3385   -5.3527 H   0  0  0  0  0  0  0  0  0  0  0  0
  1  2  1  0
  1 14  1  0
  1 15  1  0
  1 16  1  0
  2  3  1  0
  2  4  1  0
  2  5  1  0
  3 17  1  0
  3 18  1  0
  3 19  1  0
  4 20  1  0
  4 21  1  0
  4 22  1  0
  5  6  1  0
  5 23  1  0
  5 24  1  0
  6  7  1  0
  6 25  1  0
  6 26  1  0
  7  8  1  0
  7 27  1  0
  7 28  1  0
  8 13  2  0
  8  9  1  0
  9 10  2  0
  9 29  1  0
 10 11  1  0
 10 30  1  0
 11 12  2  0
 11 31  1  0
 12 13  1  0
 12 32  1  0
 13 33  1  0
M  CHG  1   2   1
M  END
>  <i_m_ct_stereo_status>  (7) 
1

>  <s_m_source_file>  (7) 
/var/tmp/pbs.5076255.sched01/tmpgr0kyu9k/0plolsrat.sdf

>  <i_m_source_file_index>  (7) 
5

>  <i_lp_mmshare_version>  (7) 
48012

>  <i_f3d_flags>  (7) 
0

>  <s_epik_input>  (7) 
W0NIM11bTitdKFtDSDNdKShbQ0gzXSlbQ0gyXVtDSDJdW0NIMl1jMVtjSF1bY0hdW2NIXVtjSF1bY0hdMQ==

>  <s_epik_cmdline>  (7) 
J2VwaWtfcHl0aG9uJywgJy1waHQnLCAnMi4wJywgJy1waCcsICc3LjAnLCAnLXRuJywgJzgnLCAnLW1hJywgJzIwMCcsICctaW1hZScsICc8aW5maWxlLm1hZT4nLCAnLW9tYWUnLCAnPG91dGZpbGUubWFlPic=

>  <r_lp_tautomer_probability>  (7) 
1

>  <r_epik_Ionization_Penalty>  (7) 
0

>  <r_epik_Ionization_Penalty_Charging>  (7) 
0

>  <r_epik_Ionization_Penalty_Neutral>  (7) 
0

>  <r_epik_State_Penalty>  (7) 
-0

>  <r_epik_Charging_Adjusted_Penalty>  (7) 
0

>  <i_epik_Tot_Q>  (7) 
1

>  <i_epik_Tot_abs_Q>  (7) 
1

>  <s_lp_Force_Field>  (7) 
OPLS3e

>  <r_lp_Energy>  (7) 
19.5627

>  <b_lp_Chiralities_Consistent>  (7) 
1

>  <s_lp_Variant>  (7) 
1:0-1

>  <s_i_glide_gridfile>  (7) 
pfpi4k_grid

>  <i_i_glide_lignum>  (7) 
5

>  <i_i_glide_rotatable_bonds>  (7) 
4

>  <r_i_docking_score>  (7) 
-4.78504

>  <r_i_glide_ligand_efficiency>  (7) 
-0.36808

>  <r_i_glide_ligand_efficiency_sa>  (7) 
-0.865479

>  <r_i_glide_ligand_efficiency_ln>  (7) 
-1.34225

>  <r_i_glide_gscore>  (7) 
-4.78504

>  <r_i_glide_lipo>  (7) 
-1.85279

>  <r_i_glide_hbond>  (7) 
0

>  <r_i_glide_metal>  (7) 
-0

>  <r_i_glide_rewards>  (7) 
-2.57678

>  <r_i_glide_evdw>  (7) 
-19.2155

>  <r_i_glide_ecoul>  (7) 
-2.36297

>  <r_i_glide_erotb>  (7) 
0.987543

>  <r_i_glide_esite>  (7) 
-0.0277906

>  <r_i_glide_emodel>  (7) 
-27.1543

>  <r_i_glide_energy>  (7) 
-21.5784

>  <r_i_glide_einternal>  (7) 
1.58886

>  <r_i_glide_intrahb_reward>  (7) 
-0

>  <i_i_glide_confnum>  (7) 
4

>  <i_i_glide_posenum>  (7) 
28

>  <r_i_glide_eff_state_penalty>  (7) 
0

>  <ligand_id>  (7) 
1

>  <original_smiles>  (7) 
C[N+](C)(C)CCCc1ccccc1

>  <smiles>  (7) 
[H]c1c([H])c([H])c(C([H])([H])C([H])([H])C([H])([H])[N+](C([H])([H])[H])(C([H])([H])[H])C([H])([H])[H])c([H])c1[H]

$$$$
2:0:0
     RDKit          3D

 38 42  0  0  1  0  0  0  0  0999 V2000
    4.6809   -1.0205    0.2857 O   0  0  0  0  0  0  0  0  0  0  0  0
    4.1264   -1.9762   -0.2686 C   0  0  0  0  0  0  0  0  0  0  0  0
    3.5429   -2.9770    0.4223 N   0  0  0  0  0  0  0  0  0  0  0  0
    2.9609   -4.2083   -0.1519 C   0  0  0  0  0  0  0  0  0  0  0  0
    3.0052   -5.1432    1.0465 C   0  0  2  0  0  0  0  0  0  0  0  0
    2.1054   -6.3359    1.2687 C   0  0  0  0  0  0  0  0  0  0  0  0
    1.9410   -6.3719    2.7241 N   0  0  0  0  0  0  0  0  0  0  0  0
    0.7807   -6.9342    3.2905 C   0  0  0  0  0  0  0  0  0  0  0  0
    0.5794   -7.0676    4.7016 C   0  0  0  0  0  0  0  0  0  0  0  0
   -0.5864   -7.5582    5.0511 N   0  0  0  0  0  0  0  0  0  0  0  0
   -1.3801   -7.9155    3.6208 S   0  0  0  0  0  0  0  0  0  0  0  0
   -0.2205   -7.3565    2.5452 N   0  0  0  0  0  0  0  0  0  0  0  0
    2.5503   -5.1699    3.3279 C   0  0  0  0  0  0  0  0  0  0  0  0
    2.5886   -4.2276    2.1425 C   0  0  1  0  0  0  0  0  0  0  0  0
    3.5244   -3.0453    1.9040 C   0  0  0  0  0  0  0  0  0  0  0  0
    4.1003   -2.0130   -1.8018 C   0  0  2  0  0  0  0  0  0  0  0  0
    2.9789   -2.4641   -2.7484 C   0  0  0  0  0  0  0  0  0  0  0  0
    4.1350   -1.9705   -3.6391 C   0  0  2  0  0  0  0  0  0  0  0  0
    5.1141   -2.7190   -2.7094 C   0  0  0  0  0  0  0  0  0  0  0  0
    4.2532   -0.7693   -2.6922 C   0  0  0  0  0  0  0  0  0  0  0  0
    1.9405   -4.0210   -0.5056 H   0  0  0  0  0  0  0  0  0  0  0  0
    3.5459   -4.6148   -0.9758 H   0  0  0  0  0  0  0  0  0  0  0  0
    4.0376   -5.4610    1.2138 H   0  0  0  0  0  0  0  0  0  0  0  0
    1.1586   -6.1924    0.7536 H   0  0  0  0  0  0  0  0  0  0  0  0
    2.5648   -7.2553    0.9046 H   0  0  0  0  0  0  0  0  0  0  0  0
    1.2778   -6.7908    5.4782 H   0  0  0  0  0  0  0  0  0  0  0  0
    1.9436   -4.7477    4.1310 H   0  0  0  0  0  0  0  0  0  0  0  0
    3.5493   -5.3782    3.7087 H   0  0  0  0  0  0  0  0  0  0  0  0
    1.5633   -3.8923    2.0021 H   0  0  0  0  0  0  0  0  0  0  0  0
    4.5328   -3.2505    2.2768 H   0  0  0  0  0  0  0  0  0  0  0  0
    3.1443   -2.1209    2.3442 H   0  0  0  0  0  0  0  0  0  0  0  0
    2.7696   -3.5274   -2.8380 H   0  0  0  0  0  0  0  0  0  0  0  0
    2.0738   -1.8596   -2.7285 H   0  0  0  0  0  0  0  0  0  0  0  0
    4.1509   -1.9337   -4.7202 H   0  0  0  0  0  0  0  0  0  0  0  0
    6.1408   -2.3485   -2.6764 H   0  0  0  0  0  0  0  0  0  0  0  0
    5.0684   -3.8081   -2.7346 H   0  0  0  0  0  0  0  0  0  0  0  0
    3.4185   -0.0645   -2.7361 H   0  0  0  0  0  0  0  0  0  0  0  0
    5.2196   -0.2630   -2.6461 H   0  0  0  0  0  0  0  0  0  0  0  0
  1  2  2  0
  2  3  1  0
 16  2  1  1
  3 15  1  0
  3  4  1  0
  4  5  1  0
  4 21  1  0
  4 22  1  0
  5 14  1  0
  5  6  1  0
  5 23  1  1
  6  7  1  0
  6 24  1  0
  6 25  1  0
  7  8  1  0
  7 13  1  0
  8 12  2  0
  8  9  1  0
  9 10  2  0
  9 26  1  0
 10 11  1  0
 11 12  1  0
 13 14  1  0
 13 27  1  0
 13 28  1  0
 14 15  1  0
 14 29  1  6
 15 30  1  0
 15 31  1  0
 16 19  1  0
 16 20  1  0
 16 17  1  0
 17 18  1  0
 17 32  1  0
 17 33  1  0
 18 19  1  0
 18 20  1  0
 18 34  1  6
 19 35  1  0
 19 36  1  0
 20 37  1  0
 20 38  1  0
M  END
>  <i_m_ct_stereo_status>  (8) 
1

>  <s_m_source_file>  (8) 
/var/tmp/pbs.5076255.sched01/tmpgr0kyu9k/0plolsrat.sdf

>  <i_m_source_file_index>  (8) 
6

>  <i_lp_mmshare_version>  (8) 
48012

>  <i_f3d_flags>  (8) 
0

>  <s_epik_input>  (8) 
W0NIMl0xW0NIXShbQ0gyXTIpW0NIMl1DMTJDKD1PKU4oW0NIMl0zKVtDSDJdW0NAQEhdKFtDQEhdMzQpW0NIMl1OKFtDSDJdNCljNVtjSF1uc241

>  <s_epik_cmdline>  (8) 
J2VwaWtfcHl0aG9uJywgJy1waHQnLCAnMi4wJywgJy1waCcsICc3LjAnLCAnLXRuJywgJzgnLCAnLW1hJywgJzIwMCcsICctaW1hZScsICc8aW5maWxlLm1hZT4nLCAnLW9tYWUnLCAnPG91dGZpbGUubWFlPic=

>  <r_lp_tautomer_probability>  (8) 
1

>  <r_epik_Ionization_Penalty>  (8) 
4.58735e-05

>  <r_epik_Ionization_Penalty_Charging>  (8) 
0

>  <r_epik_Ionization_Penalty_Neutral>  (8) 
4.58735e-05

>  <r_epik_State_Penalty>  (8) 
-0

>  <r_epik_Charging_Adjusted_Penalty>  (8) 
0

>  <i_epik_Tot_Q>  (8) 
0

>  <i_epik_Tot_abs_Q>  (8) 
0

>  <s_lp_Force_Field>  (8) 
OPLS3e

>  <r_lp_Energy>  (8) 
108.942

>  <b_lp_Chiralities_Consistent>  (8) 
1

>  <s_lp_Variant>  (8) 
2:0-1

>  <s_i_glide_gridfile>  (8) 
pfpi4k_grid

>  <i_i_glide_lignum>  (8) 
6

>  <i_i_glide_rotatable_bonds>  (8) 
3

>  <r_i_docking_score>  (8) 
-2.90583

>  <r_i_glide_ligand_efficiency>  (8) 
-0.145291

>  <r_i_glide_ligand_efficiency_sa>  (8) 
-0.394381

>  <r_i_glide_ligand_efficiency_ln>  (8) 
-0.727233

>  <r_i_glide_gscore>  (8) 
-2.90583

>  <r_i_glide_lipo>  (8) 
-0.441924

>  <r_i_glide_hbond>  (8) 
0

>  <r_i_glide_metal>  (8) 
-0

>  <r_i_glide_rewards>  (8) 
-1.42919

>  <r_i_glide_evdw>  (8) 
-30.0268

>  <r_i_glide_ecoul>  (8) 
-0.860404

>  <r_i_glide_erotb>  (8) 
0.648366

>  <r_i_glide_esite>  (8) 
-0.0526757

>  <r_i_glide_emodel>  (8) 
-35.7071

>  <r_i_glide_energy>  (8) 
-30.8872

>  <r_i_glide_einternal>  (8) 
0.862333

>  <r_i_glide_intrahb_reward>  (8) 
-0

>  <i_i_glide_confnum>  (8) 
2

>  <i_i_glide_posenum>  (8) 
23

>  <r_i_glide_eff_state_penalty>  (8) 
0

>  <ligand_id>  (8) 
2

>  <original_smiles>  (8) 
O=C(N1CC2CN(c3cnsn3)CC2C1)C12CC(C1)C2

>  <smiles>  (8) 
[H]c1nsnc1N1C([H])([H])C2([H])C([H])([H])N(C(=O)C34C([H])([H])C([H])(C3([H])[H])C4([H])[H])C([H])([H])C2([H])C1([H])[H]

$$$$
2:0:1
     RDKit          3D

 38 42  0  0  1  0  0  0  0  0999 V2000
   -0.0115   -6.4050    4.6169 O   0  0  0  0  0  0  0  0  0  0  0  0
    0.6401   -6.8946    3.6888 C   0  0  0  0  0  0  0  0  0  0  0  0
    1.4313   -6.1397    2.8992 N   0  0  0  0  0  0  0  0  0  0  0  0
    1.7616   -4.7128    3.1528 C   0  0  0  0  0  0  0  0  0  0  0  0
    3.0713   -4.5936    2.3718 C   0  0  2  0  0  0  0  0  0  0  0  0
    3.6557   -3.3395    1.7450 C   0  0  0  0  0  0  0  0  0  0  0  0
    4.3595   -3.8359    0.5444 N   0  0  0  0  0  0  0  0  0  0  0  0
    4.5137   -2.9832   -0.5579 C   0  0  0  0  0  0  0  0  0  0  0  0
    4.8405   -3.4290   -1.8933 C   0  0  0  0  0  0  0  0  0  0  0  0
    4.8820   -2.4802   -2.7999 N   0  0  0  0  0  0  0  0  0  0  0  0
    4.4937   -1.0652   -1.9985 S   0  0  0  0  0  0  0  0  0  0  0  0
    4.3521   -1.6807   -0.4469 N   0  0  0  0  0  0  0  0  0  0  0  0
    4.0048   -5.2487    0.3387 C   0  0  0  0  0  0  0  0  0  0  0  0
    2.7366   -5.3662    1.1475 C   0  0  1  0  0  0  0  0  0  0  0  0
    2.1980   -6.6356    1.7374 C   0  0  0  0  0  0  0  0  0  0  0  0
    0.5777   -8.4220    3.4699 C   0  0  2  0  0  0  0  0  0  0  0  0
    1.5238   -9.3354    2.6665 C   0  0  0  0  0  0  0  0  0  0  0  0
    0.4652  -10.2593    3.2771 C   0  0  2  0  0  0  0  0  0  0  0  0
   -0.5991   -9.2050    2.8827 C   0  0  0  0  0  0  0  0  0  0  0  0
    0.6398   -9.4732    4.5924 C   0  0  0  0  0  0  0  0  0  0  0  0
    0.9875   -4.0632    2.7333 H   0  0  0  0  0  0  0  0  0  0  0  0
    1.8734   -4.4774    4.2198 H   0  0  0  0  0  0  0  0  0  0  0  0
    3.8644   -5.1077    2.9235 H   0  0  0  0  0  0  0  0  0  0  0  0
    2.8575   -2.6441    1.4809 H   0  0  0  0  0  0  0  0  0  0  0  0
    4.3353   -2.8495    2.4377 H   0  0  0  0  0  0  0  0  0  0  0  0
    5.0310   -4.4509   -2.1989 H   0  0  0  0  0  0  0  0  0  0  0  0
    3.8063   -5.5181   -0.6971 H   0  0  0  0  0  0  0  0  0  0  0  0
    4.7901   -5.9055    0.7086 H   0  0  0  0  0  0  0  0  0  0  0  0
    1.9419   -4.8790    0.5810 H   0  0  0  0  0  0  0  0  0  0  0  0
    3.0292   -7.2619    2.0766 H   0  0  0  0  0  0  0  0  0  0  0  0
    1.5799   -7.1640    1.0066 H   0  0  0  0  0  0  0  0  0  0  0  0
    1.4893   -9.3196    1.5775 H   0  0  0  0  0  0  0  0  0  0  0  0
    2.5360   -9.4390    3.0528 H   0  0  0  0  0  0  0  0  0  0  0  0
    0.4053  -11.3407    3.1509 H   0  0  0  0  0  0  0  0  0  0  0  0
   -1.5283   -9.2182    3.4609 H   0  0  0  0  0  0  0  0  0  0  0  0
   -0.7771   -9.0640    1.8181 H   0  0  0  0  0  0  0  0  0  0  0  0
    1.6034   -9.5946    5.0942 H   0  0  0  0  0  0  0  0  0  0  0  0
   -0.1999   -9.5183    5.2926 H   0  0  0  0  0  0  0  0  0  0  0  0
  1  2  2  0
  2  3  1  0
 16  2  1  1
  3 15  1  0
  3  4  1  0
  4  5  1  0
  4 21  1  0
  4 22  1  0
  5 14  1  0
  5  6  1  0
  5 23  1  1
  6  7  1  0
  6 24  1  0
  6 25  1  0
  7  8  1  0
  7 13  1  0
  8 12  2  0
  8  9  1  0
  9 10  2  0
  9 26  1  0
 10 11  1  0
 11 12  1  0
 13 14  1  0
 13 27  1  0
 13 28  1  0
 14 15  1  0
 14 29  1  6
 15 30  1  0
 15 31  1  0
 16 19  1  0
 16 20  1  0
 16 17  1  0
 17 18  1  0
 17 32  1  0
 17 33  1  0
 18 19  1  0
 18 20  1  0
 18 34  1  1
 19 35  1  0
 19 36  1  0
 20 37  1  0
 20 38  1  0
M  END
>  <i_m_ct_stereo_status>  (9) 
1

>  <s_m_source_file>  (9) 
/var/tmp/pbs.5076255.sched01/tmpgr0kyu9k/0plolsrat.sdf

>  <i_m_source_file_index>  (9) 
6

>  <i_lp_mmshare_version>  (9) 
48012

>  <i_f3d_flags>  (9) 
0

>  <s_epik_input>  (9) 
W0NIMl0xW0NIXShbQ0gyXTIpW0NIMl1DMTJDKD1PKU4oW0NIMl0zKVtDSDJdW0NAQEhdKFtDQEhdMzQpW0NIMl1OKFtDSDJdNCljNVtjSF1uc241

>  <s_epik_cmdline>  (9) 
J2VwaWtfcHl0aG9uJywgJy1waHQnLCAnMi4wJywgJy1waCcsICc3LjAnLCAnLXRuJywgJzgnLCAnLW1hJywgJzIwMCcsICctaW1hZScsICc8aW5maWxlLm1hZT4nLCAnLW9tYWUnLCAnPG91dGZpbGUubWFlPic=

>  <r_lp_tautomer_probability>  (9) 
1

>  <r_epik_Ionization_Penalty>  (9) 
4.58735e-05

>  <r_epik_Ionization_Penalty_Charging>  (9) 
0

>  <r_epik_Ionization_Penalty_Neutral>  (9) 
4.58735e-05

>  <r_epik_State_Penalty>  (9) 
-0

>  <r_epik_Charging_Adjusted_Penalty>  (9) 
0

>  <i_epik_Tot_Q>  (9) 
0

>  <i_epik_Tot_abs_Q>  (9) 
0

>  <s_lp_Force_Field>  (9) 
OPLS3e

>  <r_lp_Energy>  (9) 
108.942

>  <b_lp_Chiralities_Consistent>  (9) 
1

>  <s_lp_Variant>  (9) 
2:0-1

>  <s_i_glide_gridfile>  (9) 
pfpi4k_grid

>  <i_i_glide_lignum>  (9) 
6

>  <i_i_glide_rotatable_bonds>  (9) 
3

>  <r_i_docking_score>  (9) 
-2.80408

>  <r_i_glide_ligand_efficiency>  (9) 
-0.140204

>  <r_i_glide_ligand_efficiency_sa>  (9) 
-0.380572

>  <r_i_glide_ligand_efficiency_ln>  (9) 
-0.701768

>  <r_i_glide_gscore>  (9) 
-2.80408

>  <r_i_glide_lipo>  (9) 
-0.129028

>  <r_i_glide_hbond>  (9) 
0

>  <r_i_glide_metal>  (9) 
-0

>  <r_i_glide_rewards>  (9) 
-1.46632

>  <r_i_glide_evdw>  (9) 
-28.6868

>  <r_i_glide_ecoul>  (9) 
-2.4394

>  <r_i_glide_erotb>  (9) 
0.648366

>  <r_i_glide_esite>  (9) 
-0.0568366

>  <r_i_glide_emodel>  (9) 
-34.9271

>  <r_i_glide_energy>  (9) 
-31.1262

>  <r_i_glide_einternal>  (9) 
2.28777

>  <r_i_glide_intrahb_reward>  (9) 
-0

>  <i_i_glide_confnum>  (9) 
4

>  <i_i_glide_posenum>  (9) 
18

>  <r_i_glide_eff_state_penalty>  (9) 
0

>  <ligand_id>  (9) 
2

>  <original_smiles>  (9) 
O=C(N1CC2CN(c3cnsn3)CC2C1)C12CC(C1)C2

>  <smiles>  (9) 
[H]c1nsnc1N1C([H])([H])C2([H])C([H])([H])N(C(=O)C34C([H])([H])C([H])(C3([H])[H])C4([H])[H])C([H])([H])C2([H])C1([H])[H]

$$$$
2:0:2
     RDKit          3D

 38 42  0  0  1  0  0  0  0  0999 V2000
    4.6425   -0.9803    0.3290 O   0  0  0  0  0  0  0  0  0  0  0  0
    4.1413   -1.9403   -0.2536 C   0  0  0  0  0  0  0  0  0  0  0  0
    3.5571   -2.9649    0.4013 N   0  0  0  0  0  0  0  0  0  0  0  0
    3.0965   -4.2387   -0.1930 C   0  0  0  0  0  0  0  0  0  0  0  0
    3.1185   -5.1537    1.0236 C   0  0  2  0  0  0  0  0  0  0  0  0
    2.2781   -6.3993    1.2260 C   0  0  0  0  0  0  0  0  0  0  0  0
    2.0164   -6.4083    2.6725 N   0  0  0  0  0  0  0  0  0  0  0  0
    0.8677   -7.0660    3.1594 C   0  0  0  0  0  0  0  0  0  0  0  0
    0.0766   -7.9721    2.3689 C   0  0  0  0  0  0  0  0  0  0  0  0
   -1.0312   -8.3851    2.9366 N   0  0  0  0  0  0  0  0  0  0  0  0
   -1.0010   -7.7515    4.4818 S   0  0  0  0  0  0  0  0  0  0  0  0
    0.4036   -6.8443    4.3681 N   0  0  0  0  0  0  0  0  0  0  0  0
    2.4994   -5.1567    3.2763 C   0  0  0  0  0  0  0  0  0  0  0  0
    2.5710   -4.2477    2.0679 C   0  0  1  0  0  0  0  0  0  0  0  0
    3.4359   -3.0139    1.8770 C   0  0  0  0  0  0  0  0  0  0  0  0
    4.1541   -1.9514   -1.7872 C   0  0  2  0  0  0  0  0  0  0  0  0
    3.0224   -2.3123   -2.7455 C   0  0  0  0  0  0  0  0  0  0  0  0
    4.2142   -1.8778   -3.6259 C   0  0  2  0  0  0  0  0  0  0  0  0
    5.1303   -2.7062   -2.6966 C   0  0  0  0  0  0  0  0  0  0  0  0
    4.4027   -0.7047   -2.6491 C   0  0  0  0  0  0  0  0  0  0  0  0
    2.0897   -4.1292   -0.6144 H   0  0  0  0  0  0  0  0  0  0  0  0
    3.7582   -4.6098   -0.9797 H   0  0  0  0  0  0  0  0  0  0  0  0
    4.1546   -5.4003    1.2737 H   0  0  0  0  0  0  0  0  0  0  0  0
    1.3502   -6.3317    0.6602 H   0  0  0  0  0  0  0  0  0  0  0  0
    2.8177   -7.2879    0.9043 H   0  0  0  0  0  0  0  0  0  0  0  0
    0.2789   -8.2756    1.3501 H   0  0  0  0  0  0  0  0  0  0  0  0
    1.8200   -4.7272    4.0159 H   0  0  0  0  0  0  0  0  0  0  0  0
    3.4779   -5.2924    3.7360 H   0  0  0  0  0  0  0  0  0  0  0  0
    1.5403   -3.9862    1.8358 H   0  0  0  0  0  0  0  0  0  0  0  0
    4.4234   -3.1485    2.3312 H   0  0  0  0  0  0  0  0  0  0  0  0
    2.9626   -2.1121    2.2793 H   0  0  0  0  0  0  0  0  0  0  0  0
    2.7371   -3.3635   -2.8285 H   0  0  0  0  0  0  0  0  0  0  0  0
    2.1638   -1.6444   -2.7231 H   0  0  0  0  0  0  0  0  0  0  0  0
    4.2356   -1.8167   -4.7128 H   0  0  0  0  0  0  0  0  0  0  0  0
    6.1774   -2.4047   -2.6473 H   0  0  0  0  0  0  0  0  0  0  0  0
    5.0109   -3.7900   -2.7567 H   0  0  0  0  0  0  0  0  0  0  0  0
    3.6193    0.0567   -2.7045 H   0  0  0  0  0  0  0  0  0  0  0  0
    5.4015   -0.2714   -2.5712 H   0  0  0  0  0  0  0  0  0  0  0  0
  1  2  2  0
  2  3  1  0
 16  2  1  1
  3 15  1  0
  3  4  1  0
  4  5  1  0
  4 21  1  0
  4 22  1  0
  5 14  1  0
  5  6  1  0
  5 23  1  1
  6  7  1  0
  6 24  1  0
  6 25  1  0
  7  8  1  0
  7 13  1  0
  8 12  2  0
  8  9  1  0
  9 10  2  0
  9 26  1  0
 10 11  1  0
 11 12  1  0
 13 14  1  0
 13 27  1  0
 13 28  1  0
 14 15  1  0
 14 29  1  6
 15 30  1  0
 15 31  1  0
 16 19  1  0
 16 20  1  0
 16 17  1  0
 17 18  1  0
 17 32  1  0
 17 33  1  0
 18 19  1  0
 18 20  1  0
 18 34  1  6
 19 35  1  0
 19 36  1  0
 20 37  1  0
 20 38  1  0
M  END
>  <i_m_ct_stereo_status>  (10) 
1

>  <s_m_source_file>  (10) 
/var/tmp/pbs.5076255.sched01/tmpgr0kyu9k/0plolsrat.sdf

>  <i_m_source_file_index>  (10) 
6

>  <i_lp_mmshare_version>  (10) 
48012

>  <i_f3d_flags>  (10) 
0

>  <s_epik_input>  (10) 
W0NIMl0xW0NIXShbQ0gyXTIpW0NIMl1DMTJDKD1PKU4oW0NIMl0zKVtDSDJdW0NAQEhdKFtDQEhdMzQpW0NIMl1OKFtDSDJdNCljNVtjSF1uc241

>  <s_epik_cmdline>  (10) 
J2VwaWtfcHl0aG9uJywgJy1waHQnLCAnMi4wJywgJy1waCcsICc3LjAnLCAnLXRuJywgJzgnLCAnLW1hJywgJzIwMCcsICctaW1hZScsICc8aW5maWxlLm1hZT4nLCAnLW9tYWUnLCAnPG91dGZpbGUubWFlPic=

>  <r_lp_tautomer_probability>  (10) 
1

>  <r_epik_Ionization_Penalty>  (10) 
4.58735e-05

>  <r_epik_Ionization_Penalty_Charging>  (10) 
0

>  <r_epik_Ionization_Penalty_Neutral>  (10) 
4.58735e-05

>  <r_epik_State_Penalty>  (10) 
-0

>  <r_epik_Charging_Adjusted_Penalty>  (10) 
0

>  <i_epik_Tot_Q>  (10) 
0

>  <i_epik_Tot_abs_Q>  (10) 
0

>  <s_lp_Force_Field>  (10) 
OPLS3e

>  <r_lp_Energy>  (10) 
108.942

>  <b_lp_Chiralities_Consistent>  (10) 
1

>  <s_lp_Variant>  (10) 
2:0-1

>  <s_i_glide_gridfile>  (10) 
pfpi4k_grid

>  <i_i_glide_lignum>  (10) 
6

>  <i_i_glide_rotatable_bonds>  (10) 
3

>  <r_i_docking_score>  (10) 
-2.79764

>  <r_i_glide_ligand_efficiency>  (10) 
-0.139882

>  <r_i_glide_ligand_efficiency_sa>  (10) 
-0.379699

>  <r_i_glide_ligand_efficiency_ln>  (10) 
-0.700158

>  <r_i_glide_gscore>  (10) 
-2.79764

>  <r_i_glide_lipo>  (10) 
-0.403156

>  <r_i_glide_hbond>  (10) 
0

>  <r_i_glide_metal>  (10) 
-0

>  <r_i_glide_rewards>  (10) 
-1.42919

>  <r_i_glide_evdw>  (10) 
-29.3433

>  <r_i_glide_ecoul>  (10) 
-0.633653

>  <r_i_glide_erotb>  (10) 
0.648366

>  <r_i_glide_esite>  (10) 
-0.051446

>  <r_i_glide_emodel>  (10) 
-34.9334

>  <r_i_glide_energy>  (10) 
-29.977

>  <r_i_glide_einternal>  (10) 
0.370156

>  <r_i_glide_intrahb_reward>  (10) 
-0

>  <i_i_glide_confnum>  (10) 
1

>  <i_i_glide_posenum>  (10) 
30

>  <r_i_glide_eff_state_penalty>  (10) 
0

>  <ligand_id>  (10) 
2

>  <original_smiles>  (10) 
O=C(N1CC2CN(c3cnsn3)CC2C1)C12CC(C1)C2

>  <smiles>  (10) 
[H]c1nsnc1N1C([H])([H])C2([H])C([H])([H])N(C(=O)C34C([H])([H])C([H])(C3([H])[H])C4([H])[H])C([H])([H])C2([H])C1([H])[H]

$$$$
3:0:0
     RDKit          3D

 54 56  0  0  1  0  0  0  0  0999 V2000
    3.9961    0.8033   -4.1386 C   0  0  0  0  0  0  0  0  0  0  0  0
    3.9276   -0.4789   -3.3210 C   0  0  0  0  0  0  0  0  0  0  0  0
    4.4342   -0.5658   -2.0700 C   0  0  0  0  0  0  0  0  0  0  0  0
    4.3385   -1.7195   -1.0769 C   0  0  1  0  0  0  0  0  0  0  0  0
    4.1699   -1.2899    0.4113 C   0  0  0  0  0  0  0  0  0  0  0  0
    4.9991   -0.1159    0.9620 C   0  0  0  0  0  0  0  0  0  0  0  0
    5.2014   -0.0631    2.5198 C   0  0  0  0  0  0  0  0  0  0  0  0
    5.6255   -1.2840    3.0741 O   0  0  0  0  0  0  0  0  0  0  0  0
    3.3539   -1.9761    1.2342 C   0  0  0  0  0  0  0  0  0  0  0  0
    2.6673   -3.2839    0.9077 C   0  0  2  0  0  0  0  0  0  0  0  0
    2.8359   -4.3904    2.0670 C   0  0  0  0  0  0  0  0  0  0  0  0
    2.8752   -3.7854    3.4926 C   0  0  0  0  0  0  0  0  0  0  0  0
    1.6760   -5.4158    2.1360 C   0  0  0  0  0  0  0  0  0  0  0  0
    4.1511   -5.1833    1.8830 C   0  0  0  0  0  0  0  0  0  0  0  0
    4.2559   -5.7783    0.4795 C   0  0  0  0  0  0  0  0  0  0  0  0
    4.2450   -4.6514   -0.5586 C   0  0  0  0  0  0  0  0  0  0  0  0
    2.9308   -3.7910   -0.5719 C   0  0  1  0  0  0  0  0  0  0  0  0
    1.5933   -4.4278   -1.0235 C   0  0  0  0  0  0  0  0  0  0  0  0
    3.2128   -2.6362   -1.5709 C   0  0  2  0  0  0  0  0  0  0  0  0
    3.5000   -2.9173   -3.0994 C   0  0  1  0  0  0  0  0  0  0  0  0
    2.6480   -3.8637   -3.7263 O   0  0  0  0  0  0  0  0  0  0  0  0
    3.2622   -1.6400   -3.9585 C   0  0  0  0  0  0  0  0  0  0  0  0
    4.5756    0.6668   -5.0426 H   0  0  0  0  0  0  0  0  0  0  0  0
    4.4578    1.6045   -3.5714 H   0  0  0  0  0  0  0  0  0  0  0  0
    3.0163    1.1709   -4.4332 H   0  0  0  0  0  0  0  0  0  0  0  0
    4.9857    0.2436   -1.7173 H   0  0  0  0  0  0  0  0  0  0  0  0
    5.3230   -2.1704   -1.1463 H   0  0  0  0  0  0  0  0  0  0  0  0
    5.9820   -0.1348    0.4930 H   0  0  0  0  0  0  0  0  0  0  0  0
    4.5131    0.8070    0.6422 H   0  0  0  0  0  0  0  0  0  0  0  0
    6.0345    0.5675    2.8297 H   0  0  0  0  0  0  0  0  0  0  0  0
    4.3028    0.2961    3.0210 H   0  0  0  0  0  0  0  0  0  0  0  0
    4.9862   -1.9638    2.9061 H   0  0  0  0  0  0  0  0  0  0  0  0
    3.1218   -1.6011    2.2424 H   0  0  0  0  0  0  0  0  0  0  0  0
    1.6677   -2.8745    0.9618 H   0  0  0  0  0  0  0  0  0  0  0  0
    2.8267   -4.5792    4.2386 H   0  0  0  0  0  0  0  0  0  0  0  0
    2.0287   -3.1225    3.6629 H   0  0  0  0  0  0  0  0  0  0  0  0
    3.8010   -3.2458    3.6837 H   0  0  0  0  0  0  0  0  0  0  0  0
    1.7950   -6.0904    2.9827 H   0  0  0  0  0  0  0  0  0  0  0  0
    1.6222   -6.0683    1.2638 H   0  0  0  0  0  0  0  0  0  0  0  0
    0.7183   -4.9243    2.2883 H   0  0  0  0  0  0  0  0  0  0  0  0
    5.0056   -4.5129    2.0140 H   0  0  0  0  0  0  0  0  0  0  0  0
    4.2481   -5.9674    2.6464 H   0  0  0  0  0  0  0  0  0  0  0  0
    5.1965   -6.3190    0.3893 H   0  0  0  0  0  0  0  0  0  0  0  0
    3.4738   -6.5029    0.2842 H   0  0  0  0  0  0  0  0  0  0  0  0
    5.1526   -4.0462   -0.3151 H   0  0  0  0  0  0  0  0  0  0  0  0
    4.4171   -5.0593   -1.5434 H   0  0  0  0  0  0  0  0  0  0  0  0
    1.5905   -5.4238   -1.4048 H   0  0  0  0  0  0  0  0  0  0  0  0
    1.0073   -3.7704   -1.6691 H   0  0  0  0  0  0  0  0  0  0  0  0
    1.0367   -4.6736   -0.1345 H   0  0  0  0  0  0  0  0  0  0  0  0
    2.2972   -2.0552   -1.6148 H   0  0  0  0  0  0  0  0  0  0  0  0
    4.5460   -3.2490   -3.2104 H   0  0  0  0  0  0  0  0  0  0  0  0
    2.6843   -4.6649   -3.2575 H   0  0  0  0  0  0  0  0  0  0  0  0
    2.2125   -1.3661   -3.9476 H   0  0  0  0  0  0  0  0  0  0  0  0
    3.6159   -1.7454   -4.9953 H   0  0  0  0  0  0  0  0  0  0  0  0
  1  2  1  0
  1 23  1  0
  1 24  1  0
  1 25  1  0
  2 22  1  0
  2  3  2  0
  3  4  1  0
  3 26  1  0
  4 19  1  0
  4  5  1  0
  4 27  1  1
  5  6  1  0
  5  9  2  0
  6  7  1  0
  6 28  1  0
  6 29  1  0
  7  8  1  0
  7 30  1  0
  7 31  1  0
  8 32  1  0
  9 10  1  0
  9 33  1  0
 10 17  1  0
 10 11  1  0
 10 34  1  6
 11 12  1  0
 11 13  1  0
 11 14  1  0
 12 35  1  0
 12 36  1  0
 12 37  1  0
 13 38  1  0
 13 39  1  0
 13 40  1  0
 14 15  1  0
 14 41  1  0
 14 42  1  0
 15 16  1  0
 15 43  1  0
 15 44  1  0
 16 17  1  0
 16 45  1  0
 16 46  1  0
 17 18  1  6
 17 19  1  0
 18 47  1  0
 18 48  1  0
 18 49  1  0
 19 20  1  0
 19 50  1  6
 20 21  1  0
 20 22  1  0
 20 51  1  1
 21 52  1  0
 22 53  1  0
 22 54  1  0
M  END
>  <i_m_ct_stereo_status>  (11) 
1

>  <s_m_source_file>  (11) 
/var/tmp/pbs.5076255.sched01/tmpgr0kyu9k/0plolsrat.sdf

>  <i_m_source_file_index>  (11) 
7

>  <i_lp_mmshare_version>  (11) 
48012

>  <i_f3d_flags>  (11) 
0

>  <s_epik_input>  (11) 
W0NIM11DKD1bQ0hdMSlbQ0gyXVtDQEhdKFtPSF0pW0NAQEhdMltDQEBIXTFDKFtDSDJdW0NIMl1bT0hdKT1bQ0hdW0NAQEhdKFtDQEBdMjNbQ0gzXSlDKFtDSDNdKShbQ0gzXSlbQ0gyXVtDSDJdW0NIMl0z

>  <s_epik_cmdline>  (11) 
J2VwaWtfcHl0aG9uJywgJy1waHQnLCAnMi4wJywgJy1waCcsICc3LjAnLCAnLXRuJywgJzgnLCAnLW1hJywgJzIwMCcsICctaW1hZScsICc8aW5maWxlLm1hZT4nLCAnLW9tYWUnLCAnPG91dGZpbGUubWFlPic=

>  <r_lp_tautomer_probability>  (11) 
1

>  <r_epik_Ionization_Penalty>  (11) 
7.76179e-07

>  <r_epik_Ionization_Penalty_Charging>  (11) 
0

>  <r_epik_Ionization_Penalty_Neutral>  (11) 
7.76179e-07

>  <r_epik_State_Penalty>  (11) 
-0

>  <r_epik_Charging_Adjusted_Penalty>  (11) 
0

>  <i_epik_Tot_Q>  (11) 
0

>  <i_epik_Tot_abs_Q>  (11) 
0

>  <s_lp_Force_Field>  (11) 
OPLS3e

>  <r_lp_Energy>  (11) 
44.5644

>  <b_lp_Chiralities_Consistent>  (11) 
1

>  <s_lp_Variant>  (11) 
3:0-1

>  <s_i_glide_gridfile>  (11) 
pfpi4k_grid

>  <i_i_glide_lignum>  (11) 
7

>  <i_i_glide_rotatable_bonds>  (11) 
4

>  <r_i_docking_score>  (11) 
-2.43091

>  <r_i_glide_ligand_efficiency>  (11) 
-0.110496

>  <r_i_glide_ligand_efficiency_sa>  (11) 
-0.309614

>  <r_i_glide_ligand_efficiency_ln>  (11) 
-0.594204

>  <r_i_glide_gscore>  (11) 
-2.43091

>  <r_i_glide_lipo>  (11) 
-0.689519

>  <r_i_glide_hbond>  (11) 
-0.32

>  <r_i_glide_metal>  (11) 
-0

>  <r_i_glide_rewards>  (11) 
-1.33318

>  <r_i_glide_evdw>  (11) 
2.1017

>  <r_i_glide_ecoul>  (11) 
-3.94132

>  <r_i_glide_erotb>  (11) 
0.397899

>  <r_i_glide_esite>  (11) 
0

>  <r_i_glide_emodel>  (11) 
-1.31359

>  <r_i_glide_energy>  (11) 
-1.83962

>  <r_i_glide_einternal>  (11) 
6.69017

>  <r_i_glide_intrahb_reward>  (11) 
-0

>  <i_i_glide_confnum>  (11) 
2

>  <i_i_glide_posenum>  (11) 
1

>  <r_i_glide_eff_state_penalty>  (11) 
0

>  <ligand_id>  (11) 
3

>  <original_smiles>  (11) 
CC1=CC2C(CCO)=CC3C(C)(C)CCCC3(C)C2C(O)C1

>  <smiles>  (11) 
[H]OC([H])([H])C([H])([H])C1=C([H])C2([H])C(C([H])([H])[H])(C([H])([H])[H])C([H])([H])C([H])([H])C([H])([H])C2(C([H])([H])[H])C2([H])C1([H])C([H])=C(C([H])([H])[H])C([H])([H])C2([H])O[H]

$$$$
3:0:1
     RDKit          3D

 54 56  0  0  1  0  0  0  0  0999 V2000
    3.8776    0.7867   -4.2750 C   0  0  0  0  0  0  0  0  0  0  0  0
    3.8170   -0.4668   -3.4137 C   0  0  0  0  0  0  0  0  0  0  0  0
    4.4114   -0.5404   -2.2133 C   0  0  0  0  0  0  0  0  0  0  0  0
    4.3452   -1.7122   -1.2437 C   0  0  1  0  0  0  0  0  0  0  0  0
    4.2819   -1.3180    0.2474 C   0  0  0  0  0  0  0  0  0  0  0  0
    5.1295   -0.1460    0.7607 C   0  0  0  0  0  0  0  0  0  0  0  0
    5.3900   -0.1480    2.3001 C   0  0  0  0  0  0  0  0  0  0  0  0
    5.8734   -1.3765    2.7829 O   0  0  0  0  0  0  0  0  0  0  0  0
    3.5440   -2.0335    1.1205 C   0  0  0  0  0  0  0  0  0  0  0  0
    2.7953   -3.3205    0.8500 C   0  0  2  0  0  0  0  0  0  0  0  0
    3.0196   -4.4205    1.9990 C   0  0  0  0  0  0  0  0  0  0  0  0
    3.1283   -3.8116    3.4164 C   0  0  0  0  0  0  0  0  0  0  0  0
    1.8455   -5.4239    2.1094 C   0  0  0  0  0  0  0  0  0  0  0  0
    4.3151   -5.2261    1.7528 C   0  0  0  0  0  0  0  0  0  0  0  0
    4.3433   -5.8215    0.3408 C   0  0  0  0  0  0  0  0  0  0  0  0
    4.2911   -4.6684   -0.6925 C   0  0  0  0  0  0  0  0  0  0  0  0
    2.9791   -3.8156   -0.6413 C   0  0  1  0  0  0  0  0  0  0  0  0
    1.5860   -4.4636   -1.0232 C   0  0  0  0  0  0  0  0  0  0  0  0
    3.1887   -2.6506   -1.6587 C   0  0  2  0  0  0  0  0  0  0  0  0
    3.3991   -2.9464   -3.2089 C   0  0  1  0  0  0  0  0  0  0  0  0
    2.5427   -3.8518   -3.8865 O   0  0  0  0  0  0  0  0  0  0  0  0
    3.1157   -1.6539   -3.9939 C   0  0  0  0  0  0  0  0  0  0  0  0
    4.4280    0.5927   -5.1927 H   0  0  0  0  0  0  0  0  0  0  0  0
    4.3797    1.6218   -3.7603 H   0  0  0  0  0  0  0  0  0  0  0  0
    2.8791    1.1326   -4.5544 H   0  0  0  0  0  0  0  0  0  0  0  0
    5.0272    0.2709   -1.9111 H   0  0  0  0  0  0  0  0  0  0  0  0
    5.3256   -2.1873   -1.3581 H   0  0  0  0  0  0  0  0  0  0  0  0
    6.0870   -0.1324    0.2401 H   0  0  0  0  0  0  0  0  0  0  0  0
    4.6137    0.7686    0.4844 H   0  0  0  0  0  0  0  0  0  0  0  0
    6.1517    0.5511    2.5969 H   0  0  0  0  0  0  0  0  0  0  0  0
    4.5105    0.1741    2.8543 H   0  0  0  0  0  0  0  0  0  0  0  0
    6.6133   -1.6194    2.2479 H   0  0  0  0  0  0  0  0  0  0  0  0
    3.4201   -1.7191    2.1471 H   0  0  0  0  0  0  0  0  0  0  0  0
    1.8112   -2.9243    0.9727 H   0  0  0  0  0  0  0  0  0  0  0  0
    3.1225   -4.5874    4.1794 H   0  0  0  0  0  0  0  0  0  0  0  0
    2.3017   -3.1347    3.6264 H   0  0  0  0  0  0  0  0  0  0  0  0
    4.0625   -3.2703    3.5542 H   0  0  0  0  0  0  0  0  0  0  0  0
    1.9521   -6.0859    2.9666 H   0  0  0  0  0  0  0  0  0  0  0  0
    1.7535   -6.0862    1.2502 H   0  0  0  0  0  0  0  0  0  0  0  0
    0.9055   -4.9042    2.2510 H   0  0  0  0  0  0  0  0  0  0  0  0
    5.1683   -4.5480    1.8288 H   0  0  0  0  0  0  0  0  0  0  0  0
    4.4546   -6.0015    2.5184 H   0  0  0  0  0  0  0  0  0  0  0  0
    5.2787   -6.3645    0.2098 H   0  0  0  0  0  0  0  0  0  0  0  0
    3.5593   -6.5686    0.2033 H   0  0  0  0  0  0  0  0  0  0  0  0
    5.1994   -4.0628   -0.4761 H   0  0  0  0  0  0  0  0  0  0  0  0
    4.4829   -4.9760   -1.7037 H   0  0  0  0  0  0  0  0  0  0  0  0
    1.5271   -5.4754   -1.3766 H   0  0  0  0  0  0  0  0  0  0  0  0
    0.9950   -3.7921   -1.6710 H   0  0  0  0  0  0  0  0  0  0  0  0
    1.0058   -4.7145   -0.1812 H   0  0  0  0  0  0  0  0  0  0  0  0
    2.2885   -2.0619   -1.6050 H   0  0  0  0  0  0  0  0  0  0  0  0
    4.4392   -3.2211   -3.3453 H   0  0  0  0  0  0  0  0  0  0  0  0
    1.6661   -3.6549   -3.5841 H   0  0  0  0  0  0  0  0  0  0  0  0
    2.0458   -1.4722   -3.9954 H   0  0  0  0  0  0  0  0  0  0  0  0
    3.4539   -1.7395   -5.0274 H   0  0  0  0  0  0  0  0  0  0  0  0
  1  2  1  0
  1 23  1  0
  1 24  1  0
  1 25  1  0
  2 22  1  0
  2  3  2  0
  3  4  1  0
  3 26  1  0
  4 19  1  0
  4  5  1  0
  4 27  1  1
  5  6  1  0
  5  9  2  0
  6  7  1  0
  6 28  1  0
  6 29  1  0
  7  8  1  0
  7 30  1  0
  7 31  1  0
  8 32  1  0
  9 10  1  0
  9 33  1  0
 10 17  1  0
 10 11  1  0
 10 34  1  6
 11 12  1  0
 11 13  1  0
 11 14  1  0
 12 35  1  0
 12 36  1  0
 12 37  1  0
 13 38  1  0
 13 39  1  0
 13 40  1  0
 14 15  1  0
 14 41  1  0
 14 42  1  0
 15 16  1  0
 15 43  1  0
 15 44  1  0
 16 17  1  0
 16 45  1  0
 16 46  1  0
 17 18  1  6
 17 19  1  0
 18 47  1  0
 18 48  1  0
 18 49  1  0
 19 20  1  0
 19 50  1  6
 20 21  1  0
 20 22  1  0
 20 51  1  1
 21 52  1  0
 22 53  1  0
 22 54  1  0
M  END
>  <i_m_ct_stereo_status>  (12) 
1

>  <s_m_source_file>  (12) 
/var/tmp/pbs.5076255.sched01/tmpgr0kyu9k/0plolsrat.sdf

>  <i_m_source_file_index>  (12) 
7

>  <i_lp_mmshare_version>  (12) 
48012

>  <i_f3d_flags>  (12) 
0

>  <s_epik_input>  (12) 
W0NIM11DKD1bQ0hdMSlbQ0gyXVtDQEhdKFtPSF0pW0NAQEhdMltDQEBIXTFDKFtDSDJdW0NIMl1bT0hdKT1bQ0hdW0NAQEhdKFtDQEBdMjNbQ0gzXSlDKFtDSDNdKShbQ0gzXSlbQ0gyXVtDSDJdW0NIMl0z

>  <s_epik_cmdline>  (12) 
J2VwaWtfcHl0aG9uJywgJy1waHQnLCAnMi4wJywgJy1waCcsICc3LjAnLCAnLXRuJywgJzgnLCAnLW1hJywgJzIwMCcsICctaW1hZScsICc8aW5maWxlLm1hZT4nLCAnLW9tYWUnLCAnPG91dGZpbGUubWFlPic=

>  <r_lp_tautomer_probability>  (12) 
1

>  <r_epik_Ionization_Penalty>  (12) 
7.76179e-07

>  <r_epik_Ionization_Penalty_Charging>  (12) 
0

>  <r_epik_Ionization_Penalty_Neutral>  (12) 
7.76179e-07

>  <r_epik_State_Penalty>  (12) 
-0

>  <r_epik_Charging_Adjusted_Penalty>  (12) 
0

>  <i_epik_Tot_Q>  (12) 
0

>  <i_epik_Tot_abs_Q>  (12) 
0

>  <s_lp_Force_Field>  (12) 
OPLS3e

>  <r_lp_Energy>  (12) 
44.5644

>  <b_lp_Chiralities_Consistent>  (12) 
1

>  <s_lp_Variant>  (12) 
3:0-1

>  <s_i_glide_gridfile>  (12) 
pfpi4k_grid

>  <i_i_glide_lignum>  (12) 
7

>  <i_i_glide_rotatable_bonds>  (12) 
4

>  <r_i_docking_score>  (12) 
-1.47316

>  <r_i_glide_ligand_efficiency>  (12) 
-0.0669619

>  <r_i_glide_ligand_efficiency_sa>  (12) 
-0.18763

>  <r_i_glide_ligand_efficiency_ln>  (12) 
-0.360094

>  <r_i_glide_gscore>  (12) 
-1.47316

>  <r_i_glide_lipo>  (12) 
-0.716991

>  <r_i_glide_hbond>  (12) 
-0.146007

>  <r_i_glide_metal>  (12) 
-0

>  <r_i_glide_rewards>  (12) 
-1.33318

>  <r_i_glide_evdw>  (12) 
-3.49466

>  <r_i_glide_ecoul>  (12) 
-0.322397

>  <r_i_glide_erotb>  (12) 
0.397899

>  <r_i_glide_esite>  (12) 
0

>  <r_i_glide_emodel>  (12) 
1.05832

>  <r_i_glide_energy>  (12) 
-3.81706

>  <r_i_glide_einternal>  (12) 
5.80462

>  <r_i_glide_intrahb_reward>  (12) 
-0

>  <i_i_glide_confnum>  (12) 
2

>  <i_i_glide_posenum>  (12) 
38

>  <r_i_glide_eff_state_penalty>  (12) 
0

>  <ligand_id>  (12) 
3

>  <original_smiles>  (12) 
CC1=CC2C(CCO)=CC3C(C)(C)CCCC3(C)C2C(O)C1

>  <smiles>  (12) 
[H]OC([H])([H])C([H])([H])C1=C([H])C2([H])C(C([H])([H])[H])(C([H])([H])[H])C([H])([H])C([H])([H])C([H])([H])C2(C([H])([H])[H])C2([H])C1([H])C([H])=C(C([H])([H])[H])C([H])([H])C2([H])O[H]

$$$$
4:0:0
     RDKit          3D

 45 48  0  0  1  0  0  0  0  0999 V2000
    3.6030    0.6384    1.5424 C   0  0  0  0  0  0  0  0  0  0  0  0
    4.1262   -0.1370    0.4884 O   0  0  0  0  0  0  0  0  0  0  0  0
    3.9571   -1.5132    0.7388 C   0  0  2  0  0  0  0  0  0  0  0  0
    4.9413   -2.0762    1.6368 O   0  0  0  0  0  0  0  0  0  0  0  0
    5.6335   -2.6663    0.5110 C   0  0  2  0  0  0  0  0  0  0  0  0
    6.2830   -4.0227    0.7742 C   0  0  0  0  0  0  0  0  0  0  0  0
    6.5171   -1.7654   -0.2291 O   0  0  0  0  0  0  0  0  0  0  0  0
    5.6134   -1.8606   -1.3505 C   0  0  2  0  0  0  0  0  0  0  0  0
    5.3544   -0.6789   -2.0858 O   0  0  0  0  0  0  0  0  0  0  0  0
    4.1121   -0.5289   -2.7216 C   0  0  1  0  0  0  0  0  0  0  0  0
    4.1422    0.5170   -3.6789 O   0  0  0  0  0  0  0  0  0  0  0  0
    3.3951   -1.7643   -3.2903 C   0  0  1  0  0  0  0  0  0  0  0  0
    4.2009   -2.5030   -4.3268 C   0  0  0  0  0  0  0  0  0  0  0  0
    2.7226   -2.5889   -2.1781 C   0  0  1  0  0  0  0  0  0  0  0  0
    1.6336   -3.5447   -2.6163 C   0  0  0  0  0  0  0  0  0  0  0  0
    1.3429   -4.4376   -1.4186 C   0  0  0  0  0  0  0  0  0  0  0  0
    2.3980   -4.0899   -0.3483 C   0  0  1  0  0  0  0  0  0  0  0  0
    2.7987   -5.2976    0.5231 C   0  0  0  0  0  0  0  0  0  0  0  0
    3.5327   -3.3271   -1.1219 C   0  0  1  0  0  0  0  0  0  0  0  0
    4.4061   -4.2465   -1.7374 O   0  0  0  0  0  0  0  0  0  0  0  0
    4.4771   -2.3509   -0.4366 C   0  0  2  0  0  0  0  0  0  0  0  0
    3.7501    1.6761    1.3054 H   0  0  0  0  0  0  0  0  0  0  0  0
    4.1244    0.4464    2.4785 H   0  0  0  0  0  0  0  0  0  0  0  0
    2.5290    0.5107    1.6668 H   0  0  0  0  0  0  0  0  0  0  0  0
    2.9381   -1.7553    1.0404 H   0  0  0  0  0  0  0  0  0  0  0  0
    7.1565   -3.9173    1.4148 H   0  0  0  0  0  0  0  0  0  0  0  0
    6.6219   -4.5043   -0.1404 H   0  0  0  0  0  0  0  0  0  0  0  0
    5.6154   -4.7156    1.2747 H   0  0  0  0  0  0  0  0  0  0  0  0
    6.0233   -2.5890   -2.0498 H   0  0  0  0  0  0  0  0  0  0  0  0
    3.4572   -0.2798   -1.9119 H   0  0  0  0  0  0  0  0  0  0  0  0
    3.5152    1.1849   -3.4280 H   0  0  0  0  0  0  0  0  0  0  0  0
    2.5430   -1.3365   -3.8239 H   0  0  0  0  0  0  0  0  0  0  0  0
    5.0652   -3.0094   -3.9162 H   0  0  0  0  0  0  0  0  0  0  0  0
    4.5201   -1.7736   -5.0730 H   0  0  0  0  0  0  0  0  0  0  0  0
    3.5599   -3.2476   -4.7950 H   0  0  0  0  0  0  0  0  0  0  0  0
    2.2240   -1.8543   -1.5792 H   0  0  0  0  0  0  0  0  0  0  0  0
    0.7169   -3.0534   -2.9073 H   0  0  0  0  0  0  0  0  0  0  0  0
    1.9199   -4.1366   -3.4840 H   0  0  0  0  0  0  0  0  0  0  0  0
    0.2914   -4.3639   -1.1261 H   0  0  0  0  0  0  0  0  0  0  0  0
    1.3576   -5.4835   -1.6358 H   0  0  0  0  0  0  0  0  0  0  0  0
    1.8860   -3.3874    0.2901 H   0  0  0  0  0  0  0  0  0  0  0  0
    3.3475   -6.0624   -0.0293 H   0  0  0  0  0  0  0  0  0  0  0  0
    1.9226   -5.7862    0.9566 H   0  0  0  0  0  0  0  0  0  0  0  0
    3.4159   -4.9678    1.3540 H   0  0  0  0  0  0  0  0  0  0  0  0
    3.8781   -4.9865   -1.9660 H   0  0  0  0  0  0  0  0  0  0  0  0
  1  2  1  0
  1 22  1  0
  1 23  1  0
  1 24  1  0
  2  3  1  0
  3 21  1  0
  3  4  1  0
  3 25  1  1
  4  5  1  0
 21  5  1  1
  5  6  1  1
  5  7  1  0
  6 26  1  0
  6 27  1  0
  6 28  1  0
  7  8  1  0
  8 21  1  0
  8  9  1  0
  8 29  1  6
  9 10  1  0
 10 11  1  0
 10 12  1  0
 10 30  1  1
 11 31  1  0
 12 13  1  0
 12 14  1  0
 12 32  1  6
 13 33  1  0
 13 34  1  0
 13 35  1  0
 14 19  1  0
 14 15  1  0
 14 36  1  1
 15 16  1  0
 15 37  1  0
 15 38  1  0
 16 17  1  0
 16 39  1  0
 16 40  1  0
 17 18  1  0
 17 19  1  0
 17 41  1  1
 18 42  1  0
 18 43  1  0
 18 44  1  0
 19 20  1  6
 19 21  1  0
 20 45  1  0
M  END
>  <i_m_ct_stereo_status>  (13) 
1

>  <s_m_source_file>  (13) 
/var/tmp/pbs.5076255.sched01/tmpgr0kyu9k/0plolsrat.sdf

>  <i_m_source_file_index>  (13) 
8

>  <i_lp_mmshare_version>  (13) 
48012

>  <i_f3d_flags>  (13) 
0

>  <s_epik_input>  (13) 
W0NIM11PW0NAQEhdMU9bQ0BdKFtDQEBdMTIzKShbQ0gzXSlPW0NAQEhdMk9bQ0BASF0oW09IXSlbQ0BASF0oW0NIM10pW0NAQEhdNFtDQF0zKFtPSF0pW0NASF0oW0NIM10pW0NIMl1bQ0gyXTQ=

>  <s_epik_cmdline>  (13) 
J2VwaWtfcHl0aG9uJywgJy1waHQnLCAnMi4wJywgJy1waCcsICc3LjAnLCAnLXRuJywgJzgnLCAnLW1hJywgJzIwMCcsICctaW1hZScsICc8aW5maWxlLm1hZT4nLCAnLW9tYWUnLCAnPG91dGZpbGUubWFlPic=

>  <r_lp_tautomer_probability>  (13) 
1

>  <r_epik_Ionization_Penalty>  (13) 
2.3069e-07

>  <r_epik_Ionization_Penalty_Charging>  (13) 
0

>  <r_epik_Ionization_Penalty_Neutral>  (13) 
2.3069e-07

>  <r_epik_State_Penalty>  (13) 
-0

>  <r_epik_Charging_Adjusted_Penalty>  (13) 
0

>  <i_epik_Tot_Q>  (13) 
0

>  <i_epik_Tot_abs_Q>  (13) 
0

>  <s_epik_Chemistry_Notes>  (13) 
This compound contains an acetal/aminal-like group ( X-CH(R)-Y where X, Y are N, S, or O) that may be acid/base labile, releasing an aldehyde.

>  <s_lp_Force_Field>  (13) 
OPLS3e

>  <r_lp_Energy>  (13) 
22.1338

>  <b_lp_Chiralities_Consistent>  (13) 
1

>  <s_lp_Variant>  (13) 
4:0-1

>  <s_i_glide_gridfile>  (13) 
pfpi4k_grid

>  <i_i_glide_lignum>  (13) 
8

>  <i_i_glide_rotatable_bonds>  (13) 
3

>  <r_i_docking_score>  (13) 
-4.12089

>  <r_i_glide_ligand_efficiency>  (13) 
-0.196233

>  <r_i_glide_ligand_efficiency_sa>  (13) 
-0.541391

>  <r_i_glide_ligand_efficiency_ln>  (13) 
-1.01888

>  <r_i_glide_gscore>  (13) 
-4.12089

>  <r_i_glide_lipo>  (13) 
-0.432726

>  <r_i_glide_hbond>  (13) 
-0.368387

>  <r_i_glide_metal>  (13) 
-0

>  <r_i_glide_rewards>  (13) 
-1.66448

>  <r_i_glide_evdw>  (13) 
2.63538

>  <r_i_glide_ecoul>  (13) 
-11.4086

>  <r_i_glide_erotb>  (13) 
0

>  <r_i_glide_esite>  (13) 
-0.0757785

>  <r_i_glide_emodel>  (13) 
-10.525

>  <r_i_glide_energy>  (13) 
-8.77323

>  <r_i_glide_einternal>  (13) 
2.60229

>  <r_i_glide_intrahb_reward>  (13) 
-0

>  <i_i_glide_confnum>  (13) 
1

>  <i_i_glide_posenum>  (13) 
22

>  <r_i_glide_eff_state_penalty>  (13) 
0

>  <ligand_id>  (13) 
4

>  <original_smiles>  (13) 
COC1OC2(C)OC3OC(O)C(C)C4CCC(C)C4(O)C132

>  <smiles>  (13) 
[H]OC1([H])OC2([H])OC3(C([H])([H])[H])OC([H])(OC([H])([H])[H])C23C2(O[H])C([H])(C([H])([H])[H])C([H])([H])C([H])([H])C2([H])C1([H])C([H])([H])[H]

$$$$
4:0:1
     RDKit          3D

 45 48  0  0  1  0  0  0  0  0999 V2000
    5.2377   -6.6884    3.7070 C   0  0  0  0  0  0  0  0  0  0  0  0
    4.5649   -5.7606    2.8765 O   0  0  0  0  0  0  0  0  0  0  0  0
    5.3777   -4.6771    2.4891 C   0  0  2  0  0  0  0  0  0  0  0  0
    5.7992   -3.8369    3.6004 O   0  0  0  0  0  0  0  0  0  0  0  0
    4.8946   -2.7811    3.1127 C   0  0  2  0  0  0  0  0  0  0  0  0
    5.4161   -1.3573    3.2524 C   0  0  0  0  0  0  0  0  0  0  0  0
    3.5321   -2.9197    3.5539 O   0  0  0  0  0  0  0  0  0  0  0  0
    3.1434   -3.2366    2.2089 C   0  0  2  0  0  0  0  0  0  0  0  0
    2.2086   -4.3090    2.0435 O   0  0  0  0  0  0  0  0  0  0  0  0
    2.3197   -5.1237    0.8782 C   0  0  1  0  0  0  0  0  0  0  0  0
    1.1598   -5.8937    0.6406 O   0  0  0  0  0  0  0  0  0  0  0  0
    2.7595   -4.3127   -0.4097 C   0  0  1  0  0  0  0  0  0  0  0  0
    1.9444   -3.1001   -0.8347 C   0  0  0  0  0  0  0  0  0  0  0  0
    4.2890   -4.1199   -0.5867 C   0  0  1  0  0  0  0  0  0  0  0  0
    4.8544   -3.7756   -1.9888 C   0  0  0  0  0  0  0  0  0  0  0  0
    6.2740   -3.2082   -1.7454 C   0  0  0  0  0  0  0  0  0  0  0  0
    6.4468   -3.1872   -0.2038 C   0  0  1  0  0  0  0  0  0  0  0  0
    7.4338   -2.0980    0.2213 C   0  0  0  0  0  0  0  0  0  0  0  0
    4.9864   -3.1124    0.3626 C   0  0  1  0  0  0  0  0  0  0  0  0
    4.5485   -1.7903    0.0857 O   0  0  0  0  0  0  0  0  0  0  0  0
    4.6207   -3.5287    1.8065 C   0  0  2  0  0  0  0  0  0  0  0  0
    4.5428   -7.4592    4.0397 H   0  0  0  0  0  0  0  0  0  0  0  0
    5.6477   -6.2012    4.5938 H   0  0  0  0  0  0  0  0  0  0  0  0
    6.0539   -7.1636    3.1615 H   0  0  0  0  0  0  0  0  0  0  0  0
    6.2592   -5.0142    1.9268 H   0  0  0  0  0  0  0  0  0  0  0  0
    5.4552   -1.0828    4.3037 H   0  0  0  0  0  0  0  0  0  0  0  0
    4.7517   -0.6393    2.7615 H   0  0  0  0  0  0  0  0  0  0  0  0
    6.4104   -1.2104    2.8447 H   0  0  0  0  0  0  0  0  0  0  0  0
    2.7797   -2.3046    1.7618 H   0  0  0  0  0  0  0  0  0  0  0  0
    3.1073   -5.8518    1.0561 H   0  0  0  0  0  0  0  0  0  0  0  0
    1.4206   -6.8083    0.4126 H   0  0  0  0  0  0  0  0  0  0  0  0
    2.4524   -5.0577   -1.1149 H   0  0  0  0  0  0  0  0  0  0  0  0
    2.0819   -2.3026   -0.1151 H   0  0  0  0  0  0  0  0  0  0  0  0
    0.9199   -3.3751   -1.0730 H   0  0  0  0  0  0  0  0  0  0  0  0
    2.2328   -2.6992   -1.8111 H   0  0  0  0  0  0  0  0  0  0  0  0
    4.7142   -5.0932   -0.3627 H   0  0  0  0  0  0  0  0  0  0  0  0
    4.8622   -4.6488   -2.6418 H   0  0  0  0  0  0  0  0  0  0  0  0
    4.2638   -3.0132   -2.5047 H   0  0  0  0  0  0  0  0  0  0  0  0
    7.0837   -3.7417   -2.2374 H   0  0  0  0  0  0  0  0  0  0  0  0
    6.3435   -2.2139   -2.1918 H   0  0  0  0  0  0  0  0  0  0  0  0
    6.8757   -4.1493    0.0714 H   0  0  0  0  0  0  0  0  0  0  0  0
    7.0714   -1.0950    0.0090 H   0  0  0  0  0  0  0  0  0  0  0  0
    8.3886   -2.2275   -0.2905 H   0  0  0  0  0  0  0  0  0  0  0  0
    7.6241   -2.1648    1.2733 H   0  0  0  0  0  0  0  0  0  0  0  0
    4.8447   -1.2168    0.7852 H   0  0  0  0  0  0  0  0  0  0  0  0
  1  2  1  0
  1 22  1  0
  1 23  1  0
  1 24  1  0
  2  3  1  0
  3 21  1  0
  3  4  1  0
  3 25  1  6
  4  5  1  0
 21  5  1  1
  5  6  1  6
  5  7  1  0
  6 26  1  0
  6 27  1  0
  6 28  1  0
  7  8  1  0
  8 21  1  0
  8  9  1  0
  8 29  1  6
  9 10  1  0
 10 11  1  0
 10 12  1  0
 10 30  1  1
 11 31  1  0
 12 13  1  0
 12 14  1  0
 12 32  1  6
 13 33  1  0
 13 34  1  0
 13 35  1  0
 14 19  1  0
 14 15  1  0
 14 36  1  1
 15 16  1  0
 15 37  1  0
 15 38  1  0
 16 17  1  0
 16 39  1  0
 16 40  1  0
 17 18  1  0
 17 19  1  0
 17 41  1  1
 18 42  1  0
 18 43  1  0
 18 44  1  0
 19 20  1  6
 19 21  1  0
 20 45  1  0
M  END
>  <i_m_ct_stereo_status>  (14) 
1

>  <s_m_source_file>  (14) 
/var/tmp/pbs.5076255.sched01/tmpgr0kyu9k/0plolsrat.sdf

>  <i_m_source_file_index>  (14) 
8

>  <i_lp_mmshare_version>  (14) 
48012

>  <i_f3d_flags>  (14) 
0

>  <s_epik_input>  (14) 
W0NIM11PW0NAQEhdMU9bQ0BdKFtDQEBdMTIzKShbQ0gzXSlPW0NAQEhdMk9bQ0BASF0oW09IXSlbQ0BASF0oW0NIM10pW0NAQEhdNFtDQF0zKFtPSF0pW0NASF0oW0NIM10pW0NIMl1bQ0gyXTQ=

>  <s_epik_cmdline>  (14) 
J2VwaWtfcHl0aG9uJywgJy1waHQnLCAnMi4wJywgJy1waCcsICc3LjAnLCAnLXRuJywgJzgnLCAnLW1hJywgJzIwMCcsICctaW1hZScsICc8aW5maWxlLm1hZT4nLCAnLW9tYWUnLCAnPG91dGZpbGUubWFlPic=

>  <r_lp_tautomer_probability>  (14) 
1

>  <r_epik_Ionization_Penalty>  (14) 
2.3069e-07

>  <r_epik_Ionization_Penalty_Charging>  (14) 
0

>  <r_epik_Ionization_Penalty_Neutral>  (14) 
2.3069e-07

>  <r_epik_State_Penalty>  (14) 
-0

>  <r_epik_Charging_Adjusted_Penalty>  (14) 
0

>  <i_epik_Tot_Q>  (14) 
0

>  <i_epik_Tot_abs_Q>  (14) 
0

>  <s_epik_Chemistry_Notes>  (14) 
This compound contains an acetal/aminal-like group ( X-CH(R)-Y where X, Y are N, S, or O) that may be acid/base labile, releasing an aldehyde.

>  <s_lp_Force_Field>  (14) 
OPLS3e

>  <r_lp_Energy>  (14) 
22.1338

>  <b_lp_Chiralities_Consistent>  (14) 
1

>  <s_lp_Variant>  (14) 
4:0-1

>  <s_i_glide_gridfile>  (14) 
pfpi4k_grid

>  <i_i_glide_lignum>  (14) 
8

>  <i_i_glide_rotatable_bonds>  (14) 
3

>  <r_i_docking_score>  (14) 
-2.52552

>  <r_i_glide_ligand_efficiency>  (14) 
-0.120263

>  <r_i_glide_ligand_efficiency_sa>  (14) 
-0.331796

>  <r_i_glide_ligand_efficiency_ln>  (14) 
-0.62443

>  <r_i_glide_gscore>  (14) 
-2.52552

>  <r_i_glide_lipo>  (14) 
-0.365559

>  <r_i_glide_hbond>  (14) 
0

>  <r_i_glide_metal>  (14) 
-0

>  <r_i_glide_rewards>  (14) 
-1.44841

>  <r_i_glide_evdw>  (14) 
-2.89943

>  <r_i_glide_ecoul>  (14) 
-3.47914

>  <r_i_glide_erotb>  (14) 
0

>  <r_i_glide_esite>  (14) 
-0.0447054

>  <r_i_glide_emodel>  (14) 
-6.5566

>  <r_i_glide_energy>  (14) 
-6.37857

>  <r_i_glide_einternal>  (14) 
2.13848

>  <r_i_glide_intrahb_reward>  (14) 
-0

>  <i_i_glide_confnum>  (14) 
1

>  <i_i_glide_posenum>  (14) 
7

>  <r_i_glide_eff_state_penalty>  (14) 
0

>  <ligand_id>  (14) 
4

>  <original_smiles>  (14) 
COC1OC2(C)OC3OC(O)C(C)C4CCC(C)C4(O)C132

>  <smiles>  (14) 
[H]OC1([H])OC2([H])OC3(C([H])([H])[H])OC([H])(OC([H])([H])[H])C23C2(O[H])C([H])(C([H])([H])[H])C([H])([H])C([H])([H])C2([H])C1([H])C([H])([H])[H]

$$$$
4:0:2
     RDKit          3D

 45 48  0  0  1  0  0  0  0  0999 V2000
    5.7115   -7.5740    2.0863 C   0  0  0  0  0  0  0  0  0  0  0  0
    4.9411   -6.4099    1.8318 O   0  0  0  0  0  0  0  0  0  0  0  0
    5.7273   -5.2379    1.7044 C   0  0  2  0  0  0  0  0  0  0  0  0
    6.1902   -4.6950    2.9713 O   0  0  0  0  0  0  0  0  0  0  0  0
    5.2029   -3.6526    2.8716 C   0  0  2  0  0  0  0  0  0  0  0  0
    5.5797   -2.2578    3.3729 C   0  0  0  0  0  0  0  0  0  0  0  0
    3.8914   -4.0429    3.3339 O   0  0  0  0  0  0  0  0  0  0  0  0
    3.4451   -3.8936    1.9709 C   0  0  2  0  0  0  0  0  0  0  0  0
    2.5463   -4.9048    1.5139 O   0  0  0  0  0  0  0  0  0  0  0  0
    2.5793   -5.2771    0.1629 C   0  0  1  0  0  0  0  0  0  0  0  0
    1.3143   -5.8649   -0.1725 O   0  0  0  0  0  0  0  0  0  0  0  0
    2.9078   -4.1601   -0.8730 C   0  0  1  0  0  0  0  0  0  0  0  0
    2.0189   -3.0089   -0.8164 C   0  0  0  0  0  0  0  0  0  0  0  0
    4.4415   -3.8806   -1.0034 C   0  0  1  0  0  0  0  0  0  0  0  0
    4.9086   -3.1416   -2.2665 C   0  0  0  0  0  0  0  0  0  0  0  0
    6.3289   -2.6630   -1.9244 C   0  0  0  0  0  0  0  0  0  0  0  0
    6.5697   -3.0085   -0.4404 C   0  0  1  0  0  0  0  0  0  0  0  0
    7.5300   -2.0305    0.2519 C   0  0  0  0  0  0  0  0  0  0  0  0
    5.1354   -3.1471    0.1472 C   0  0  1  0  0  0  0  0  0  0  0  0
    4.6284   -1.8194    0.3084 O   0  0  0  0  0  0  0  0  0  0  0  0
    4.8667   -3.9828    1.4394 C   0  0  2  0  0  0  0  0  0  0  0  0
    5.0546   -8.4368    2.2123 H   0  0  0  0  0  0  0  0  0  0  0  0
    6.3115   -7.4688    2.9948 H   0  0  0  0  0  0  0  0  0  0  0  0
    6.3755   -7.7792    1.2437 H   0  0  0  0  0  0  0  0  0  0  0  0
    6.5351   -5.3747    1.0075 H   0  0  0  0  0  0  0  0  0  0  0  0
    5.7641   -2.2973    4.4481 H   0  0  0  0  0  0  0  0  0  0  0  0
    4.7789   -1.5348    3.1960 H   0  0  0  0  0  0  0  0  0  0  0  0
    6.4510   -1.9016    2.8336 H   0  0  0  0  0  0  0  0  0  0  0  0
    2.9962   -2.9123    1.8570 H   0  0  0  0  0  0  0  0  0  0  0  0
    3.2847   -6.0965    0.0697 H   0  0  0  0  0  0  0  0  0  0  0  0
    1.2859   -6.7144    0.2123 H   0  0  0  0  0  0  0  0  0  0  0  0
    2.4803   -4.3645   -1.8406 H   0  0  0  0  0  0  0  0  0  0  0  0
    2.0757   -2.4059    0.0875 H   0  0  0  0  0  0  0  0  0  0  0  0
    1.0125   -3.3443   -1.0409 H   0  0  0  0  0  0  0  0  0  0  0  0
    2.2729   -2.3598   -1.6524 H   0  0  0  0  0  0  0  0  0  0  0  0
    4.9025   -4.8683   -1.0741 H   0  0  0  0  0  0  0  0  0  0  0  0
    4.8927   -3.7992   -3.1326 H   0  0  0  0  0  0  0  0  0  0  0  0
    4.2919   -2.2755   -2.4955 H   0  0  0  0  0  0  0  0  0  0  0  0
    7.0676   -3.1452   -2.5632 H   0  0  0  0  0  0  0  0  0  0  0  0
    6.3734   -1.5873   -2.0937 H   0  0  0  0  0  0  0  0  0  0  0  0
    7.0605   -3.9824   -0.4514 H   0  0  0  0  0  0  0  0  0  0  0  0
    7.1170   -1.0230    0.3527 H   0  0  0  0  0  0  0  0  0  0  0  0
    8.4647   -1.9548   -0.3037 H   0  0  0  0  0  0  0  0  0  0  0  0
    7.7732   -2.4108    1.2399 H   0  0  0  0  0  0  0  0  0  0  0  0
    5.0611   -1.4058    1.0241 H   0  0  0  0  0  0  0  0  0  0  0  0
  1  2  1  0
  1 22  1  0
  1 23  1  0
  1 24  1  0
  2  3  1  0
  3 21  1  0
  3  4  1  0
  3 25  1  6
  4  5  1  0
 21  5  1  1
  5  6  1  6
  5  7  1  0
  6 26  1  0
  6 27  1  0
  6 28  1  0
  7  8  1  0
  8 21  1  0
  8  9  1  0
  8 29  1  1
  9 10  1  0
 10 11  1  0
 10 12  1  0
 10 30  1  1
 11 31  1  0
 12 13  1  0
 12 14  1  0
 12 32  1  6
 13 33  1  0
 13 34  1  0
 13 35  1  0
 14 19  1  0
 14 15  1  0
 14 36  1  6
 15 16  1  0
 15 37  1  0
 15 38  1  0
 16 17  1  0
 16 39  1  0
 16 40  1  0
 17 18  1  0
 17 19  1  0
 17 41  1  6
 18 42  1  0
 18 43  1  0
 18 44  1  0
 19 20  1  1
 19 21  1  0
 20 45  1  0
M  END
>  <i_m_ct_stereo_status>  (15) 
1

>  <s_m_source_file>  (15) 
/var/tmp/pbs.5076255.sched01/tmpgr0kyu9k/0plolsrat.sdf

>  <i_m_source_file_index>  (15) 
8

>  <i_lp_mmshare_version>  (15) 
48012

>  <i_f3d_flags>  (15) 
0

>  <s_epik_input>  (15) 
W0NIM11PW0NAQEhdMU9bQ0BdKFtDQEBdMTIzKShbQ0gzXSlPW0NAQEhdMk9bQ0BASF0oW09IXSlbQ0BASF0oW0NIM10pW0NAQEhdNFtDQF0zKFtPSF0pW0NASF0oW0NIM10pW0NIMl1bQ0gyXTQ=

>  <s_epik_cmdline>  (15) 
J2VwaWtfcHl0aG9uJywgJy1waHQnLCAnMi4wJywgJy1waCcsICc3LjAnLCAnLXRuJywgJzgnLCAnLW1hJywgJzIwMCcsICctaW1hZScsICc8aW5maWxlLm1hZT4nLCAnLW9tYWUnLCAnPG91dGZpbGUubWFlPic=

>  <r_lp_tautomer_probability>  (15) 
1

>  <r_epik_Ionization_Penalty>  (15) 
2.3069e-07

>  <r_epik_Ionization_Penalty_Charging>  (15) 
0

>  <r_epik_Ionization_Penalty_Neutral>  (15) 
2.3069e-07

>  <r_epik_State_Penalty>  (15) 
-0

>  <r_epik_Charging_Adjusted_Penalty>  (15) 
0

>  <i_epik_Tot_Q>  (15) 
0

>  <i_epik_Tot_abs_Q>  (15) 
0

>  <s_epik_Chemistry_Notes>  (15) 
This compound contains an acetal/aminal-like group ( X-CH(R)-Y where X, Y are N, S, or O) that may be acid/base labile, releasing an aldehyde.

>  <s_lp_Force_Field>  (15) 
OPLS3e

>  <r_lp_Energy>  (15) 
22.1338

>  <b_lp_Chiralities_Consistent>  (15) 
1

>  <s_lp_Variant>  (15) 
4:0-1

>  <s_i_glide_gridfile>  (15) 
pfpi4k_grid

>  <i_i_glide_lignum>  (15) 
8

>  <i_i_glide_rotatable_bonds>  (15) 
3

>  <r_i_docking_score>  (15) 
-2.39366

>  <r_i_glide_ligand_efficiency>  (15) 
-0.113984

>  <r_i_glide_ligand_efficiency_sa>  (15) 
-0.314473

>  <r_i_glide_ligand_efficiency_ln>  (15) 
-0.591828

>  <r_i_glide_gscore>  (15) 
-2.39366

>  <r_i_glide_lipo>  (15) 
-0.320445

>  <r_i_glide_hbond>  (15) 
0

>  <r_i_glide_metal>  (15) 
-0

>  <r_i_glide_rewards>  (15) 
-1.48486

>  <r_i_glide_evdw>  (15) 
-3.26338

>  <r_i_glide_ecoul>  (15) 
-2.45663

>  <r_i_glide_erotb>  (15) 
0

>  <r_i_glide_esite>  (15) 
-0.0566937

>  <r_i_glide_emodel>  (15) 
-5.37387

>  <r_i_glide_energy>  (15) 
-5.72001

>  <r_i_glide_einternal>  (15) 
0.69087

>  <r_i_glide_intrahb_reward>  (15) 
-0

>  <i_i_glide_confnum>  (15) 
2

>  <i_i_glide_posenum>  (15) 
2

>  <r_i_glide_eff_state_penalty>  (15) 
0

>  <ligand_id>  (15) 
4

>  <original_smiles>  (15) 
COC1OC2(C)OC3OC(O)C(C)C4CCC(C)C4(O)C132

>  <smiles>  (15) 
[H]OC1([H])OC2([H])OC3(C([H])([H])[H])OC([H])(OC([H])([H])[H])C23C2(O[H])C([H])(C([H])([H])[H])C([H])([H])C([H])([H])C2([H])C1([H])C([H])([H])[H]

$$$$
5:0:0
     RDKit          3D

 76 81  0  0  1  0  0  0  0  0999 V2000
    5.1119   -1.4287    1.8999 C   0  0  0  0  0  0  0  0  0  0  0  0
    4.0807   -1.0208    2.7845 O   0  0  0  0  0  0  0  0  0  0  0  0
    4.2130    0.3141    3.2414 C   0  0  0  0  0  0  0  0  0  0  0  0
    3.0733    0.7136    4.2288 C   0  0  1  0  0  0  0  0  0  0  0  0
    2.8354   -0.7309    5.2528 C   0  0  1  0  0  0  0  0  0  0  0  0
    4.1397   -1.0109    5.7771 O   0  0  0  0  0  0  0  0  0  0  0  0
    4.4433   -2.3887    5.9768 C   0  0  0  0  0  0  0  0  0  0  0  0
    1.7187   -1.0445    6.5711 C   0  0  0  0  0  0  0  0  0  0  0  0
    0.3815   -0.0833    7.1642 C   0  0  0  0  0  0  0  0  0  0  0  0
   -0.1954    1.3175    6.2879 C   0  0  1  0  0  0  0  0  0  0  0  0
   -1.6352    1.0879    5.7453 C   0  0  1  0  0  0  0  0  0  0  0  0
   -2.4526    0.9631    6.8833 O   0  0  0  0  0  0  0  0  0  0  0  0
   -2.2411    2.2053    4.8479 C   0  0  0  0  0  0  0  0  0  0  0  0
   -1.3399    3.0356    3.8724 C   0  0  1  0  0  0  0  0  0  0  0  0
   -2.1296    4.2066    3.5593 O   0  0  0  0  0  0  0  0  0  0  0  0
   -3.2721    3.9589    2.7305 C   0  0  0  0  0  0  0  0  0  0  0  0
    0.1333    3.2894    4.3900 C   0  0  2  0  0  0  0  0  0  0  0  0
    0.1753    4.6879    4.2619 O   0  0  0  0  0  0  0  0  0  0  0  0
    1.3957    2.7574    3.4358 C   0  0  1  0  0  0  0  0  0  0  0  0
    2.8408    3.2307    3.6895 C   0  0  1  0  0  0  0  0  0  0  0  0
    3.0389    4.6159    3.9881 O   0  0  0  0  0  0  0  0  0  0  0  0
    2.8263    5.4830    2.8814 C   0  0  0  0  0  0  0  0  0  0  0  0
    3.3836    2.2410    4.7448 C   0  0  1  0  0  0  0  0  0  0  0  0
    2.8005    2.7218    6.0998 C   0  0  1  0  0  0  0  0  0  0  0  0
    1.5556    3.6023    6.3673 C   0  0  0  0  0  0  0  0  0  0  0  0
    0.1880    2.9268    5.9495 C   0  0  2  0  0  0  0  0  0  0  0  0
    2.2257    1.5082    6.5640 C   0  0  1  0  0  0  0  0  0  0  0  0
    1.9732    1.7083    7.9910 O   0  0  0  0  0  0  0  0  0  0  0  0
    3.0700    1.7240    8.9048 C   0  0  0  0  0  0  0  0  0  0  0  0
    0.8753    1.0447    5.4548 C   0  0  0  0  0  0  0  0  0  0  0  0
    0.7817    0.5074    3.9237 C   0  0  1  0  0  0  0  0  0  0  0  0
   -0.4542    0.5825    3.2139 O   0  0  0  0  0  0  0  0  0  0  0  0
   -0.4360    0.5770    1.7876 C   0  0  0  0  0  0  0  0  0  0  0  0
    1.8375    1.2275    3.3510 C   0  0  2  0  0  0  0  0  0  0  0  0
    5.0025   -2.4929    1.6778 H   0  0  0  0  0  0  0  0  0  0  0  0
    6.1054   -1.2852    2.3314 H   0  0  0  0  0  0  0  0  0  0  0  0
    5.0602   -0.8840    0.9543 H   0  0  0  0  0  0  0  0  0  0  0  0
    5.1689    0.4368    3.7393 H   0  0  0  0  0  0  0  0  0  0  0  0
    4.2204    0.9534    2.3726 H   0  0  0  0  0  0  0  0  0  0  0  0
    2.6213   -1.5594    4.5754 H   0  0  0  0  0  0  0  0  0  0  0  0
    5.4420   -2.4818    6.4020 H   0  0  0  0  0  0  0  0  0  0  0  0
    4.4311   -2.9363    5.0338 H   0  0  0  0  0  0  0  0  0  0  0  0
    3.7481   -2.8685    6.6656 H   0  0  0  0  0  0  0  0  0  0  0  0
    1.3145   -2.0367    6.3646 H   0  0  0  0  0  0  0  0  0  0  0  0
    2.3400   -1.2096    7.4522 H   0  0  0  0  0  0  0  0  0  0  0  0
   -0.4457   -0.7879    7.1170 H   0  0  0  0  0  0  0  0  0  0  0  0
    0.4526    0.0873    8.2410 H   0  0  0  0  0  0  0  0  0  0  0  0
   -1.7036    0.1277    5.2426 H   0  0  0  0  0  0  0  0  0  0  0  0
   -2.4892    1.8228    7.3009 H   0  0  0  0  0  0  0  0  0  0  0  0
   -2.9970    1.7411    4.2157 H   0  0  0  0  0  0  0  0  0  0  0  0
   -2.7914    2.8988    5.4993 H   0  0  0  0  0  0  0  0  0  0  0  0
   -1.2506    2.6049    2.8819 H   0  0  0  0  0  0  0  0  0  0  0  0
   -3.7257    4.8936    2.3916 H   0  0  0  0  0  0  0  0  0  0  0  0
   -4.0307    3.4030    3.2793 H   0  0  0  0  0  0  0  0  0  0  0  0
   -3.0125    3.3690    1.8524 H   0  0  0  0  0  0  0  0  0  0  0  0
    0.1771    4.8620    3.3300 H   0  0  0  0  0  0  0  0  0  0  0  0
    1.1549    3.0812    2.4274 H   0  0  0  0  0  0  0  0  0  0  0  0
    3.3986    3.0439    2.7742 H   0  0  0  0  0  0  0  0  0  0  0  0
    2.8596    6.5182    3.2157 H   0  0  0  0  0  0  0  0  0  0  0  0
    1.8591    5.3230    2.4083 H   0  0  0  0  0  0  0  0  0  0  0  0
    3.5906    5.3385    2.1217 H   0  0  0  0  0  0  0  0  0  0  0  0
    4.4629    2.3674    4.8086 H   0  0  0  0  0  0  0  0  0  0  0  0
    3.6367    3.0803    6.6975 H   0  0  0  0  0  0  0  0  0  0  0  0
    1.4786    3.8409    7.4254 H   0  0  0  0  0  0  0  0  0  0  0  0
    1.7152    4.5947    5.9741 H   0  0  0  0  0  0  0  0  0  0  0  0
   -0.5745    3.5200    6.4567 H   0  0  0  0  0  0  0  0  0  0  0  0
    3.1225    0.9199    6.6981 H   0  0  0  0  0  0  0  0  0  0  0  0
    2.6727    1.7333    9.9199 H   0  0  0  0  0  0  0  0  0  0  0  0
    3.6898    2.6142    8.7940 H   0  0  0  0  0  0  0  0  0  0  0  0
    3.6947    0.8357    8.8011 H   0  0  0  0  0  0  0  0  0  0  0  0
    0.4317    0.0899    5.2001 H   0  0  0  0  0  0  0  0  0  0  0  0
    1.0233   -0.5391    3.6532 H   0  0  0  0  0  0  0  0  0  0  0  0
   -1.4589    0.4956    1.4337 H   0  0  0  0  0  0  0  0  0  0  0  0
    0.1544   -0.2623    1.4129 H   0  0  0  0  0  0  0  0  0  0  0  0
   -0.0848    1.5240    1.3736 H   0  0  0  0  0  0  0  0  0  0  0  0
    2.0097    0.9363    2.3129 H   0  0  0  0  0  0  0  0  0  0  0  0
  1  2  1  0
  1 35  1  0
  1 36  1  0
  1 37  1  0
  2  3  1  0
  4  3  1  6
  3 38  1  0
  3 39  1  0
  4 23  1  0
  4 34  1  0
  4  5  1  0
  5  6  1  0
  5  8  1  0
  5 40  1  6
  6  7  1  0
  7 41  1  0
  7 42  1  0
  7 43  1  0
  8  9  1  0
  8 44  1  0
  8 45  1  0
 10  9  1  1
  9 46  1  0
  9 47  1  0
 10 26  1  0
 10 30  1  0
 10 11  1  0
 11 12  1  0
 11 13  1  0
 11 48  1  6
 12 49  1  0
 13 14  1  0
 13 50  1  0
 13 51  1  0
 14 15  1  0
 14 17  1  0
 14 52  1  6
 15 16  1  0
 16 53  1  0
 16 54  1  0
 16 55  1  0
 17 26  1  0
 17 18  1  1
 17 19  1  0
 18 56  1  0
 19 34  1  0
 19 20  1  0
 19 57  1  6
 20 21  1  0
 20 23  1  0
 20 58  1  6
 21 22  1  0
 22 59  1  0
 22 60  1  0
 22 61  1  0
 23 24  1  0
 23 62  1  1
 24 25  1  0
 24 27  1  0
 24 63  1  1
 25 26  1  0
 25 64  1  0
 25 65  1  0
 26 66  1  1
 27 28  1  0
 27 30  1  0
 27 67  1  1
 28 29  1  0
 29 68  1  0
 29 69  1  0
 29 70  1  0
 30 31  1  0
 30 71  1  0
 31 32  1  0
 31 34  1  0
 31 72  1  1
 32 33  1  0
 33 73  1  0
 33 74  1  0
 33 75  1  0
 34 76  1  6
M  END
>  <i_m_ct_stereo_status>  (16) 
1

>  <s_m_source_file>  (16) 
/var/tmp/pbs.5076255.sched01/tmpgr0kyu9k/0plolsrat.sdf

>  <i_m_source_file_index>  (16) 
9

>  <i_lp_mmshare_version>  (16) 
48012

>  <i_f3d_flags>  (16) 
0

>  <s_epik_input>  (16) 
W0NIM11PW0NAQEhdMVtDQEhdMltDQEhdKE9bQ0gzXSlbQ0BIXShbQ0gyXTMpW0NASF0oW0NAQEhdNE9bQ0gzXSlbQ0BAXShbQ0gyXU9bQ0gzXSkoW0NAQEhdKE9bQ0gzXSlbQ0gyXVtDSDJdNSlbQ0BASF0xW0NASF00W0NAXShbT0hdKShbQ0BIXTNbQ0BAXTI1NilbQ0BIXShPW0NIM10pW0NIMl1bQ0BASF02W09IXQ==

>  <s_epik_cmdline>  (16) 
J2VwaWtfcHl0aG9uJywgJy1waHQnLCAnMi4wJywgJy1waCcsICc3LjAnLCAnLXRuJywgJzgnLCAnLW1hJywgJzIwMCcsICctaW1hZScsICc8aW5maWxlLm1hZT4nLCAnLW9tYWUnLCAnPG91dGZpbGUubWFlPic=

>  <r_lp_tautomer_probability>  (16) 
1

>  <r_epik_Ionization_Penalty>  (16) 
2.12209e-07

>  <r_epik_Ionization_Penalty_Charging>  (16) 
0

>  <r_epik_Ionization_Penalty_Neutral>  (16) 
2.12209e-07

>  <r_epik_State_Penalty>  (16) 
-0

>  <r_epik_Charging_Adjusted_Penalty>  (16) 
0

>  <i_epik_Tot_Q>  (16) 
0

>  <i_epik_Tot_abs_Q>  (16) 
0

>  <s_lp_Force_Field>  (16) 
OPLS3e

>  <r_lp_Energy>  (16) 
513.345

>  <b_lp_Chiralities_Consistent>  (16) 
1

>  <s_lp_Variant>  (16) 
5:0-1

>  <s_i_glide_gridfile>  (16) 
pfpi4k_grid

>  <i_i_glide_lignum>  (16) 
9

>  <i_i_glide_rotatable_bonds>  (16) 
9

>  <r_i_docking_score>  (16) 
-2.57312

>  <r_i_glide_ligand_efficiency>  (16) 
-0.0756799

>  <r_i_glide_ligand_efficiency_sa>  (16) 
-0.245174

>  <r_i_glide_ligand_efficiency_ln>  (16) 
-0.568474

>  <r_i_glide_gscore>  (16) 
-2.57312

>  <r_i_glide_lipo>  (16) 
-0.0959452

>  <r_i_glide_hbond>  (16) 
-0.266864

>  <r_i_glide_metal>  (16) 
-0

>  <r_i_glide_rewards>  (16) 
-0.118589

>  <r_i_glide_evdw>  (16) 
-19.2323

>  <r_i_glide_ecoul>  (16) 
-8.11494

>  <r_i_glide_erotb>  (16) 
0.0871359

>  <r_i_glide_esite>  (16) 
0

>  <r_i_glide_emodel>  (16) 
-28.6275

>  <r_i_glide_energy>  (16) 
-27.3472

>  <r_i_glide_einternal>  (16) 
4.56753

>  <r_i_glide_intrahb_reward>  (16) 
-0

>  <i_i_glide_confnum>  (16) 
2

>  <i_i_glide_posenum>  (16) 
14

>  <r_i_glide_eff_state_penalty>  (16) 
0

>  <ligand_id>  (16) 
5

>  <original_smiles>  (16) 
COCC12C(OC)CCC34C(O)CC(OC)C5(O)C6C(OC)C1C(CC53)C(OC)C4C(OC)C62

>  <smiles>  (16) 
[H]OC1([H])C([H])([H])C([H])(OC([H])([H])[H])C2(O[H])C3([H])C([H])(OC([H])([H])[H])C4([H])C5([H])C([H])([H])C2([H])C12C([H])([H])C([H])([H])C([H])(OC([H])([H])[H])C4(C([H])([H])OC([H])([H])[H])C3([H])C([H])(OC([H])([H])[H])C2([H])C5([H])OC([H])([H])[H]

$$$$
5:0:1
     RDKit          3D

 76 81  0  0  1  0  0  0  0  0999 V2000
    5.4990   -0.8785    2.6554 C   0  0  0  0  0  0  0  0  0  0  0  0
    4.4374   -0.5210    3.5252 O   0  0  0  0  0  0  0  0  0  0  0  0
    4.3184    0.8719    3.7780 C   0  0  0  0  0  0  0  0  0  0  0  0
    3.1130    1.2825    4.6527 C   0  0  1  0  0  0  0  0  0  0  0  0
    2.9776   -0.0553    5.8136 C   0  0  1  0  0  0  0  0  0  0  0  0
    4.2721   -0.1397    6.4067 O   0  0  0  0  0  0  0  0  0  0  0  0
    4.7036   -1.4542    6.7512 C   0  0  0  0  0  0  0  0  0  0  0  0
    1.8428   -0.3257    7.1041 C   0  0  0  0  0  0  0  0  0  0  0  0
    0.3906    0.5675    7.5477 C   0  0  0  0  0  0  0  0  0  0  0  0
   -0.2573    1.8065    6.4997 C   0  0  1  0  0  0  0  0  0  0  0  0
   -1.6443    1.3810    5.9437 C   0  0  1  0  0  0  0  0  0  0  0  0
   -2.5173    1.2955    7.0499 O   0  0  0  0  0  0  0  0  0  0  0  0
   -2.3036    2.3439    4.9039 C   0  0  0  0  0  0  0  0  0  0  0  0
   -1.4430    3.1403    3.8715 C   0  0  1  0  0  0  0  0  0  0  0  0
   -2.2937    4.2049    3.3840 O   0  0  0  0  0  0  0  0  0  0  0  0
   -3.3823    3.7652    2.5603 C   0  0  0  0  0  0  0  0  0  0  0  0
   -0.0222    3.5798    4.3974 C   0  0  2  0  0  0  0  0  0  0  0  0
   -0.0868    4.9656    4.1118 O   0  0  0  0  0  0  0  0  0  0  0  0
    1.3382    3.0733    3.5584 C   0  0  1  0  0  0  0  0  0  0  0  0
    2.7104    3.7069    3.8163 C   0  0  1  0  0  0  0  0  0  0  0  0
    2.6618    5.1284    3.9317 O   0  0  0  0  0  0  0  0  0  0  0  0
    3.8571    5.8140    3.6157 C   0  0  0  0  0  0  0  0  0  0  0  0
    3.2807    2.8921    4.9978 C   0  0  1  0  0  0  0  0  0  0  0  0
    2.5970    3.4545    6.2701 C   0  0  1  0  0  0  0  0  0  0  0  0
    1.2657    4.2372    6.3923 C   0  0  0  0  0  0  0  0  0  0  0  0
   -0.0117    3.3886    6.0024 C   0  0  2  0  0  0  0  0  0  0  0  0
    2.1130    2.2497    6.8382 C   0  0  1  0  0  0  0  0  0  0  0  0
    1.7771    2.5770    8.2216 O   0  0  0  0  0  0  0  0  0  0  0  0
    2.8327    2.7528    9.1679 C   0  0  0  0  0  0  0  0  0  0  0  0
    0.8568    1.5466    5.7371 C   0  0  0  0  0  0  0  0  0  0  0  0
    0.8836    0.8346    4.2766 C   0  0  1  0  0  0  0  0  0  0  0  0
   -0.3159    0.6923    3.5151 O   0  0  0  0  0  0  0  0  0  0  0  0
   -0.2314    0.4967    2.0997 C   0  0  0  0  0  0  0  0  0  0  0  0
    1.8929    1.5873    3.6666 C   0  0  2  0  0  0  0  0  0  0  0  0
    5.6009   -1.9632    2.6591 H   0  0  0  0  0  0  0  0  0  0  0  0
    6.4498   -0.4601    2.9690 H   0  0  0  0  0  0  0  0  0  0  0  0
    5.3017   -0.5637    1.6353 H   0  0  0  0  0  0  0  0  0  0  0  0
    5.2501    1.2579    4.2130 H   0  0  0  0  0  0  0  0  0  0  0  0
    4.2170    1.3152    2.7969 H   0  0  0  0  0  0  0  0  0  0  0  0
    2.8590   -0.9615    5.2308 H   0  0  0  0  0  0  0  0  0  0  0  0
    5.6892   -1.4051    7.2106 H   0  0  0  0  0  0  0  0  0  0  0  0
    4.7791   -2.0922    5.8670 H   0  0  0  0  0  0  0  0  0  0  0  0
    4.0283   -1.9292    7.4653 H   0  0  0  0  0  0  0  0  0  0  0  0
    1.5366   -1.3633    6.9942 H   0  0  0  0  0  0  0  0  0  0  0  0
    2.4302   -0.3322    8.0172 H   0  0  0  0  0  0  0  0  0  0  0  0
   -0.3579   -0.2188    7.5413 H   0  0  0  0  0  0  0  0  0  0  0  0
    0.4084    0.8494    8.5852 H   0  0  0  0  0  0  0  0  0  0  0  0
   -1.6139    0.3680    5.5350 H   0  0  0  0  0  0  0  0  0  0  0  0
   -2.6064    2.1789    7.4107 H   0  0  0  0  0  0  0  0  0  0  0  0
   -2.9789    1.7600    4.2976 H   0  0  0  0  0  0  0  0  0  0  0  0
   -2.9143    3.0659    5.4582 H   0  0  0  0  0  0  0  0  0  0  0  0
   -1.2732    2.6091    2.9476 H   0  0  0  0  0  0  0  0  0  0  0  0
   -3.9012    4.6178    2.1210 H   0  0  0  0  0  0  0  0  0  0  0  0
   -4.1277    3.2052    3.1349 H   0  0  0  0  0  0  0  0  0  0  0  0
   -3.0537    3.1147    1.7407 H   0  0  0  0  0  0  0  0  0  0  0  0
    0.0571    5.0412    3.1586 H   0  0  0  0  0  0  0  0  0  0  0  0
    1.1207    3.2785    2.5170 H   0  0  0  0  0  0  0  0  0  0  0  0
    3.3152    3.4725    2.9390 H   0  0  0  0  0  0  0  0  0  0  0  0
    3.7097    6.8924    3.6807 H   0  0  0  0  0  0  0  0  0  0  0  0
    4.1796    5.5989    2.5997 H   0  0  0  0  0  0  0  0  0  0  0  0
    4.6374    5.5497    4.3235 H   0  0  0  0  0  0  0  0  0  0  0  0
    4.3486    3.1231    5.0989 H   0  0  0  0  0  0  0  0  0  0  0  0
    3.3621    3.9575    6.8592 H   0  0  0  0  0  0  0  0  0  0  0  0
    1.1103    4.5724    7.4141 H   0  0  0  0  0  0  0  0  0  0  0  0
    1.3443    5.2001    5.9028 H   0  0  0  0  0  0  0  0  0  0  0  0
   -0.8458    3.9609    6.3961 H   0  0  0  0  0  0  0  0  0  0  0  0
    3.0487    1.7745    7.0620 H   0  0  0  0  0  0  0  0  0  0  0  0
    2.3960    2.8374   10.1642 H   0  0  0  0  0  0  0  0  0  0  0  0
    3.4061    3.6669    8.9871 H   0  0  0  0  0  0  0  0  0  0  0  0
    3.5191    1.8978    9.1783 H   0  0  0  0  0  0  0  0  0  0  0  0
    0.5132    0.5344    5.5879 H   0  0  0  0  0  0  0  0  0  0  0  0
    1.2427   -0.2007    4.1390 H   0  0  0  0  0  0  0  0  0  0  0  0
   -1.2298    0.2794    1.7366 H   0  0  0  0  0  0  0  0  0  0  0  0
    0.4353   -0.3319    1.8100 H   0  0  0  0  0  0  0  0  0  0  0  0
    0.0910    1.3932    1.5696 H   0  0  0  0  0  0  0  0  0  0  0  0
    2.1130    1.2068    2.6705 H   0  0  0  0  0  0  0  0  0  0  0  0
  1  2  1  0
  1 35  1  0
  1 36  1  0
  1 37  1  0
  2  3  1  0
  4  3  1  6
  3 38  1  0
  3 39  1  0
  4 23  1  0
  4 34  1  0
  4  5  1  0
  5  6  1  0
  5  8  1  0
  5 40  1  6
  6  7  1  0
  7 41  1  0
  7 42  1  0
  7 43  1  0
  8  9  1  0
  8 44  1  0
  8 45  1  0
 10  9  1  1
  9 46  1  0
  9 47  1  0
 10 26  1  0
 10 30  1  0
 10 11  1  0
 11 12  1  0
 11 13  1  0
 11 48  1  6
 12 49  1  0
 13 14  1  0
 13 50  1  0
 13 51  1  0
 14 15  1  0
 14 17  1  0
 14 52  1  6
 15 16  1  0
 16 53  1  0
 16 54  1  0
 16 55  1  0
 17 26  1  0
 17 18  1  1
 17 19  1  0
 18 56  1  0
 19 34  1  0
 19 20  1  0
 19 57  1  6
 20 21  1  0
 20 23  1  0
 20 58  1  6
 21 22  1  0
 22 59  1  0
 22 60  1  0
 22 61  1  0
 23 24  1  0
 23 62  1  1
 24 25  1  0
 24 27  1  0
 24 63  1  1
 25 26  1  0
 25 64  1  0
 25 65  1  0
 26 66  1  1
 27 28  1  0
 27 30  1  0
 27 67  1  1
 28 29  1  0
 29 68  1  0
 29 69  1  0
 29 70  1  0
 30 31  1  0
 30 71  1  0
 31 32  1  0
 31 34  1  0
 31 72  1  1
 32 33  1  0
 33 73  1  0
 33 74  1  0
 33 75  1  0
 34 76  1  6
M  END
>  <i_m_ct_stereo_status>  (17) 
1

>  <s_m_source_file>  (17) 
/var/tmp/pbs.5076255.sched01/tmpgr0kyu9k/0plolsrat.sdf

>  <i_m_source_file_index>  (17) 
9

>  <i_lp_mmshare_version>  (17) 
48012

>  <i_f3d_flags>  (17) 
0

>  <s_epik_input>  (17) 
W0NIM11PW0NAQEhdMVtDQEhdMltDQEhdKE9bQ0gzXSlbQ0BIXShbQ0gyXTMpW0NASF0oW0NAQEhdNE9bQ0gzXSlbQ0BAXShbQ0gyXU9bQ0gzXSkoW0NAQEhdKE9bQ0gzXSlbQ0gyXVtDSDJdNSlbQ0BASF0xW0NASF00W0NAXShbT0hdKShbQ0BIXTNbQ0BAXTI1NilbQ0BIXShPW0NIM10pW0NIMl1bQ0BASF02W09IXQ==

>  <s_epik_cmdline>  (17) 
J2VwaWtfcHl0aG9uJywgJy1waHQnLCAnMi4wJywgJy1waCcsICc3LjAnLCAnLXRuJywgJzgnLCAnLW1hJywgJzIwMCcsICctaW1hZScsICc8aW5maWxlLm1hZT4nLCAnLW9tYWUnLCAnPG91dGZpbGUubWFlPic=

>  <r_lp_tautomer_probability>  (17) 
1

>  <r_epik_Ionization_Penalty>  (17) 
2.12209e-07

>  <r_epik_Ionization_Penalty_Charging>  (17) 
0

>  <r_epik_Ionization_Penalty_Neutral>  (17) 
2.12209e-07

>  <r_epik_State_Penalty>  (17) 
-0

>  <r_epik_Charging_Adjusted_Penalty>  (17) 
0

>  <i_epik_Tot_Q>  (17) 
0

>  <i_epik_Tot_abs_Q>  (17) 
0

>  <s_lp_Force_Field>  (17) 
OPLS3e

>  <r_lp_Energy>  (17) 
513.345

>  <b_lp_Chiralities_Consistent>  (17) 
1

>  <s_lp_Variant>  (17) 
5:0-1

>  <s_i_glide_gridfile>  (17) 
pfpi4k_grid

>  <i_i_glide_lignum>  (17) 
9

>  <i_i_glide_rotatable_bonds>  (17) 
9

>  <r_i_docking_score>  (17) 
-2.51399

>  <r_i_glide_ligand_efficiency>  (17) 
-0.0739408

>  <r_i_glide_ligand_efficiency_sa>  (17) 
-0.239539

>  <r_i_glide_ligand_efficiency_ln>  (17) 
-0.55541

>  <r_i_glide_gscore>  (17) 
-2.51399

>  <r_i_glide_lipo>  (17) 
-0.147766

>  <r_i_glide_hbond>  (17) 
-0.252885

>  <r_i_glide_metal>  (17) 
-0

>  <r_i_glide_rewards>  (17) 
-0.118589

>  <r_i_glide_evdw>  (17) 
-18.252

>  <r_i_glide_ecoul>  (17) 
-7.79522

>  <r_i_glide_erotb>  (17) 
0.0871359

>  <r_i_glide_esite>  (17) 
0

>  <r_i_glide_emodel>  (17) 
-26.1893

>  <r_i_glide_energy>  (17) 
-26.0472

>  <r_i_glide_einternal>  (17) 
5.36834

>  <r_i_glide_intrahb_reward>  (17) 
-0

>  <i_i_glide_confnum>  (17) 
2

>  <i_i_glide_posenum>  (17) 
1

>  <r_i_glide_eff_state_penalty>  (17) 
0

>  <ligand_id>  (17) 
5

>  <original_smiles>  (17) 
COCC12C(OC)CCC34C(O)CC(OC)C5(O)C6C(OC)C1C(CC53)C(OC)C4C(OC)C62

>  <smiles>  (17) 
[H]OC1([H])C([H])([H])C([H])(OC([H])([H])[H])C2(O[H])C3([H])C([H])(OC([H])([H])[H])C4([H])C5([H])C([H])([H])C2([H])C12C([H])([H])C([H])([H])C([H])(OC([H])([H])[H])C4(C([H])([H])OC([H])([H])[H])C3([H])C([H])(OC([H])([H])[H])C2([H])C5([H])OC([H])([H])[H]

$$$$
5:0:2
     RDKit          3D

 76 81  0  0  1  0  0  0  0  0999 V2000
    3.8049   -1.4039    0.9329 C   0  0  0  0  0  0  0  0  0  0  0  0
    3.0449   -1.0420    2.0764 O   0  0  0  0  0  0  0  0  0  0  0  0
    3.6501   -0.0200    2.8517 C   0  0  0  0  0  0  0  0  0  0  0  0
    2.6742    0.5029    3.9423 C   0  0  1  0  0  0  0  0  0  0  0  0
    2.2289   -0.9525    4.8790 C   0  0  1  0  0  0  0  0  0  0  0  0
    3.4789   -1.5107    5.2993 O   0  0  0  0  0  0  0  0  0  0  0  0
    3.5147   -2.9319    5.3962 C   0  0  0  0  0  0  0  0  0  0  0  0
    1.1394   -1.1594    6.2470 C   0  0  0  0  0  0  0  0  0  0  0  0
    0.0448   -0.0076    6.9953 C   0  0  0  0  0  0  0  0  0  0  0  0
   -0.2995    1.5328    6.2594 C   0  0  1  0  0  0  0  0  0  0  0  0
   -1.7912    1.6454    5.8016 C   0  0  1  0  0  0  0  0  0  0  0  0
   -2.5527    1.6090    6.9941 O   0  0  0  0  0  0  0  0  0  0  0  0
   -2.2081    2.9227    4.9761 C   0  0  0  0  0  0  0  0  0  0  0  0
   -1.1987    3.6107    3.9858 C   0  0  1  0  0  0  0  0  0  0  0  0
   -1.7131    4.9485    3.7594 O   0  0  0  0  0  0  0  0  0  0  0  0
   -1.3938    5.5758    2.5093 C   0  0  0  0  0  0  0  0  0  0  0  0
    0.3079    3.5260    4.4628 C   0  0  2  0  0  0  0  0  0  0  0  0
    0.6250    4.8927    4.5225 O   0  0  0  0  0  0  0  0  0  0  0  0
    1.3959    2.8587    3.3991 C   0  0  1  0  0  0  0  0  0  0  0  0
    2.9074    3.0528    3.5910 C   0  0  1  0  0  0  0  0  0  0  0  0
    3.3647    4.3562    3.9543 O   0  0  0  0  0  0  0  0  0  0  0  0
    3.2500    5.3227    2.9138 C   0  0  0  0  0  0  0  0  0  0  0  0
    3.3019    1.8998    4.5358 C   0  0  1  0  0  0  0  0  0  0  0  0
    2.8959    2.3617    5.9611 C   0  0  1  0  0  0  0  0  0  0  0  0
    1.8637    3.4288    6.3822 C   0  0  0  0  0  0  0  0  0  0  0  0
    0.3742    3.0514    5.9900 C   0  0  2  0  0  0  0  0  0  0  0  0
    2.1259    1.2458    6.3850 C   0  0  1  0  0  0  0  0  0  0  0  0
    1.9920    1.3791    7.8345 O   0  0  0  0  0  0  0  0  0  0  0  0
    3.1259    1.1347    8.6705 C   0  0  0  0  0  0  0  0  0  0  0  0
    0.6487    1.1265    5.3408 C   0  0  0  0  0  0  0  0  0  0  0  0
    0.3769    0.7229    3.7941 C   0  0  1  0  0  0  0  0  0  0  0  0
   -0.8951    1.0102    3.2030 O   0  0  0  0  0  0  0  0  0  0  0  0
   -0.9895    1.0060    1.7815 C   0  0  0  0  0  0  0  0  0  0  0  0
    1.5108    1.2872    3.1804 C   0  0  2  0  0  0  0  0  0  0  0  0
    3.3074   -2.2156    0.4010 H   0  0  0  0  0  0  0  0  0  0  0  0
    4.8068   -1.7469    1.2014 H   0  0  0  0  0  0  0  0  0  0  0  0
    3.9017   -0.5686    0.2351 H   0  0  0  0  0  0  0  0  0  0  0  0
    4.5656   -0.3838    3.3136 H   0  0  0  0  0  0  0  0  0  0  0  0
    3.9380    0.7818    2.1792 H   0  0  0  0  0  0  0  0  0  0  0  0
    1.8528   -1.6685    4.1452 H   0  0  0  0  0  0  0  0  0  0  0  0
    4.4983   -3.2411    5.7468 H   0  0  0  0  0  0  0  0  0  0  0  0
    3.3464   -3.4017    4.4271 H   0  0  0  0  0  0  0  0  0  0  0  0
    2.7826   -3.3230    6.1019 H   0  0  0  0  0  0  0  0  0  0  0  0
    0.5393   -2.0336    6.0152 H   0  0  0  0  0  0  0  0  0  0  0  0
    1.7563   -1.4981    7.0756 H   0  0  0  0  0  0  0  0  0  0  0  0
   -0.9067   -0.5251    6.9647 H   0  0  0  0  0  0  0  0  0  0  0  0
    0.1947    0.0733    8.0704 H   0  0  0  0  0  0  0  0  0  0  0  0
   -2.0850    0.7484    5.2580 H   0  0  0  0  0  0  0  0  0  0  0  0
   -2.3982    2.4215    7.4646 H   0  0  0  0  0  0  0  0  0  0  0  0
   -3.1093    2.6768    4.4135 H   0  0  0  0  0  0  0  0  0  0  0  0
   -2.5270    3.6872    5.6829 H   0  0  0  0  0  0  0  0  0  0  0  0
   -1.3002    3.1910    2.9953 H   0  0  0  0  0  0  0  0  0  0  0  0
   -1.8440    6.5637    2.4005 H   0  0  0  0  0  0  0  0  0  0  0  0
   -1.7849    4.9816    1.6979 H   0  0  0  0  0  0  0  0  0  0  0  0
   -0.3224    5.7488    2.4112 H   0  0  0  0  0  0  0  0  0  0  0  0
    0.6712    5.1865    3.6285 H   0  0  0  0  0  0  0  0  0  0  0  0
    1.1472    3.2927    2.4367 H   0  0  0  0  0  0  0  0  0  0  0  0
    3.3792    2.8411    2.6340 H   0  0  0  0  0  0  0  0  0  0  0  0
    3.5061    6.3117    3.2977 H   0  0  0  0  0  0  0  0  0  0  0  0
    2.2459    5.3904    2.4968 H   0  0  0  0  0  0  0  0  0  0  0  0
    3.9149    5.0816    2.0886 H   0  0  0  0  0  0  0  0  0  0  0  0
    4.3854    1.8049    4.5312 H   0  0  0  0  0  0  0  0  0  0  0  0
    3.8157    2.5189    6.5219 H   0  0  0  0  0  0  0  0  0  0  0  0
    1.8761    3.5883    7.4589 H   0  0  0  0  0  0  0  0  0  0  0  0
    2.2155    4.4051    6.0778 H   0  0  0  0  0  0  0  0  0  0  0  0
   -0.2394    3.7457    6.5619 H   0  0  0  0  0  0  0  0  0  0  0  0
    2.8969    0.4953    6.4162 H   0  0  0  0  0  0  0  0  0  0  0  0
    2.7990    1.1444    9.7105 H   0  0  0  0  0  0  0  0  0  0  0  0
    3.8871    1.9075    8.5764 H   0  0  0  0  0  0  0  0  0  0  0  0
    3.5790    0.1621    8.4796 H   0  0  0  0  0  0  0  0  0  0  0  0
    0.0101    0.2987    5.0545 H   0  0  0  0  0  0  0  0  0  0  0  0
    0.4186   -0.3304    3.4534 H   0  0  0  0  0  0  0  0  0  0  0  0
   -2.0364    1.1009    1.4927 H   0  0  0  0  0  0  0  0  0  0  0  0
   -0.5687    0.1131    1.3319 H   0  0  0  0  0  0  0  0  0  0  0  0
   -0.4664    1.8587    1.3522 H   0  0  0  0  0  0  0  0  0  0  0  0
    1.5652    1.0594    2.1132 H   0  0  0  0  0  0  0  0  0  0  0  0
  1  2  1  0
  1 35  1  0
  1 36  1  0
  1 37  1  0
  2  3  1  0
  4  3  1  6
  3 38  1  0
  3 39  1  0
  4 23  1  0
  4 34  1  0
  4  5  1  0
  5  6  1  0
  5  8  1  0
  5 40  1  6
  6  7  1  0
  7 41  1  0
  7 42  1  0
  7 43  1  0
  8  9  1  0
  8 44  1  0
  8 45  1  0
 10  9  1  1
  9 46  1  0
  9 47  1  0
 10 26  1  0
 10 30  1  0
 10 11  1  0
 11 12  1  0
 11 13  1  0
 11 48  1  6
 12 49  1  0
 13 14  1  0
 13 50  1  0
 13 51  1  0
 14 15  1  0
 14 17  1  0
 14 52  1  6
 15 16  1  0
 16 53  1  0
 16 54  1  0
 16 55  1  0
 17 26  1  0
 17 18  1  1
 17 19  1  0
 18 56  1  0
 19 34  1  0
 19 20  1  0
 19 57  1  6
 20 21  1  0
 20 23  1  0
 20 58  1  6
 21 22  1  0
 22 59  1  0
 22 60  1  0
 22 61  1  0
 23 24  1  0
 23 62  1  1
 24 25  1  0
 24 27  1  0
 24 63  1  1
 25 26  1  0
 25 64  1  0
 25 65  1  0
 26 66  1  1
 27 28  1  0
 27 30  1  0
 27 67  1  1
 28 29  1  0
 29 68  1  0
 29 69  1  0
 29 70  1  0
 30 31  1  0
 30 71  1  0
 31 32  1  0
 31 34  1  0
 31 72  1  1
 32 33  1  0
 33 73  1  0
 33 74  1  0
 33 75  1  0
 34 76  1  6
M  END
>  <i_m_ct_stereo_status>  (18) 
1

>  <s_m_source_file>  (18) 
/var/tmp/pbs.5076255.sched01/tmpgr0kyu9k/0plolsrat.sdf

>  <i_m_source_file_index>  (18) 
9

>  <i_lp_mmshare_version>  (18) 
48012

>  <i_f3d_flags>  (18) 
0

>  <s_epik_input>  (18) 
W0NIM11PW0NAQEhdMVtDQEhdMltDQEhdKE9bQ0gzXSlbQ0BIXShbQ0gyXTMpW0NASF0oW0NAQEhdNE9bQ0gzXSlbQ0BAXShbQ0gyXU9bQ0gzXSkoW0NAQEhdKE9bQ0gzXSlbQ0gyXVtDSDJdNSlbQ0BASF0xW0NASF00W0NAXShbT0hdKShbQ0BIXTNbQ0BAXTI1NilbQ0BIXShPW0NIM10pW0NIMl1bQ0BASF02W09IXQ==

>  <s_epik_cmdline>  (18) 
J2VwaWtfcHl0aG9uJywgJy1waHQnLCAnMi4wJywgJy1waCcsICc3LjAnLCAnLXRuJywgJzgnLCAnLW1hJywgJzIwMCcsICctaW1hZScsICc8aW5maWxlLm1hZT4nLCAnLW9tYWUnLCAnPG91dGZpbGUubWFlPic=

>  <r_lp_tautomer_probability>  (18) 
1

>  <r_epik_Ionization_Penalty>  (18) 
2.12209e-07

>  <r_epik_Ionization_Penalty_Charging>  (18) 
0

>  <r_epik_Ionization_Penalty_Neutral>  (18) 
2.12209e-07

>  <r_epik_State_Penalty>  (18) 
-0

>  <r_epik_Charging_Adjusted_Penalty>  (18) 
0

>  <i_epik_Tot_Q>  (18) 
0

>  <i_epik_Tot_abs_Q>  (18) 
0

>  <s_lp_Force_Field>  (18) 
OPLS3e

>  <r_lp_Energy>  (18) 
513.345

>  <b_lp_Chiralities_Consistent>  (18) 
1

>  <s_lp_Variant>  (18) 
5:0-1

>  <s_i_glide_gridfile>  (18) 
pfpi4k_grid

>  <i_i_glide_lignum>  (18) 
9

>  <i_i_glide_rotatable_bonds>  (18) 
9

>  <r_i_docking_score>  (18) 
-2.26324

>  <r_i_glide_ligand_efficiency>  (18) 
-0.0665659

>  <r_i_glide_ligand_efficiency_sa>  (18) 
-0.215648

>  <r_i_glide_ligand_efficiency_ln>  (18) 
-0.500014

>  <r_i_glide_gscore>  (18) 
-2.26324

>  <r_i_glide_lipo>  (18) 
-0.0855758

>  <r_i_glide_hbond>  (18) 
-0.188162

>  <r_i_glide_metal>  (18) 
-0

>  <r_i_glide_rewards>  (18) 
-0.118589

>  <r_i_glide_evdw>  (18) 
-15.6126

>  <r_i_glide_ecoul>  (18) 
-7.84947

>  <r_i_glide_erotb>  (18) 
0.0871359

>  <r_i_glide_esite>  (18) 
0

>  <r_i_glide_emodel>  (18) 
-25.4925

>  <r_i_glide_energy>  (18) 
-23.4621

>  <r_i_glide_einternal>  (18) 
2.49378

>  <r_i_glide_intrahb_reward>  (18) 
-0

>  <i_i_glide_confnum>  (18) 
2

>  <i_i_glide_posenum>  (18) 
24

>  <r_i_glide_eff_state_penalty>  (18) 
0

>  <ligand_id>  (18) 
5

>  <original_smiles>  (18) 
COCC12C(OC)CCC34C(O)CC(OC)C5(O)C6C(OC)C1C(CC53)C(OC)C4C(OC)C62

>  <smiles>  (18) 
[H]OC1([H])C([H])([H])C([H])(OC([H])([H])[H])C2(O[H])C3([H])C([H])(OC([H])([H])[H])C4([H])C5([H])C([H])([H])C2([H])C12C([H])([H])C([H])([H])C([H])(OC([H])([H])[H])C4(C([H])([H])OC([H])([H])[H])C3([H])C([H])(OC([H])([H])[H])C2([H])C5([H])OC([H])([H])[H]

$$$$
6:0:0
     RDKit          3D

 27 29  0  0  1  0  0  0  0  0999 V2000
    8.3288   -2.6133    0.0823 C   0  0  0  0  0  0  0  0  0  0  0  0
    7.8119   -1.4532    0.4928 N   0  0  0  0  0  0  0  0  0  0  0  0
    6.4876   -1.2670    0.3089 C   0  0  0  0  0  0  0  0  0  0  0  0
    5.6940   -2.2312   -0.3438 C   0  0  0  0  0  0  0  0  0  0  0  0
    4.2296   -1.9771   -0.6902 C   0  0  2  0  0  0  0  0  0  0  0  0
    3.3525   -3.2522   -0.7614 C   0  0  0  0  0  0  0  0  0  0  0  0
    2.8242   -3.2002   -2.2097 C   0  0  2  0  0  0  0  0  0  0  0  0
    3.9548   -3.4460   -3.2287 C   0  0  0  0  0  0  0  0  0  0  0  0
    4.7503   -2.1379   -3.1750 C   0  0  0  0  0  0  0  0  0  0  0  0
    3.9831   -1.3561   -2.0942 C   0  0  1  0  0  0  0  0  0  0  0  0
    2.6154   -1.7754   -2.4066 N   0  0  0  0  0  0  0  0  0  0  0  0
    6.3762   -3.4202   -0.7157 C   0  0  0  0  0  0  0  0  0  0  0  0
    7.6833   -3.6039   -0.5124 N   0  0  0  0  0  0  0  0  0  0  0  0
    9.3733   -2.7977    0.2631 H   0  0  0  0  0  0  0  0  0  0  0  0
    6.0827   -0.3050    0.5894 H   0  0  0  0  0  0  0  0  0  0  0  0
    3.8094   -1.3072    0.0661 H   0  0  0  0  0  0  0  0  0  0  0  0
    3.8479   -4.1911   -0.5198 H   0  0  0  0  0  0  0  0  0  0  0  0
    2.5386   -3.1807   -0.0397 H   0  0  0  0  0  0  0  0  0  0  0  0
    1.9452   -3.8302   -2.3610 H   0  0  0  0  0  0  0  0  0  0  0  0
    4.5566   -4.3314   -2.9997 H   0  0  0  0  0  0  0  0  0  0  0  0
    3.5465   -3.6036   -4.2250 H   0  0  0  0  0  0  0  0  0  0  0  0
    5.8123   -2.2738   -2.9837 H   0  0  0  0  0  0  0  0  0  0  0  0
    4.7074   -1.6168   -4.1307 H   0  0  0  0  0  0  0  0  0  0  0  0
    4.1499   -0.2757   -2.1431 H   0  0  0  0  0  0  0  0  0  0  0  0
    2.3739   -1.5813   -3.3707 H   0  0  0  0  0  0  0  0  0  0  0  0
    5.9048   -4.2041   -1.2785 H   0  0  0  0  0  0  0  0  0  0  0  0
    1.9108   -1.4526   -1.7181 H   0  0  0  0  0  0  0  0  0  0  0  0
  1 13  2  0
  1  2  1  0
  1 14  1  0
  2  3  2  0
  3  4  1  0
  3 15  1  0
  4  5  1  0
  4 12  2  0
  5 10  1  0
  5  6  1  0
  5 16  1  1
  6  7  1  0
  6 17  1  0
  6 18  1  0
  7 11  1  0
  7  8  1  0
  7 19  1  1
  8  9  1  0
  8 20  1  0
  8 21  1  0
  9 10  1  0
  9 22  1  0
  9 23  1  0
 10 11  1  0
 10 24  1  1
 11 25  1  0
 11 27  1  0
 12 13  1  0
 12 26  1  0
M  CHG  1  11   1
M  END
>  <i_m_ct_stereo_status>  (19) 
1

>  <s_m_source_file>  (19) 
/var/tmp/pbs.5076255.sched01/tmpgr0kyu9k/0plolsrat.sdf

>  <i_m_source_file_index>  (19) 
10

>  <i_lp_mmshare_version>  (19) 
48012

>  <i_f3d_flags>  (19) 
0

>  <s_epik_input>  (19) 
W2NIXTFuW2NIXW5bY0hdYzFbQ0BIXShbQ0gyXVtDQEhdMjMpW0NASF0oW05IXTMpW0NIMl1bQ0gyXTI=

>  <s_epik_cmdline>  (19) 
J2VwaWtfcHl0aG9uJywgJy1waHQnLCAnMi4wJywgJy1waCcsICc3LjAnLCAnLXRuJywgJzgnLCAnLW1hJywgJzIwMCcsICctaW1hZScsICc8aW5maWxlLm1hZT4nLCAnLW9tYWUnLCAnPG91dGZpbGUubWFlPic=

>  <r_lp_tautomer_probability>  (19) 
1

>  <r_epik_Ionization_Penalty>  (19) 
0.000225381

>  <r_epik_Ionization_Penalty_Charging>  (19) 
0.000225012

>  <r_epik_Ionization_Penalty_Neutral>  (19) 
3.6897e-07

>  <r_epik_State_Penalty>  (19) 
-0

>  <r_epik_Charging_Adjusted_Penalty>  (19) 
0.000225012

>  <i_epik_Tot_Q>  (19) 
1

>  <i_epik_Tot_abs_Q>  (19) 
1

>  <s_epik_Chemistry_Notes>  (19) 
This compound contains an electron-poor aromatic ring that is susceptible to covalent hydrolysis at low pH, typically resulting in measured values for nitrogen ring protonation that are around two units higher than predicted values.

>  <s_lp_Force_Field>  (19) 
OPLS3e

>  <r_lp_Energy>  (19) 
39.3091

>  <b_lp_Chiralities_Consistent>  (19) 
1

>  <s_lp_Variant>  (19) 
6:0-1

>  <s_i_glide_gridfile>  (19) 
pfpi4k_grid

>  <i_i_glide_lignum>  (19) 
10

>  <i_i_glide_rotatable_bonds>  (19) 
1

>  <r_i_docking_score>  (19) 
-4.55663

>  <r_i_glide_ligand_efficiency>  (19) 
-0.35051

>  <r_i_glide_ligand_efficiency_sa>  (19) 
-0.824166

>  <r_i_glide_ligand_efficiency_ln>  (19) 
-1.27817

>  <r_i_glide_gscore>  (19) 
-4.55663

>  <r_i_glide_lipo>  (19) 
-0.280725

>  <r_i_glide_hbond>  (19) 
-0.22291

>  <r_i_glide_metal>  (19) 
-0

>  <r_i_glide_rewards>  (19) 
-2.3024

>  <r_i_glide_evdw>  (19) 
-17.2258

>  <r_i_glide_ecoul>  (19) 
-8.80717

>  <r_i_glide_erotb>  (19) 
0.503248

>  <r_i_glide_esite>  (19) 
-0.0714692

>  <r_i_glide_emodel>  (19) 
-34.1239

>  <r_i_glide_energy>  (19) 
-26.033

>  <r_i_glide_einternal>  (19) 
0.00226087

>  <r_i_glide_intrahb_reward>  (19) 
-0

>  <i_i_glide_confnum>  (19) 
4

>  <i_i_glide_posenum>  (19) 
29

>  <r_i_glide_eff_state_penalty>  (19) 
0

>  <ligand_id>  (19) 
6

>  <original_smiles>  (19) 
c1ncc(C2CC3CCC2N3)cn1

>  <smiles>  (19) 
[H]c1nc([H])c(C2([H])C([H])([H])C3([H])C([H])([H])C([H])([H])C2([H])[N+]3([H])[H])c([H])n1

$$$$
6:0:1
     RDKit          3D

 27 29  0  0  1  0  0  0  0  0999 V2000
    7.9338   -3.6668    0.4892 C   0  0  0  0  0  0  0  0  0  0  0  0
    7.7709   -2.4135    0.0505 N   0  0  0  0  0  0  0  0  0  0  0  0
    6.5059   -2.0304   -0.1986 C   0  0  0  0  0  0  0  0  0  0  0  0
    5.3967   -2.8943   -0.0620 C   0  0  0  0  0  0  0  0  0  0  0  0
    4.0030   -2.4717   -0.5370 C   0  0  2  0  0  0  0  0  0  0  0  0
    3.0564   -3.6226   -0.9579 C   0  0  0  0  0  0  0  0  0  0  0  0
    2.7115   -3.2580   -2.4063 C   0  0  2  0  0  0  0  0  0  0  0  0
    3.9362   -3.4500   -3.3236 C   0  0  0  0  0  0  0  0  0  0  0  0
    4.8201   -2.2511   -2.9478 C   0  0  0  0  0  0  0  0  0  0  0  0
    3.9934   -1.6010   -1.8202 C   0  0  1  0  0  0  0  0  0  0  0  0
    2.6372   -1.8032   -2.3235 N   0  0  0  0  0  0  0  0  0  0  0  0
    5.7017   -4.1736    0.4646 C   0  0  0  0  0  0  0  0  0  0  0  0
    6.9685   -4.5598    0.7210 N   0  0  0  0  0  0  0  0  0  0  0  0
    8.9362   -3.9834    0.7313 H   0  0  0  0  0  0  0  0  0  0  0  0
    6.4001   -1.0414   -0.6195 H   0  0  0  0  0  0  0  0  0  0  0  0
    3.5441   -1.9172    0.2822 H   0  0  0  0  0  0  0  0  0  0  0  0
    3.4536   -4.6349   -0.9528 H   0  0  0  0  0  0  0  0  0  0  0  0
    2.1694   -3.6174   -0.3203 H   0  0  0  0  0  0  0  0  0  0  0  0
    1.8065   -3.7518   -2.7632 H   0  0  0  0  0  0  0  0  0  0  0  0
    4.4554   -4.3924   -3.1575 H   0  0  0  0  0  0  0  0  0  0  0  0
    3.6472   -3.3971   -4.3701 H   0  0  0  0  0  0  0  0  0  0  0  0
    5.8331   -2.5711   -2.6855 H   0  0  0  0  0  0  0  0  0  0  0  0
    4.9118   -1.5591   -3.7879 H   0  0  0  0  0  0  0  0  0  0  0  0
    4.2237   -0.5507   -1.6480 H   0  0  0  0  0  0  0  0  0  0  0  0
    2.5073   -1.4019   -3.2502 H   0  0  0  0  0  0  0  0  0  0  0  0
    4.9536   -4.9358    0.6402 H   0  0  0  0  0  0  0  0  0  0  0  0
    1.9212   -1.4781   -1.6631 H   0  0  0  0  0  0  0  0  0  0  0  0
  1 13  2  0
  1  2  1  0
  1 14  1  0
  2  3  2  0
  3  4  1  0
  3 15  1  0
  4  5  1  0
  4 12  2  0
  5 10  1  0
  5  6  1  0
  5 16  1  1
  6  7  1  0
  6 17  1  0
  6 18  1  0
  7 11  1  0
  7  8  1  0
  7 19  1  6
  8  9  1  0
  8 20  1  0
  8 21  1  0
  9 10  1  0
  9 22  1  0
  9 23  1  0
 10 11  1  0
 10 24  1  1
 11 25  1  0
 11 27  1  0
 12 13  1  0
 12 26  1  0
M  CHG  1  11   1
M  END
>  <i_m_ct_stereo_status>  (20) 
1

>  <s_m_source_file>  (20) 
/var/tmp/pbs.5076255.sched01/tmpgr0kyu9k/0plolsrat.sdf

>  <i_m_source_file_index>  (20) 
10

>  <i_lp_mmshare_version>  (20) 
48012

>  <i_f3d_flags>  (20) 
0

>  <s_epik_input>  (20) 
W2NIXTFuW2NIXW5bY0hdYzFbQ0BIXShbQ0gyXVtDQEhdMjMpW0NASF0oW05IXTMpW0NIMl1bQ0gyXTI=

>  <s_epik_cmdline>  (20) 
J2VwaWtfcHl0aG9uJywgJy1waHQnLCAnMi4wJywgJy1waCcsICc3LjAnLCAnLXRuJywgJzgnLCAnLW1hJywgJzIwMCcsICctaW1hZScsICc8aW5maWxlLm1hZT4nLCAnLW9tYWUnLCAnPG91dGZpbGUubWFlPic=

>  <r_lp_tautomer_probability>  (20) 
1

>  <r_epik_Ionization_Penalty>  (20) 
0.000225381

>  <r_epik_Ionization_Penalty_Charging>  (20) 
0.000225012

>  <r_epik_Ionization_Penalty_Neutral>  (20) 
3.6897e-07

>  <r_epik_State_Penalty>  (20) 
-0

>  <r_epik_Charging_Adjusted_Penalty>  (20) 
0.000225012

>  <i_epik_Tot_Q>  (20) 
1

>  <i_epik_Tot_abs_Q>  (20) 
1

>  <s_epik_Chemistry_Notes>  (20) 
This compound contains an electron-poor aromatic ring that is susceptible to covalent hydrolysis at low pH, typically resulting in measured values for nitrogen ring protonation that are around two units higher than predicted values.

>  <s_lp_Force_Field>  (20) 
OPLS3e

>  <r_lp_Energy>  (20) 
39.3091

>  <b_lp_Chiralities_Consistent>  (20) 
1

>  <s_lp_Variant>  (20) 
6:0-1

>  <s_i_glide_gridfile>  (20) 
pfpi4k_grid

>  <i_i_glide_lignum>  (20) 
10

>  <i_i_glide_rotatable_bonds>  (20) 
1

>  <r_i_docking_score>  (20) 
-4.53902

>  <r_i_glide_ligand_efficiency>  (20) 
-0.349155

>  <r_i_glide_ligand_efficiency_sa>  (20) 
-0.820981

>  <r_i_glide_ligand_efficiency_ln>  (20) 
-1.27323

>  <r_i_glide_gscore>  (20) 
-4.53902

>  <r_i_glide_lipo>  (20) 
-0.338748

>  <r_i_glide_hbond>  (20) 
-0.19659

>  <r_i_glide_metal>  (20) 
-0

>  <r_i_glide_rewards>  (20) 
-2.47569

>  <r_i_glide_evdw>  (20) 
-17.0421

>  <r_i_glide_ecoul>  (20) 
-7.38294

>  <r_i_glide_erotb>  (20) 
0.503248

>  <r_i_glide_esite>  (20) 
-0.071696

>  <r_i_glide_emodel>  (20) 
-31.9577

>  <r_i_glide_energy>  (20) 
-24.425

>  <r_i_glide_einternal>  (20) 
1.23875

>  <r_i_glide_intrahb_reward>  (20) 
-0

>  <i_i_glide_confnum>  (20) 
4

>  <i_i_glide_posenum>  (20) 
24

>  <r_i_glide_eff_state_penalty>  (20) 
0

>  <ligand_id>  (20) 
6

>  <original_smiles>  (20) 
c1ncc(C2CC3CCC2N3)cn1

>  <smiles>  (20) 
[H]c1nc([H])c(C2([H])C([H])([H])C3([H])C([H])([H])C([H])([H])C2([H])[N+]3([H])[H])c([H])n1

$$$$
6:0:2
     RDKit          3D

 27 29  0  0  1  0  0  0  0  0999 V2000
    7.3287   -1.4780    0.5198 C   0  0  0  0  0  0  0  0  0  0  0  0
    6.0655   -1.2912    0.9188 N   0  0  0  0  0  0  0  0  0  0  0  0
    5.1095   -1.9585    0.2409 C   0  0  0  0  0  0  0  0  0  0  0  0
    5.4107   -2.7933   -0.8676 C   0  0  0  0  0  0  0  0  0  0  0  0
    4.3136   -3.4356   -1.7073 C   0  0  2  0  0  0  0  0  0  0  0  0
    4.6736   -3.6981   -3.1925 C   0  0  0  0  0  0  0  0  0  0  0  0
    3.5763   -2.9178   -3.9359 C   0  0  2  0  0  0  0  0  0  0  0  0
    3.8413   -1.4123   -3.8073 C   0  0  0  0  0  0  0  0  0  0  0  0
    3.4110   -1.1397   -2.3623 C   0  0  0  0  0  0  0  0  0  0  0  0
    3.0445   -2.5592   -1.8719 C   0  0  1  0  0  0  0  0  0  0  0  0
    2.4187   -3.1069   -3.0807 N   0  0  0  0  0  0  0  0  0  0  0  0
    6.7838   -2.9548   -1.1420 C   0  0  0  0  0  0  0  0  0  0  0  0
    7.7397   -2.2683   -0.4889 N   0  0  0  0  0  0  0  0  0  0  0  0
    8.1045   -0.9392    1.0365 H   0  0  0  0  0  0  0  0  0  0  0  0
    4.0994   -1.7464    0.5542 H   0  0  0  0  0  0  0  0  0  0  0  0
    4.0436   -4.3710   -1.2229 H   0  0  0  0  0  0  0  0  0  0  0  0
    5.6571   -3.3640   -3.5307 H   0  0  0  0  0  0  0  0  0  0  0  0
    4.6170   -4.7662   -3.4046 H   0  0  0  0  0  0  0  0  0  0  0  0
    3.4244   -3.2625   -4.9566 H   0  0  0  0  0  0  0  0  0  0  0  0
    4.8873   -1.1498   -3.9750 H   0  0  0  0  0  0  0  0  0  0  0  0
    3.2258   -0.8338   -4.4899 H   0  0  0  0  0  0  0  0  0  0  0  0
    4.1775   -0.6165   -1.7807 H   0  0  0  0  0  0  0  0  0  0  0  0
    2.5188   -0.5070   -2.3676 H   0  0  0  0  0  0  0  0  0  0  0  0
    2.3668   -2.6044   -1.0122 H   0  0  0  0  0  0  0  0  0  0  0  0
    1.6277   -2.5424   -3.3918 H   0  0  0  0  0  0  0  0  0  0  0  0
    7.1524   -3.5575   -1.9676 H   0  0  0  0  0  0  0  0  0  0  0  0
    2.1561   -4.0798   -3.0065 H   0  0  0  0  0  0  0  0  0  0  0  0
  1 13  2  0
  1  2  1  0
  1 14  1  0
  2  3  2  0
  3  4  1  0
  3 15  1  0
  4  5  1  0
  4 12  2  0
  5 10  1  0
  5  6  1  0
  5 16  1  1
  6  7  1  0
  6 17  1  0
  6 18  1  0
  7 11  1  0
  7  8  1  0
  7 19  1  6
  8  9  1  0
  8 20  1  0
  8 21  1  0
  9 10  1  0
  9 22  1  0
  9 23  1  0
 10 11  1  0
 10 24  1  1
 11 25  1  0
 11 27  1  0
 12 13  1  0
 12 26  1  0
M  CHG  1  11   1
M  END
>  <i_m_ct_stereo_status>  (21) 
1

>  <s_m_source_file>  (21) 
/var/tmp/pbs.5076255.sched01/tmpgr0kyu9k/0plolsrat.sdf

>  <i_m_source_file_index>  (21) 
10

>  <i_lp_mmshare_version>  (21) 
48012

>  <i_f3d_flags>  (21) 
0

>  <s_epik_input>  (21) 
W2NIXTFuW2NIXW5bY0hdYzFbQ0BIXShbQ0gyXVtDQEhdMjMpW0NASF0oW05IXTMpW0NIMl1bQ0gyXTI=

>  <s_epik_cmdline>  (21) 
J2VwaWtfcHl0aG9uJywgJy1waHQnLCAnMi4wJywgJy1waCcsICc3LjAnLCAnLXRuJywgJzgnLCAnLW1hJywgJzIwMCcsICctaW1hZScsICc8aW5maWxlLm1hZT4nLCAnLW9tYWUnLCAnPG91dGZpbGUubWFlPic=

>  <r_lp_tautomer_probability>  (21) 
1

>  <r_epik_Ionization_Penalty>  (21) 
0.000225381

>  <r_epik_Ionization_Penalty_Charging>  (21) 
0.000225012

>  <r_epik_Ionization_Penalty_Neutral>  (21) 
3.6897e-07

>  <r_epik_State_Penalty>  (21) 
-0

>  <r_epik_Charging_Adjusted_Penalty>  (21) 
0.000225012

>  <i_epik_Tot_Q>  (21) 
1

>  <i_epik_Tot_abs_Q>  (21) 
1

>  <s_epik_Chemistry_Notes>  (21) 
This compound contains an electron-poor aromatic ring that is susceptible to covalent hydrolysis at low pH, typically resulting in measured values for nitrogen ring protonation that are around two units higher than predicted values.

>  <s_lp_Force_Field>  (21) 
OPLS3e

>  <r_lp_Energy>  (21) 
39.3091

>  <b_lp_Chiralities_Consistent>  (21) 
1

>  <s_lp_Variant>  (21) 
6:0-1

>  <s_i_glide_gridfile>  (21) 
pfpi4k_grid

>  <i_i_glide_lignum>  (21) 
10

>  <i_i_glide_rotatable_bonds>  (21) 
1

>  <r_i_docking_score>  (21) 
-4.06385

>  <r_i_glide_ligand_efficiency>  (21) 
-0.312604

>  <r_i_glide_ligand_efficiency_sa>  (21) 
-0.735036

>  <r_i_glide_ligand_efficiency_ln>  (21) 
-1.13995

>  <r_i_glide_gscore>  (21) 
-4.06385

>  <r_i_glide_lipo>  (21) 
-0.29896

>  <r_i_glide_hbond>  (21) 
-0.159615

>  <r_i_glide_metal>  (21) 
-0

>  <r_i_glide_rewards>  (21) 
-2.20747

>  <r_i_glide_evdw>  (21) 
-20.3194

>  <r_i_glide_ecoul>  (21) 
-5.67197

>  <r_i_glide_erotb>  (21) 
0.503248

>  <r_i_glide_esite>  (21) 
-0.034291

>  <r_i_glide_emodel>  (21) 
-32.6329

>  <r_i_glide_energy>  (21) 
-25.9914

>  <r_i_glide_einternal>  (21) 
1.23639

>  <r_i_glide_intrahb_reward>  (21) 
-0

>  <i_i_glide_confnum>  (21) 
5

>  <i_i_glide_posenum>  (21) 
37

>  <r_i_glide_eff_state_penalty>  (21) 
0

>  <ligand_id>  (21) 
6

>  <original_smiles>  (21) 
c1ncc(C2CC3CCC2N3)cn1

>  <smiles>  (21) 
[H]c1nc([H])c(C2([H])C([H])([H])C3([H])C([H])([H])C([H])([H])C2([H])[N+]3([H])[H])c([H])n1

$$$$
7:0:0
     RDKit          3D

 54 58  0  0  1  0  0  0  0  0999 V2000
    6.6854   -6.7107    1.4748 C   0  0  0  0  0  0  0  0  0  0  0  0
    6.2431   -5.4486    1.6275 C   0  0  0  0  0  0  0  0  0  0  0  0
    7.1024   -4.2508    1.2262 C   0  0  0  0  0  0  0  0  0  0  0  0
    6.2826   -3.0295    0.7089 C   0  0  0  0  0  0  0  0  0  0  0  0
    4.9577   -3.4240    0.0033 C   0  0  2  0  0  0  0  0  0  0  0  0
    5.3248   -4.2856   -1.2200 C   0  0  0  0  0  0  0  0  0  0  0  0
    5.6964   -3.4994   -2.4872 C   0  0  0  0  0  0  0  0  0  0  0  0
    4.4344   -2.8852   -3.0518 C   0  0  2  0  0  0  0  0  0  0  0  0
    4.7587   -1.8359   -3.9220 O   0  0  0  0  0  0  0  0  0  0  0  0
    3.6645   -0.9671   -4.0269 C   0  0  0  0  0  0  0  0  0  0  0  0
    3.2492   -0.9021   -2.5812 C   0  0  0  0  0  0  0  0  0  0  0  0
    3.5282   -2.2838   -1.9732 C   0  0  1  0  0  0  0  0  0  0  0  0
    2.2607   -3.1588   -1.9215 C   0  0  0  0  0  0  0  0  0  0  0  0
    4.2300   -2.1498   -0.5576 C   0  0  1  0  0  0  0  0  0  0  0  0
    3.2926   -1.5235    0.4643 C   0  0  0  0  0  0  0  0  0  0  0  0
    2.6598   -2.2118    1.4234 C   0  0  0  0  0  0  0  0  0  0  0  0
    2.9082   -3.6091    1.6443 C   0  0  0  0  0  0  0  0  0  0  0  0
    2.1480   -4.3317    2.4833 C   0  0  0  0  0  0  0  0  0  0  0  0
    2.4856   -5.7474    2.9442 C   0  0  1  0  0  0  0  0  0  0  0  0
    1.4666   -6.6396    2.5429 O   0  0  0  0  0  0  0  0  0  0  0  0
    3.9060   -6.2468    2.5126 C   0  0  0  0  0  0  0  0  0  0  0  0
    4.8676   -5.0652    2.1666 C   0  0  1  0  0  0  0  0  0  0  0  0
    5.1243   -4.2946    3.5040 C   0  0  0  0  0  0  0  0  0  0  0  0
    4.1205   -4.2781    1.0373 C   0  0  2  0  0  0  0  0  0  0  0  0
    6.0883   -7.5703    1.7381 H   0  0  0  0  0  0  0  0  0  0  0  0
    7.6737   -6.9031    1.0766 H   0  0  0  0  0  0  0  0  0  0  0  0
    7.7069   -3.9659    2.0762 H   0  0  0  0  0  0  0  0  0  0  0  0
    7.8175   -4.5643    0.4601 H   0  0  0  0  0  0  0  0  0  0  0  0
    6.0248   -2.3815    1.5448 H   0  0  0  0  0  0  0  0  0  0  0  0
    6.9195   -2.4114    0.0741 H   0  0  0  0  0  0  0  0  0  0  0  0
    6.1396   -4.9256   -0.9207 H   0  0  0  0  0  0  0  0  0  0  0  0
    4.5488   -4.9931   -1.4896 H   0  0  0  0  0  0  0  0  0  0  0  0
    6.4881   -2.7718   -2.3112 H   0  0  0  0  0  0  0  0  0  0  0  0
    6.0767   -4.1823   -3.2397 H   0  0  0  0  0  0  0  0  0  0  0  0
    3.8942   -3.6269   -3.6333 H   0  0  0  0  0  0  0  0  0  0  0  0
    3.9621    0.0057   -4.4146 H   0  0  0  0  0  0  0  0  0  0  0  0
    2.8880   -1.3821   -4.6664 H   0  0  0  0  0  0  0  0  0  0  0  0
    3.9060   -0.1743   -2.1115 H   0  0  0  0  0  0  0  0  0  0  0  0
    2.2138   -0.5701   -2.4571 H   0  0  0  0  0  0  0  0  0  0  0  0
    1.5374   -2.7398   -1.2376 H   0  0  0  0  0  0  0  0  0  0  0  0
    2.4469   -4.1671   -1.5521 H   0  0  0  0  0  0  0  0  0  0  0  0
    1.7675   -3.2231   -2.8930 H   0  0  0  0  0  0  0  0  0  0  0  0
    5.0197   -1.4083   -0.6927 H   0  0  0  0  0  0  0  0  0  0  0  0
    3.0867   -0.4739    0.3278 H   0  0  0  0  0  0  0  0  0  0  0  0
    1.9678   -1.6801    2.0634 H   0  0  0  0  0  0  0  0  0  0  0  0
    1.2894   -3.8742    2.9577 H   0  0  0  0  0  0  0  0  0  0  0  0
    2.4651   -5.7028    4.0353 H   0  0  0  0  0  0  0  0  0  0  0  0
    1.5441   -7.4319    3.0608 H   0  0  0  0  0  0  0  0  0  0  0  0
    4.3234   -6.8708    3.3055 H   0  0  0  0  0  0  0  0  0  0  0  0
    3.8050   -6.9045    1.6474 H   0  0  0  0  0  0  0  0  0  0  0  0
    4.2194   -3.9732    4.0170 H   0  0  0  0  0  0  0  0  0  0  0  0
    5.7348   -3.4022    3.3908 H   0  0  0  0  0  0  0  0  0  0  0  0
    5.6570   -4.9362    4.2087 H   0  0  0  0  0  0  0  0  0  0  0  0
    3.6479   -5.0352    0.4148 H   0  0  0  0  0  0  0  0  0  0  0  0
  1  2  2  0
  1 25  1  0
  1 26  1  0
  2 22  1  0
  2  3  1  0
  3  4  1  0
  3 27  1  0
  3 28  1  0
  5  4  1  1
  4 29  1  0
  4 30  1  0
  5 14  1  0
  5 24  1  0
  5  6  1  0
  6  7  1  0
  6 31  1  0
  6 32  1  0
  7  8  1  0
  7 33  1  0
  7 34  1  0
  8 12  1  0
  8  9  1  0
  8 35  1  6
  9 10  1  0
 10 11  1  0
 10 36  1  0
 10 37  1  0
 11 12  1  0
 11 38  1  0
 11 39  1  0
 12 13  1  1
 12 14  1  0
 13 40  1  0
 13 41  1  0
 13 42  1  0
 14 15  1  0
 14 43  1  6
 15 16  2  0
 15 44  1  0
 16 17  1  0
 16 45  1  0
 17 24  1  0
 17 18  2  0
 18 19  1  0
 18 46  1  0
 19 20  1  0
 19 21  1  0
 19 47  1  1
 20 48  1  0
 21 22  1  0
 21 49  1  0
 21 50  1  0
 22 23  1  1
 22 24  1  0
 23 51  1  0
 23 52  1  0
 23 53  1  0
 24 54  1  6
M  END
>  <i_m_ct_stereo_status>  (22) 
1

>  <s_m_source_file>  (22) 
/var/tmp/pbs.5076255.sched01/tmpgr0kyu9k/0plolsrat.sdf

>  <i_m_source_file_index>  (22) 
11

>  <i_lp_mmshare_version>  (22) 
48012

>  <i_f3d_flags>  (22) 
0

>  <s_epik_input>  (22) 
W0NIMl0xW0NIMl1DKD1bQ0gyXSlbQ0BdKFtDSDNdKShbQ0gyXVtDQEBIXShbQ0hdMilbT0hdKVtDQEhdM0M9MltDSF09W0NIXVtDQEBIXShbQ0BAXTEzNClbQ0BdNShbQ0gzXSlbQ0BIXShbQ0gyXVtDSDJdNClPW0NIMl1bQ0gyXTU=

>  <s_epik_cmdline>  (22) 
J2VwaWtfcHl0aG9uJywgJy1waHQnLCAnMi4wJywgJy1waCcsICc3LjAnLCAnLXRuJywgJzgnLCAnLW1hJywgJzIwMCcsICctaW1hZScsICc8aW5maWxlLm1hZT4nLCAnLW9tYWUnLCAnPG91dGZpbGUubWFlPic=

>  <r_lp_tautomer_probability>  (22) 
1

>  <r_epik_Ionization_Penalty>  (22) 
1.06526e-07

>  <r_epik_Ionization_Penalty_Charging>  (22) 
0

>  <r_epik_Ionization_Penalty_Neutral>  (22) 
1.06526e-07

>  <r_epik_State_Penalty>  (22) 
-0

>  <r_epik_Charging_Adjusted_Penalty>  (22) 
0

>  <i_epik_Tot_Q>  (22) 
0

>  <i_epik_Tot_abs_Q>  (22) 
0

>  <s_lp_Force_Field>  (22) 
OPLS3e

>  <r_lp_Energy>  (22) 
60.5964

>  <b_lp_Chiralities_Consistent>  (22) 
1

>  <s_lp_Variant>  (22) 
7:0-1

>  <s_i_glide_gridfile>  (22) 
pfpi4k_grid

>  <i_i_glide_lignum>  (22) 
11

>  <i_i_glide_rotatable_bonds>  (22) 
1

>  <r_i_docking_score>  (22) 
-3.59606

>  <r_i_glide_ligand_efficiency>  (22) 
-0.149836

>  <r_i_glide_ligand_efficiency_sa>  (22) 
-0.432201

>  <r_i_glide_ligand_efficiency_ln>  (22) 
-0.860701

>  <r_i_glide_gscore>  (22) 
-3.59606

>  <r_i_glide_lipo>  (22) 
-1.01261

>  <r_i_glide_hbond>  (22) 
-0.0618003

>  <r_i_glide_metal>  (22) 
-0

>  <r_i_glide_rewards>  (22) 
-1.18314

>  <r_i_glide_evdw>  (22) 
-15.9481

>  <r_i_glide_ecoul>  (22) 
-3.60732

>  <r_i_glide_erotb>  (22) 
0

>  <r_i_glide_esite>  (22) 
0

>  <r_i_glide_emodel>  (22) 
-21.5753

>  <r_i_glide_energy>  (22) 
-19.5554

>  <r_i_glide_einternal>  (22) 
0.485734

>  <r_i_glide_intrahb_reward>  (22) 
-0

>  <i_i_glide_confnum>  (22) 
1

>  <i_i_glide_posenum>  (22) 
11

>  <r_i_glide_eff_state_penalty>  (22) 
0

>  <ligand_id>  (22) 
7

>  <original_smiles>  (22) 
C=C1CCC23CCC4OCCC4(C)C2C=CC2=CC(O)CC1(C)C23

>  <smiles>  (22) 
[H]OC1([H])C([H])=C2C([H])=C([H])C3([H])C4(C([H])([H])[H])C([H])([H])C([H])([H])OC4([H])C([H])([H])C([H])([H])C34C([H])([H])C([H])([H])C(=C([H])[H])C(C([H])([H])[H])(C1([H])[H])C24[H]

$$$$
7:0:1
     RDKit          3D

 54 58  0  0  1  0  0  0  0  0999 V2000
    2.1484   -5.6576    2.7027 C   0  0  0  0  0  0  0  0  0  0  0  0
    3.2827   -5.4366    2.0106 C   0  0  0  0  0  0  0  0  0  0  0  0
    3.6098   -6.2138    0.7470 C   0  0  0  0  0  0  0  0  0  0  0  0
    4.4211   -5.3608   -0.2531 C   0  0  0  0  0  0  0  0  0  0  0  0
    4.0312   -3.8697   -0.2993 C   0  0  2  0  0  0  0  0  0  0  0  0
    2.4890   -3.6808   -0.5842 C   0  0  0  0  0  0  0  0  0  0  0  0
    2.0599   -3.5239   -2.0531 C   0  0  0  0  0  0  0  0  0  0  0  0
    2.6388   -2.2943   -2.6690 C   0  0  2  0  0  0  0  0  0  0  0  0
    2.7170   -2.4528   -4.0626 O   0  0  0  0  0  0  0  0  0  0  0  0
    3.5671   -1.4415   -4.5071 C   0  0  0  0  0  0  0  0  0  0  0  0
    4.6724   -1.6262   -3.5051 C   0  0  0  0  0  0  0  0  0  0  0  0
    4.0787   -2.0026   -2.1856 C   0  0  1  0  0  0  0  0  0  0  0  0
    4.0624   -0.7559   -1.3385 C   0  0  0  0  0  0  0  0  0  0  0  0
    4.8379   -3.1641   -1.4643 C   0  0  1  0  0  0  0  0  0  0  0  0
    6.2248   -2.6874   -1.0623 C   0  0  0  0  0  0  0  0  0  0  0  0
    6.5575   -2.3448    0.1965 C   0  0  0  0  0  0  0  0  0  0  0  0
    5.6003   -2.5059    1.2754 C   0  0  0  0  0  0  0  0  0  0  0  0
    5.8273   -1.9848    2.4791 C   0  0  0  0  0  0  0  0  0  0  0  0
    5.0776   -2.3630    3.7616 C   0  0  1  0  0  0  0  0  0  0  0  0
    4.5358   -1.2098    4.3511 O   0  0  0  0  0  0  0  0  0  0  0  0
    4.0303   -3.4930    3.5841 C   0  0  0  0  0  0  0  0  0  0  0  0
    4.3310   -4.3865    2.3464 C   0  0  1  0  0  0  0  0  0  0  0  0
    5.6437   -5.1820    2.6564 C   0  0  0  0  0  0  0  0  0  0  0  0
    4.3869   -3.3695    1.1404 C   0  0  2  0  0  0  0  0  0  0  0  0
    1.9096   -5.0989    3.5913 H   0  0  0  0  0  0  0  0  0  0  0  0
    1.4474   -6.4128    2.3816 H   0  0  0  0  0  0  0  0  0  0  0  0
    4.1628   -7.1240    0.9763 H   0  0  0  0  0  0  0  0  0  0  0  0
    2.6810   -6.5463    0.2864 H   0  0  0  0  0  0  0  0  0  0  0  0
    5.4956   -5.4725   -0.1279 H   0  0  0  0  0  0  0  0  0  0  0  0
    4.3127   -5.8129   -1.1921 H   0  0  0  0  0  0  0  0  0  0  0  0
    1.9066   -4.4907   -0.1410 H   0  0  0  0  0  0  0  0  0  0  0  0
    2.1341   -2.7676   -0.0692 H   0  0  0  0  0  0  0  0  0  0  0  0
    2.4989   -4.2592   -2.7267 H   0  0  0  0  0  0  0  0  0  0  0  0
    0.9644   -3.5479   -2.1490 H   0  0  0  0  0  0  0  0  0  0  0  0
    1.9729   -1.4421   -2.4958 H   0  0  0  0  0  0  0  0  0  0  0  0
    3.9199   -1.5717   -5.5073 H   0  0  0  0  0  0  0  0  0  0  0  0
    3.1217   -0.4577   -4.4985 H   0  0  0  0  0  0  0  0  0  0  0  0
    5.3770   -2.3908   -3.8465 H   0  0  0  0  0  0  0  0  0  0  0  0
    5.1974   -0.6941   -3.3994 H   0  0  0  0  0  0  0  0  0  0  0  0
    5.0186   -0.3176   -1.0625 H   0  0  0  0  0  0  0  0  0  0  0  0
    3.4132   -0.8361   -0.4637 H   0  0  0  0  0  0  0  0  0  0  0  0
    3.6565   -0.0882   -2.0834 H   0  0  0  0  0  0  0  0  0  0  0  0
    5.0034   -3.9107   -2.2417 H   0  0  0  0  0  0  0  0  0  0  0  0
    6.9501   -2.5647   -1.8523 H   0  0  0  0  0  0  0  0  0  0  0  0
    7.5584   -2.0083    0.4058 H   0  0  0  0  0  0  0  0  0  0  0  0
    6.7069   -1.3855    2.6054 H   0  0  0  0  0  0  0  0  0  0  0  0
    5.8122   -2.7275    4.4768 H   0  0  0  0  0  0  0  0  0  0  0  0
    3.9068   -0.8459    3.7532 H   0  0  0  0  0  0  0  0  0  0  0  0
    3.9849   -4.0914    4.4965 H   0  0  0  0  0  0  0  0  0  0  0  0
    3.0507   -3.0296    3.4801 H   0  0  0  0  0  0  0  0  0  0  0  0
    6.4887   -4.5599    2.9268 H   0  0  0  0  0  0  0  0  0  0  0  0
    6.0018   -5.8079    1.8450 H   0  0  0  0  0  0  0  0  0  0  0  0
    5.4810   -5.8599    3.4953 H   0  0  0  0  0  0  0  0  0  0  0  0
    3.6170   -2.6277    1.3418 H   0  0  0  0  0  0  0  0  0  0  0  0
  1  2  2  0
  1 25  1  0
  1 26  1  0
  2 22  1  0
  2  3  1  0
  3  4  1  0
  3 27  1  0
  3 28  1  0
  5  4  1  1
  4 29  1  0
  4 30  1  0
  5 14  1  0
  5 24  1  0
  5  6  1  0
  6  7  1  0
  6 31  1  0
  6 32  1  0
  7  8  1  0
  7 33  1  0
  7 34  1  0
  8 12  1  0
  8  9  1  0
  8 35  1  6
  9 10  1  0
 10 11  1  0
 10 36  1  0
 10 37  1  0
 11 12  1  0
 11 38  1  0
 11 39  1  0
 12 13  1  1
 12 14  1  0
 13 40  1  0
 13 41  1  0
 13 42  1  0
 14 15  1  0
 14 43  1  6
 15 16  2  0
 15 44  1  0
 16 17  1  0
 16 45  1  0
 17 24  1  0
 17 18  2  0
 18 19  1  0
 18 46  1  0
 19 20  1  0
 19 21  1  0
 19 47  1  1
 20 48  1  0
 21 22  1  0
 21 49  1  0
 21 50  1  0
 22 23  1  1
 22 24  1  0
 23 51  1  0
 23 52  1  0
 23 53  1  0
 24 54  1  1
M  END
>  <i_m_ct_stereo_status>  (23) 
1

>  <s_m_source_file>  (23) 
/var/tmp/pbs.5076255.sched01/tmpgr0kyu9k/0plolsrat.sdf

>  <i_m_source_file_index>  (23) 
11

>  <i_lp_mmshare_version>  (23) 
48012

>  <i_f3d_flags>  (23) 
0

>  <s_epik_input>  (23) 
W0NIMl0xW0NIMl1DKD1bQ0gyXSlbQ0BdKFtDSDNdKShbQ0gyXVtDQEBIXShbQ0hdMilbT0hdKVtDQEhdM0M9MltDSF09W0NIXVtDQEBIXShbQ0BAXTEzNClbQ0BdNShbQ0gzXSlbQ0BIXShbQ0gyXVtDSDJdNClPW0NIMl1bQ0gyXTU=

>  <s_epik_cmdline>  (23) 
J2VwaWtfcHl0aG9uJywgJy1waHQnLCAnMi4wJywgJy1waCcsICc3LjAnLCAnLXRuJywgJzgnLCAnLW1hJywgJzIwMCcsICctaW1hZScsICc8aW5maWxlLm1hZT4nLCAnLW9tYWUnLCAnPG91dGZpbGUubWFlPic=

>  <r_lp_tautomer_probability>  (23) 
1

>  <r_epik_Ionization_Penalty>  (23) 
1.06526e-07

>  <r_epik_Ionization_Penalty_Charging>  (23) 
0

>  <r_epik_Ionization_Penalty_Neutral>  (23) 
1.06526e-07

>  <r_epik_State_Penalty>  (23) 
-0

>  <r_epik_Charging_Adjusted_Penalty>  (23) 
0

>  <i_epik_Tot_Q>  (23) 
0

>  <i_epik_Tot_abs_Q>  (23) 
0

>  <s_lp_Force_Field>  (23) 
OPLS3e

>  <r_lp_Energy>  (23) 
60.5964

>  <b_lp_Chiralities_Consistent>  (23) 
1

>  <s_lp_Variant>  (23) 
7:0-1

>  <s_i_glide_gridfile>  (23) 
pfpi4k_grid

>  <i_i_glide_lignum>  (23) 
11

>  <i_i_glide_rotatable_bonds>  (23) 
1

>  <r_i_docking_score>  (23) 
-1.70835

>  <r_i_glide_ligand_efficiency>  (23) 
-0.0711812

>  <r_i_glide_ligand_efficiency_sa>  (23) 
-0.205322

>  <r_i_glide_ligand_efficiency_ln>  (23) 
-0.408886

>  <r_i_glide_gscore>  (23) 
-1.70835

>  <r_i_glide_lipo>  (23) 
-0.577306

>  <r_i_glide_hbond>  (23) 
0

>  <r_i_glide_metal>  (23) 
-0

>  <r_i_glide_rewards>  (23) 
-1.18314

>  <r_i_glide_evdw>  (23) 
-1.07416

>  <r_i_glide_ecoul>  (23) 
0.705383

>  <r_i_glide_erotb>  (23) 
0

>  <r_i_glide_esite>  (23) 
0

>  <r_i_glide_emodel>  (23) 
1.59934

>  <r_i_glide_energy>  (23) 
-0.368775

>  <r_i_glide_einternal>  (23) 
0.00328969

>  <r_i_glide_intrahb_reward>  (23) 
-0

>  <i_i_glide_confnum>  (23) 
1

>  <i_i_glide_posenum>  (23) 
16

>  <r_i_glide_eff_state_penalty>  (23) 
0

>  <ligand_id>  (23) 
7

>  <original_smiles>  (23) 
C=C1CCC23CCC4OCCC4(C)C2C=CC2=CC(O)CC1(C)C23

>  <smiles>  (23) 
[H]OC1([H])C([H])=C2C([H])=C([H])C3([H])C4(C([H])([H])[H])C([H])([H])C([H])([H])OC4([H])C([H])([H])C([H])([H])C34C([H])([H])C([H])([H])C(=C([H])[H])C(C([H])([H])[H])(C1([H])[H])C24[H]

$$$$
8:0:0
     RDKit          3D

 29 31  0  0  1  0  0  0  0  0999 V2000
    5.7126   -1.5095   -1.9223 O   0  0  0  0  0  0  0  0  0  0  0  0
    4.6483   -2.0751   -1.6548 C   0  0  0  0  0  0  0  0  0  0  0  0
    3.4720   -2.0041   -2.5948 C   0  0  0  0  0  0  0  0  0  0  0  0
    3.5859   -2.7567   -3.9081 C   0  0  0  0  0  0  0  0  0  0  0  0
    3.6522   -1.2482   -3.8930 C   0  0  0  0  0  0  0  0  0  0  0  0
    4.5379   -2.8210   -0.5266 N   0  0  0  0  0  0  0  0  0  0  0  0
    3.2709   -3.3167    0.0443 C   0  0  0  0  0  0  0  0  0  0  0  0
    3.2234   -3.2834    1.5904 C   0  0  0  0  0  0  0  0  0  0  0  0
    3.7116   -2.0001    2.1954 C   0  0  0  0  0  0  0  0  0  0  0  0
    2.9700   -1.2142    2.9695 N   0  0  0  0  0  0  0  0  0  0  0  0
    3.8790   -0.2354    3.2547 C   0  0  0  0  0  0  0  0  0  0  0  0
    5.0833   -0.3782    2.7079 N   0  0  0  0  0  0  0  0  0  0  0  0
    4.9527   -1.5322    2.0101 N   0  0  0  0  0  0  0  0  0  0  0  0
    6.0951   -2.0498    1.2749 C   0  0  0  0  0  0  0  0  0  0  0  0
    5.7480   -3.1458    0.2507 C   0  0  0  0  0  0  0  0  0  0  0  0
    2.4711   -1.9475   -2.1734 H   0  0  0  0  0  0  0  0  0  0  0  0
    4.5027   -3.3015   -4.1285 H   0  0  0  0  0  0  0  0  0  0  0  0
    2.6804   -3.2081   -4.3013 H   0  0  0  0  0  0  0  0  0  0  0  0
    2.7848   -0.6869   -4.2372 H   0  0  0  0  0  0  0  0  0  0  0  0
    4.6143   -0.7764   -4.0994 H   0  0  0  0  0  0  0  0  0  0  0  0
    2.4446   -2.6750   -0.2515 H   0  0  0  0  0  0  0  0  0  0  0  0
    3.0475   -4.3123   -0.3437 H   0  0  0  0  0  0  0  0  0  0  0  0
    2.1840   -3.4230    1.9029 H   0  0  0  0  0  0  0  0  0  0  0  0
    3.7952   -4.1057    2.0265 H   0  0  0  0  0  0  0  0  0  0  0  0
    3.6627    0.5997    3.9003 H   0  0  0  0  0  0  0  0  0  0  0  0
    6.5823   -1.2142    0.7721 H   0  0  0  0  0  0  0  0  0  0  0  0
    6.8010   -2.4518    1.9999 H   0  0  0  0  0  0  0  0  0  0  0  0
    5.6333   -4.1053    0.7518 H   0  0  0  0  0  0  0  0  0  0  0  0
    6.6077   -3.3068   -0.4032 H   0  0  0  0  0  0  0  0  0  0  0  0
  1  2  2  0
  2  3  1  0
  2  6  1  0
  3  5  1  0
  3  4  1  0
  3 16  1  0
  4  5  1  0
  4 17  1  0
  4 18  1  0
  5 19  1  0
  5 20  1  0
  6 15  1  0
  6  7  1  0
  7  8  1  0
  7 21  1  0
  7 22  1  0
  8  9  1  0
  8 23  1  0
  8 24  1  0
  9 13  1  0
  9 10  2  0
 10 11  1  0
 11 12  2  0
 11 25  1  0
 12 13  1  0
 13 14  1  0
 14 15  1  0
 14 26  1  0
 14 27  1  0
 15 28  1  0
 15 29  1  0
M  END
>  <i_m_ct_stereo_status>  (24) 
1

>  <s_m_source_file>  (24) 
/var/tmp/pbs.5076255.sched01/tmpgr0kyu9k/0plolsrat.sdf

>  <i_m_source_file_index>  (24) 
12

>  <i_lp_mmshare_version>  (24) 
48012

>  <i_f3d_flags>  (24) 
0

>  <s_epik_input>  (24) 
W0NIMl0xW0NIMl1bQ0hdMUMoPU8pTihbQ0gyXVtDSDJdMilbQ0gyXVtDSDJdbihjMjMpbltjSF1uMw==

>  <s_epik_cmdline>  (24) 
J2VwaWtfcHl0aG9uJywgJy1waHQnLCAnMi4wJywgJy1waCcsICc3LjAnLCAnLXRuJywgJzgnLCAnLW1hJywgJzIwMCcsICctaW1hZScsICc8aW5maWxlLm1hZT4nLCAnLW9tYWUnLCAnPG91dGZpbGUubWFlPic=

>  <r_lp_tautomer_probability>  (24) 
1

>  <r_epik_Ionization_Penalty>  (24) 
0.000377216

>  <r_epik_Ionization_Penalty_Charging>  (24) 
0

>  <r_epik_Ionization_Penalty_Neutral>  (24) 
0.000377216

>  <r_epik_State_Penalty>  (24) 
0.00023027

>  <r_epik_Charging_Adjusted_Penalty>  (24) 
0.00023027

>  <i_epik_Tot_Q>  (24) 
0

>  <i_epik_Tot_abs_Q>  (24) 
0

>  <s_lp_Force_Field>  (24) 
OPLS3e

>  <r_lp_Energy>  (24) 
30.8039

>  <b_lp_Chiralities_Consistent>  (24) 
1

>  <s_lp_Variant>  (24) 
8:0-1

>  <s_i_glide_gridfile>  (24) 
pfpi4k_grid

>  <i_i_glide_lignum>  (24) 
12

>  <i_i_glide_rotatable_bonds>  (24) 
2

>  <r_i_docking_score>  (24) 
-3.35042

>  <r_i_glide_ligand_efficiency>  (24) 
-0.223361

>  <r_i_glide_ligand_efficiency_sa>  (24) 
-0.550856

>  <r_i_glide_ligand_efficiency_ln>  (24) 
-0.903552

>  <r_i_glide_gscore>  (24) 
-3.35042

>  <r_i_glide_lipo>  (24) 
-0.406737

>  <r_i_glide_hbond>  (24) 
-0.0442889

>  <r_i_glide_metal>  (24) 
-0

>  <r_i_glide_rewards>  (24) 
-2.12866

>  <r_i_glide_evdw>  (24) 
-21.8848

>  <r_i_glide_ecoul>  (24) 
-2.79886

>  <r_i_glide_erotb>  (24) 
0.775793

>  <r_i_glide_esite>  (24) 
-0.0324514

>  <r_i_glide_emodel>  (24) 
-29.6269

>  <r_i_glide_energy>  (24) 
-24.6837

>  <r_i_glide_einternal>  (24) 
1.43202

>  <r_i_glide_intrahb_reward>  (24) 
-0

>  <i_i_glide_confnum>  (24) 
5

>  <i_i_glide_posenum>  (24) 
32

>  <r_i_glide_eff_state_penalty>  (24) 
0

>  <ligand_id>  (24) 
8

>  <original_smiles>  (24) 
O=C(C1CC1)N1CCc2ncnn2CC1

>  <smiles>  (24) 
[H]c1nc2n(n1)C([H])([H])C([H])([H])N(C(=O)C1([H])C([H])([H])C1([H])[H])C([H])([H])C2([H])[H]

$$$$
8:0:1
     RDKit          3D

 29 31  0  0  1  0  0  0  0  0999 V2000
    5.7390   -3.0677   -2.7984 O   0  0  0  0  0  0  0  0  0  0  0  0
    4.8053   -2.7163   -2.0788 C   0  0  0  0  0  0  0  0  0  0  0  0
    3.4802   -2.3096   -2.6787 C   0  0  0  0  0  0  0  0  0  0  0  0
    3.0551   -3.0116   -3.9394 C   0  0  0  0  0  0  0  0  0  0  0  0
    3.4878   -1.5604   -3.9888 C   0  0  0  0  0  0  0  0  0  0  0  0
    4.9149   -2.7238   -0.7243 N   0  0  0  0  0  0  0  0  0  0  0  0
    6.0388   -3.4082   -0.0479 C   0  0  0  0  0  0  0  0  0  0  0  0
    5.6399   -4.1163    1.2735 C   0  0  0  0  0  0  0  0  0  0  0  0
    4.3892   -4.9421    1.1804 C   0  0  0  0  0  0  0  0  0  0  0  0
    4.3406   -6.2442    1.4251 N   0  0  0  0  0  0  0  0  0  0  0  0
    3.0114   -6.4760    1.2211 C   0  0  0  0  0  0  0  0  0  0  0  0
    2.2826   -5.4268    0.8560 N   0  0  0  0  0  0  0  0  0  0  0  0
    3.1954   -4.4237    0.8372 N   0  0  0  0  0  0  0  0  0  0  0  0
    2.7709   -3.0702    0.5077 C   0  0  0  0  0  0  0  0  0  0  0  0
    3.9287   -2.1040    0.1658 C   0  0  0  0  0  0  0  0  0  0  0  0
    2.6676   -2.0343   -2.0149 H   0  0  0  0  0  0  0  0  0  0  0  0
    3.7216   -3.7592   -4.3672 H   0  0  0  0  0  0  0  0  0  0  0  0
    1.9942   -3.2330   -4.0234 H   0  0  0  0  0  0  0  0  0  0  0  0
    2.7163   -0.7967   -4.0926 H   0  0  0  0  0  0  0  0  0  0  0  0
    4.4505   -1.3063   -4.4396 H   0  0  0  0  0  0  0  0  0  0  0  0
    6.4553   -4.1815   -0.6950 H   0  0  0  0  0  0  0  0  0  0  0  0
    6.8575   -2.7030    0.1250 H   0  0  0  0  0  0  0  0  0  0  0  0
    6.4570   -4.7645    1.5989 H   0  0  0  0  0  0  0  0  0  0  0  0
    5.4969   -3.3865    2.0738 H   0  0  0  0  0  0  0  0  0  0  0  0
    2.5583   -7.4431    1.3498 H   0  0  0  0  0  0  0  0  0  0  0  0
    2.0861   -3.1547   -0.3296 H   0  0  0  0  0  0  0  0  0  0  0  0
    2.1972   -2.6751    1.3448 H   0  0  0  0  0  0  0  0  0  0  0  0
    4.4190   -1.7635    1.0734 H   0  0  0  0  0  0  0  0  0  0  0  0
    3.5446   -1.1790   -0.2648 H   0  0  0  0  0  0  0  0  0  0  0  0
  1  2  2  0
  2  3  1  0
  2  6  1  0
  3  5  1  0
  3  4  1  0
  3 16  1  0
  4  5  1  0
  4 17  1  0
  4 18  1  0
  5 19  1  0
  5 20  1  0
  6 15  1  0
  6  7  1  0
  7  8  1  0
  7 21  1  0
  7 22  1  0
  8  9  1  0
  8 23  1  0
  8 24  1  0
  9 13  1  0
  9 10  2  0
 10 11  1  0
 11 12  2  0
 11 25  1  0
 12 13  1  0
 13 14  1  0
 14 15  1  0
 14 26  1  0
 14 27  1  0
 15 28  1  0
 15 29  1  0
M  END
>  <i_m_ct_stereo_status>  (25) 
1

>  <s_m_source_file>  (25) 
/var/tmp/pbs.5076255.sched01/tmpgr0kyu9k/0plolsrat.sdf

>  <i_m_source_file_index>  (25) 
12

>  <i_lp_mmshare_version>  (25) 
48012

>  <i_f3d_flags>  (25) 
0

>  <s_epik_input>  (25) 
W0NIMl0xW0NIMl1bQ0hdMUMoPU8pTihbQ0gyXVtDSDJdMilbQ0gyXVtDSDJdbihjMjMpbltjSF1uMw==

>  <s_epik_cmdline>  (25) 
J2VwaWtfcHl0aG9uJywgJy1waHQnLCAnMi4wJywgJy1waCcsICc3LjAnLCAnLXRuJywgJzgnLCAnLW1hJywgJzIwMCcsICctaW1hZScsICc8aW5maWxlLm1hZT4nLCAnLW9tYWUnLCAnPG91dGZpbGUubWFlPic=

>  <r_lp_tautomer_probability>  (25) 
1

>  <r_epik_Ionization_Penalty>  (25) 
0.000377216

>  <r_epik_Ionization_Penalty_Charging>  (25) 
0

>  <r_epik_Ionization_Penalty_Neutral>  (25) 
0.000377216

>  <r_epik_State_Penalty>  (25) 
0.00023027

>  <r_epik_Charging_Adjusted_Penalty>  (25) 
0.00023027

>  <i_epik_Tot_Q>  (25) 
0

>  <i_epik_Tot_abs_Q>  (25) 
0

>  <s_lp_Force_Field>  (25) 
OPLS3e

>  <r_lp_Energy>  (25) 
30.8039

>  <b_lp_Chiralities_Consistent>  (25) 
1

>  <s_lp_Variant>  (25) 
8:0-1

>  <s_i_glide_gridfile>  (25) 
pfpi4k_grid

>  <i_i_glide_lignum>  (25) 
12

>  <i_i_glide_rotatable_bonds>  (25) 
2

>  <r_i_docking_score>  (25) 
-3.17308

>  <r_i_glide_ligand_efficiency>  (25) 
-0.211539

>  <r_i_glide_ligand_efficiency_sa>  (25) 
-0.5217

>  <r_i_glide_ligand_efficiency_ln>  (25) 
-0.855728

>  <r_i_glide_gscore>  (25) 
-3.17308

>  <r_i_glide_lipo>  (25) 
-0.293948

>  <r_i_glide_hbond>  (25) 
0

>  <r_i_glide_metal>  (25) 
-0

>  <r_i_glide_rewards>  (25) 
-2.14689

>  <r_i_glide_evdw>  (25) 
-24.2194

>  <r_i_glide_ecoul>  (25) 
-1.9166

>  <r_i_glide_erotb>  (25) 
0.775793

>  <r_i_glide_esite>  (25) 
-0.00958018

>  <r_i_glide_emodel>  (25) 
-30.5437

>  <r_i_glide_energy>  (25) 
-26.136

>  <r_i_glide_einternal>  (25) 
1.69869

>  <r_i_glide_intrahb_reward>  (25) 
-0

>  <i_i_glide_confnum>  (25) 
3

>  <i_i_glide_posenum>  (25) 
4

>  <r_i_glide_eff_state_penalty>  (25) 
0

>  <ligand_id>  (25) 
8

>  <original_smiles>  (25) 
O=C(C1CC1)N1CCc2ncnn2CC1

>  <smiles>  (25) 
[H]c1nc2n(n1)C([H])([H])C([H])([H])N(C(=O)C1([H])C([H])([H])C1([H])[H])C([H])([H])C2([H])[H]

$$$$
8:0:2
     RDKit          3D

 29 31  0  0  1  0  0  0  0  0999 V2000
    5.4407   -1.0535   -1.9184 O   0  0  0  0  0  0  0  0  0  0  0  0
    5.0178   -2.2024   -1.9242 C   0  0  0  0  0  0  0  0  0  0  0  0
    4.2460   -2.7257   -3.0916 C   0  0  0  0  0  0  0  0  0  0  0  0
    3.5042   -1.6831   -3.9175 C   0  0  0  0  0  0  0  0  0  0  0  0
    2.7386   -2.6383   -3.0455 C   0  0  0  0  0  0  0  0  0  0  0  0
    5.2841   -3.0620   -0.9094 N   0  0  0  0  0  0  0  0  0  0  0  0
    4.5884   -4.3462   -0.7108 C   0  0  0  0  0  0  0  0  0  0  0  0
    4.2927   -4.6700    0.7707 C   0  0  0  0  0  0  0  0  0  0  0  0
    3.7392   -3.5266    1.5586 C   0  0  0  0  0  0  0  0  0  0  0  0
    2.5614   -3.5642    2.1823 N   0  0  0  0  0  0  0  0  0  0  0  0
    2.5659   -2.3132    2.7449 C   0  0  0  0  0  0  0  0  0  0  0  0
    3.6377   -1.5623    2.4989 N   0  0  0  0  0  0  0  0  0  0  0  0
    4.3972   -2.3727    1.7252 N   0  0  0  0  0  0  0  0  0  0  0  0
    5.6882   -1.8907    1.2538 C   0  0  0  0  0  0  0  0  0  0  0  0
    6.2908   -2.7248    0.1087 C   0  0  0  0  0  0  0  0  0  0  0  0
    4.7046   -3.5423   -3.6455 H   0  0  0  0  0  0  0  0  0  0  0  0
    3.5232   -0.6411   -3.5984 H   0  0  0  0  0  0  0  0  0  0  0  0
    3.4352   -1.8234   -4.9902 H   0  0  0  0  0  0  0  0  0  0  0  0
    2.1902   -3.4469   -3.5206 H   0  0  0  0  0  0  0  0  0  0  0  0
    2.2977   -2.2527   -2.1314 H   0  0  0  0  0  0  0  0  0  0  0  0
    3.6105   -4.2949   -1.1763 H   0  0  0  0  0  0  0  0  0  0  0  0
    5.1055   -5.1703   -1.2120 H   0  0  0  0  0  0  0  0  0  0  0  0
    3.5684   -5.4834    0.8131 H   0  0  0  0  0  0  0  0  0  0  0  0
    5.1915   -5.0226    1.2781 H   0  0  0  0  0  0  0  0  0  0  0  0
    1.7604   -1.9439    3.3826 H   0  0  0  0  0  0  0  0  0  0  0  0
    5.5640   -0.8578    0.9312 H   0  0  0  0  0  0  0  0  0  0  0  0
    6.3671   -1.8802    2.1040 H   0  0  0  0  0  0  0  0  0  0  0  0
    6.7545   -3.6267    0.5073 H   0  0  0  0  0  0  0  0  0  0  0  0
    7.1283   -2.1761   -0.3279 H   0  0  0  0  0  0  0  0  0  0  0  0
  1  2  2  0
  2  3  1  0
  2  6  1  0
  3  5  1  0
  3  4  1  0
  3 16  1  0
  4  5  1  0
  4 17  1  0
  4 18  1  0
  5 19  1  0
  5 20  1  0
  6 15  1  0
  6  7  1  0
  7  8  1  0
  7 21  1  0
  7 22  1  0
  8  9  1  0
  8 23  1  0
  8 24  1  0
  9 13  1  0
  9 10  2  0
 10 11  1  0
 11 12  2  0
 11 25  1  0
 12 13  1  0
 13 14  1  0
 14 15  1  0
 14 26  1  0
 14 27  1  0
 15 28  1  0
 15 29  1  0
M  END
>  <i_m_ct_stereo_status>  (26) 
1

>  <s_m_source_file>  (26) 
/var/tmp/pbs.5076255.sched01/tmpgr0kyu9k/0plolsrat.sdf

>  <i_m_source_file_index>  (26) 
12

>  <i_lp_mmshare_version>  (26) 
48012

>  <i_f3d_flags>  (26) 
0

>  <s_epik_input>  (26) 
W0NIMl0xW0NIMl1bQ0hdMUMoPU8pTihbQ0gyXVtDSDJdMilbQ0gyXVtDSDJdbihjMjMpbltjSF1uMw==

>  <s_epik_cmdline>  (26) 
J2VwaWtfcHl0aG9uJywgJy1waHQnLCAnMi4wJywgJy1waCcsICc3LjAnLCAnLXRuJywgJzgnLCAnLW1hJywgJzIwMCcsICctaW1hZScsICc8aW5maWxlLm1hZT4nLCAnLW9tYWUnLCAnPG91dGZpbGUubWFlPic=

>  <r_lp_tautomer_probability>  (26) 
1

>  <r_epik_Ionization_Penalty>  (26) 
0.000377216

>  <r_epik_Ionization_Penalty_Charging>  (26) 
0

>  <r_epik_Ionization_Penalty_Neutral>  (26) 
0.000377216

>  <r_epik_State_Penalty>  (26) 
0.00023027

>  <r_epik_Charging_Adjusted_Penalty>  (26) 
0.00023027

>  <i_epik_Tot_Q>  (26) 
0

>  <i_epik_Tot_abs_Q>  (26) 
0

>  <s_lp_Force_Field>  (26) 
OPLS3e

>  <r_lp_Energy>  (26) 
30.8039

>  <b_lp_Chiralities_Consistent>  (26) 
1

>  <s_lp_Variant>  (26) 
8:0-1

>  <s_i_glide_gridfile>  (26) 
pfpi4k_grid

>  <i_i_glide_lignum>  (26) 
12

>  <i_i_glide_rotatable_bonds>  (26) 
2

>  <r_i_docking_score>  (26) 
-3.02126

>  <r_i_glide_ligand_efficiency>  (26) 
-0.201417

>  <r_i_glide_ligand_efficiency_sa>  (26) 
-0.496737

>  <r_i_glide_ligand_efficiency_ln>  (26) 
-0.814783

>  <r_i_glide_gscore>  (26) 
-3.02126

>  <r_i_glide_lipo>  (26) 
-0.452605

>  <r_i_glide_hbond>  (26) 
-0.0106349

>  <r_i_glide_metal>  (26) 
-0

>  <r_i_glide_rewards>  (26) 
-2.07625

>  <r_i_glide_evdw>  (26) 
-22.1281

>  <r_i_glide_ecoul>  (26) 
-0.935373

>  <r_i_glide_erotb>  (26) 
0.775793

>  <r_i_glide_esite>  (26) 
-0.0108473

>  <r_i_glide_emodel>  (26) 
-27.2329

>  <r_i_glide_energy>  (26) 
-23.0634

>  <r_i_glide_einternal>  (26) 
1.78388

>  <r_i_glide_intrahb_reward>  (26) 
-0

>  <i_i_glide_confnum>  (26) 
1

>  <i_i_glide_posenum>  (26) 
23

>  <r_i_glide_eff_state_penalty>  (26) 
0

>  <ligand_id>  (26) 
8

>  <original_smiles>  (26) 
O=C(C1CC1)N1CCc2ncnn2CC1

>  <smiles>  (26) 
[H]c1nc2n(n1)C([H])([H])C([H])([H])N(C(=O)C1([H])C([H])([H])C1([H])[H])C([H])([H])C2([H])[H]

$$$$
9:0:0
     RDKit          3D

 27 29  0  0  1  0  0  0  0  0999 V2000
    4.2680   -4.3943    0.8593 Cl  0  0  0  0  0  0  0  0  0  0  0  0
    5.8516   -3.8338    0.5572 C   0  0  0  0  0  0  0  0  0  0  0  0
    6.8780   -4.3571    1.1274 N   0  0  0  0  0  0  0  0  0  0  0  0
    7.9905   -3.6139    0.6678 O   0  0  0  0  0  0  0  0  0  0  0  0
    7.5596   -2.6476   -0.2445 N   0  0  0  0  0  0  0  0  0  0  0  0
    6.2464   -2.7686   -0.3389 C   0  0  0  0  0  0  0  0  0  0  0  0
    5.4850   -1.8717   -1.2952 C   0  0  2  0  0  0  0  0  0  0  0  0
    4.1047   -1.4432   -0.7306 C   0  0  0  0  0  0  0  0  0  0  0  0
    3.0203   -1.9462   -1.6053 N   0  0  2  0  0  0  0  0  0  0  0  0
    3.0596   -3.4162   -1.8074 C   0  0  0  0  0  0  0  0  0  0  0  0
    4.4257   -3.7951   -2.4690 C   0  0  0  0  0  0  0  0  0  0  0  0
    5.2817   -2.5248   -2.6942 C   0  0  1  0  0  0  0  0  0  0  0  0
    4.4424   -1.5812   -3.5949 C   0  0  0  0  0  0  0  0  0  0  0  0
    3.0808   -1.2684   -2.9266 C   0  0  0  0  0  0  0  0  0  0  0  0
    6.0668   -0.9519   -1.4667 H   0  0  0  0  0  0  0  0  0  0  0  0
    3.9838   -1.8066    0.2832 H   0  0  0  0  0  0  0  0  0  0  0  0
    4.0638   -0.3562   -0.6440 H   0  0  0  0  0  0  0  0  0  0  0  0
    2.8873   -3.9113   -0.8773 H   0  0  0  0  0  0  0  0  0  0  0  0
    2.2547   -3.7356   -2.4749 H   0  0  0  0  0  0  0  0  0  0  0  0
    4.9888   -4.5203   -1.8787 H   0  0  0  0  0  0  0  0  0  0  0  0
    4.2795   -4.2931   -3.4363 H   0  0  0  0  0  0  0  0  0  0  0  0
    6.2448   -2.7613   -3.1677 H   0  0  0  0  0  0  0  0  0  0  0  0
    4.9781   -0.6559   -3.7789 H   0  0  0  0  0  0  0  0  0  0  0  0
    4.2743   -2.0415   -4.5694 H   0  0  0  0  0  0  0  0  0  0  0  0
    2.2559   -1.6341   -3.5463 H   0  0  0  0  0  0  0  0  0  0  0  0
    2.9374   -0.1848   -2.8036 H   0  0  0  0  0  0  0  0  0  0  0  0
    2.1197   -1.6837   -1.1765 H   0  0  0  0  0  0  0  0  0  0  0  0
  1  2  1  0
  2  6  1  0
  2  3  2  0
  3  4  1  0
  4  5  1  0
  5  6  2  0
  6  7  1  0
  7 12  1  0
  7  8  1  0
  7 15  1  6
  8  9  1  0
  8 16  1  0
  8 17  1  0
  9 14  1  0
  9 10  1  0
  9 27  1  1
 10 11  1  0
 10 18  1  0
 10 19  1  0
 11 12  1  0
 11 20  1  0
 11 21  1  0
 12 13  1  0
 12 22  1  6
 13 14  1  0
 13 23  1  0
 13 24  1  0
 14 25  1  0
 14 26  1  0
M  CHG  1   9   1
M  END
>  <i_m_ct_stereo_status>  (27) 
1

>  <s_m_source_file>  (27) 
/var/tmp/pbs.5076255.sched01/tmpgr0kyu9k/0plolsrat.sdf

>  <i_m_source_file_index>  (27) 
13

>  <i_lp_mmshare_version>  (27) 
48012

>  <i_f3d_flags>  (27) 
0

>  <s_epik_input>  (27) 
Q2xjMW5vbmMxW0NASF0oW0NIMl1OMjMpW0NIXShbQ0gyXVtDSDJdMilbQ0gyXVtDSDJdMw==

>  <s_epik_cmdline>  (27) 
J2VwaWtfcHl0aG9uJywgJy1waHQnLCAnMi4wJywgJy1waCcsICc3LjAnLCAnLXRuJywgJzgnLCAnLW1hJywgJzIwMCcsICctaW1hZScsICc8aW5maWxlLm1hZT4nLCAnLW9tYWUnLCAnPG91dGZpbGUubWFlPic=

>  <r_lp_tautomer_probability>  (27) 
1

>  <r_epik_Ionization_Penalty>  (27) 
0.00200573

>  <r_epik_Ionization_Penalty_Charging>  (27) 
0.00200573

>  <r_epik_Ionization_Penalty_Neutral>  (27) 
8.53813e-14

>  <r_epik_State_Penalty>  (27) 
0.00137037

>  <r_epik_Charging_Adjusted_Penalty>  (27) 
0.00337611

>  <i_epik_Tot_Q>  (27) 
1

>  <i_epik_Tot_abs_Q>  (27) 
1

>  <s_lp_Force_Field>  (27) 
OPLS3e

>  <r_lp_Energy>  (27) 
30.0624

>  <b_lp_Chiralities_Consistent>  (27) 
1

>  <s_lp_Variant>  (27) 
9:0-1

>  <s_i_glide_gridfile>  (27) 
pfpi4k_grid

>  <i_i_glide_lignum>  (27) 
13

>  <i_i_glide_rotatable_bonds>  (27) 
1

>  <r_i_docking_score>  (27) 
-4.16347

>  <r_i_glide_ligand_efficiency>  (27) 
-0.297391

>  <r_i_glide_ligand_efficiency_sa>  (27) 
-0.716754

>  <r_i_glide_ligand_efficiency_ln>  (27) 
-1.14411

>  <r_i_glide_gscore>  (27) 
-4.16347

>  <r_i_glide_lipo>  (27) 
-0.471825

>  <r_i_glide_hbond>  (27) 
-0.2

>  <r_i_glide_metal>  (27) 
-0

>  <r_i_glide_rewards>  (27) 
-1.94542

>  <r_i_glide_evdw>  (27) 
-17.1406

>  <r_i_glide_ecoul>  (27) 
-6.40299

>  <r_i_glide_erotb>  (27) 
0.362688

>  <r_i_glide_esite>  (27) 
-0.0914348

>  <r_i_glide_emodel>  (27) 
-28.5751

>  <r_i_glide_energy>  (27) 
-23.5436

>  <r_i_glide_einternal>  (27) 
0.914329

>  <r_i_glide_intrahb_reward>  (27) 
-0

>  <i_i_glide_confnum>  (27) 
1

>  <i_i_glide_posenum>  (27) 
15

>  <r_i_glide_eff_state_penalty>  (27) 
0

>  <ligand_id>  (27) 
9

>  <original_smiles>  (27) 
Clc1nonc1C1CN2CCC1CC2

>  <smiles>  (27) 
[H]C1([H])C2([H])C([H])([H])C([H])([H])[N+]([H])(C1([H])[H])C([H])([H])C2([H])c1nonc1Cl

$$$$
9:0:1
     RDKit          3D

 27 29  0  0  1  0  0  0  0  0999 V2000
    8.1420   -2.3882   -0.3166 Cl  0  0  0  0  0  0  0  0  0  0  0  0
    6.8451   -3.4620   -0.1039 C   0  0  0  0  0  0  0  0  0  0  0  0
    6.9791   -4.6048    0.5201 N   0  0  0  0  0  0  0  0  0  0  0  0
    5.7106   -5.1877    0.4302 O   0  0  0  0  0  0  0  0  0  0  0  0
    4.8336   -4.3493   -0.2802 N   0  0  0  0  0  0  0  0  0  0  0  0
    5.5314   -3.2906   -0.6243 C   0  0  0  0  0  0  0  0  0  0  0  0
    4.9833   -2.1836   -1.5221 C   0  0  2  0  0  0  0  0  0  0  0  0
    3.5124   -1.8072   -1.1628 C   0  0  0  0  0  0  0  0  0  0  0  0
    2.6279   -2.0359   -2.3402 N   0  0  2  0  0  0  0  0  0  0  0  0
    2.7422   -3.4454   -2.8341 C   0  0  0  0  0  0  0  0  0  0  0  0
    4.1923   -3.7343   -3.3632 C   0  0  0  0  0  0  0  0  0  0  0  0
    5.0557   -2.5137   -3.0463 C   0  0  1  0  0  0  0  0  0  0  0  0
    4.4329   -1.3390   -3.8414 C   0  0  0  0  0  0  0  0  0  0  0  0
    2.9766   -1.1055   -3.4324 C   0  0  0  0  0  0  0  0  0  0  0  0
    5.5835   -1.2751   -1.3735 H   0  0  0  0  0  0  0  0  0  0  0  0
    3.1272   -2.3655   -0.3064 H   0  0  0  0  0  0  0  0  0  0  0  0
    3.4537   -0.7663   -0.8502 H   0  0  0  0  0  0  0  0  0  0  0  0
    2.4692   -4.0890   -2.0012 H   0  0  0  0  0  0  0  0  0  0  0  0
    2.0182   -3.6246   -3.6361 H   0  0  0  0  0  0  0  0  0  0  0  0
    4.6167   -4.6359   -2.9156 H   0  0  0  0  0  0  0  0  0  0  0  0
    4.1938   -3.9594   -4.4362 H   0  0  0  0  0  0  0  0  0  0  0  0
    6.0825   -2.6758   -3.3588 H   0  0  0  0  0  0  0  0  0  0  0  0
    4.9855   -0.4238   -3.6414 H   0  0  0  0  0  0  0  0  0  0  0  0
    4.4761   -1.5031   -4.9189 H   0  0  0  0  0  0  0  0  0  0  0  0
    2.3061   -1.2756   -4.2731 H   0  0  0  0  0  0  0  0  0  0  0  0
    2.8138   -0.0773   -3.1172 H   0  0  0  0  0  0  0  0  0  0  0  0
    1.6957   -1.8235   -1.9992 H   0  0  0  0  0  0  0  0  0  0  0  0
  1  2  1  0
  2  6  1  0
  2  3  2  0
  3  4  1  0
  4  5  1  0
  5  6  2  0
  6  7  1  0
  7 12  1  0
  7  8  1  0
  7 15  1  6
  8  9  1  0
  8 16  1  0
  8 17  1  0
  9 14  1  0
  9 10  1  0
  9 27  1  1
 10 11  1  0
 10 18  1  0
 10 19  1  0
 11 12  1  0
 11 20  1  0
 11 21  1  0
 12 13  1  0
 12 22  1  6
 13 14  1  0
 13 23  1  0
 13 24  1  0
 14 25  1  0
 14 26  1  0
M  CHG  1   9   1
M  END
>  <i_m_ct_stereo_status>  (28) 
1

>  <s_m_source_file>  (28) 
/var/tmp/pbs.5076255.sched01/tmpgr0kyu9k/0plolsrat.sdf

>  <i_m_source_file_index>  (28) 
13

>  <i_lp_mmshare_version>  (28) 
48012

>  <i_f3d_flags>  (28) 
0

>  <s_epik_input>  (28) 
Q2xjMW5vbmMxW0NASF0oW0NIMl1OMjMpW0NIXShbQ0gyXVtDSDJdMilbQ0gyXVtDSDJdMw==

>  <s_epik_cmdline>  (28) 
J2VwaWtfcHl0aG9uJywgJy1waHQnLCAnMi4wJywgJy1waCcsICc3LjAnLCAnLXRuJywgJzgnLCAnLW1hJywgJzIwMCcsICctaW1hZScsICc8aW5maWxlLm1hZT4nLCAnLW9tYWUnLCAnPG91dGZpbGUubWFlPic=

>  <r_lp_tautomer_probability>  (28) 
1

>  <r_epik_Ionization_Penalty>  (28) 
0.00200573

>  <r_epik_Ionization_Penalty_Charging>  (28) 
0.00200573

>  <r_epik_Ionization_Penalty_Neutral>  (28) 
8.53813e-14

>  <r_epik_State_Penalty>  (28) 
0.00137037

>  <r_epik_Charging_Adjusted_Penalty>  (28) 
0.00337611

>  <i_epik_Tot_Q>  (28) 
1

>  <i_epik_Tot_abs_Q>  (28) 
1

>  <s_lp_Force_Field>  (28) 
OPLS3e

>  <r_lp_Energy>  (28) 
30.0624

>  <b_lp_Chiralities_Consistent>  (28) 
1

>  <s_lp_Variant>  (28) 
9:0-1

>  <s_i_glide_gridfile>  (28) 
pfpi4k_grid

>  <i_i_glide_lignum>  (28) 
13

>  <i_i_glide_rotatable_bonds>  (28) 
1

>  <r_i_docking_score>  (28) 
-3.94694

>  <r_i_glide_ligand_efficiency>  (28) 
-0.281924

>  <r_i_glide_ligand_efficiency_sa>  (28) 
-0.679478

>  <r_i_glide_ligand_efficiency_ln>  (28) 
-1.08461

>  <r_i_glide_gscore>  (28) 
-3.94694

>  <r_i_glide_lipo>  (28) 
-0.557846

>  <r_i_glide_hbond>  (28) 
-0.195095

>  <r_i_glide_metal>  (28) 
-0

>  <r_i_glide_rewards>  (28) 
-1.94542

>  <r_i_glide_evdw>  (28) 
-15.2731

>  <r_i_glide_ecoul>  (28) 
-5.18884

>  <r_i_glide_erotb>  (28) 
0.362688

>  <r_i_glide_esite>  (28) 
-0.0692866

>  <r_i_glide_emodel>  (28) 
-26.956

>  <r_i_glide_energy>  (28) 
-20.462

>  <r_i_glide_einternal>  (28) 
0.00384563

>  <r_i_glide_intrahb_reward>  (28) 
-0

>  <i_i_glide_confnum>  (28) 
1

>  <i_i_glide_posenum>  (28) 
28

>  <r_i_glide_eff_state_penalty>  (28) 
0

>  <ligand_id>  (28) 
9

>  <original_smiles>  (28) 
Clc1nonc1C1CN2CCC1CC2

>  <smiles>  (28) 
[H]C1([H])C2([H])C([H])([H])C([H])([H])[N+]([H])(C1([H])[H])C([H])([H])C2([H])c1nonc1Cl

$$$$
9:0:2
     RDKit          3D

 27 29  0  0  1  0  0  0  0  0999 V2000
    3.4908    0.0905    2.3256 Cl  0  0  0  0  0  0  0  0  0  0  0  0
    4.2491   -1.4212    2.1285 C   0  0  0  0  0  0  0  0  0  0  0  0
    4.9585   -1.9763    3.0721 N   0  0  0  0  0  0  0  0  0  0  0  0
    5.4079   -3.1759    2.5029 O   0  0  0  0  0  0  0  0  0  0  0  0
    4.9533   -3.2892    1.1829 N   0  0  0  0  0  0  0  0  0  0  0  0
    4.2386   -2.2069    0.9474 C   0  0  0  0  0  0  0  0  0  0  0  0
    3.6354   -1.8881   -0.4036 C   0  0  2  0  0  0  0  0  0  0  0  0
    3.0015   -3.1554   -1.0751 C   0  0  0  0  0  0  0  0  0  0  0  0
    3.6755   -3.4424   -2.3703 N   0  0  2  0  0  0  0  0  0  0  0  0
    5.1494   -3.5765   -2.1789 C   0  0  0  0  0  0  0  0  0  0  0  0
    5.7689   -2.2491   -1.6465 C   0  0  0  0  0  0  0  0  0  0  0  0
    4.6321   -1.2374   -1.4010 C   0  0  1  0  0  0  0  0  0  0  0  0
    3.9190   -0.9985   -2.7578 C   0  0  0  0  0  0  0  0  0  0  0  0
    3.3899   -2.3463   -3.3264 C   0  0  0  0  0  0  0  0  0  0  0  0
    2.8371   -1.1594   -0.2418 H   0  0  0  0  0  0  0  0  0  0  0  0
    3.0619   -4.0349   -0.4364 H   0  0  0  0  0  0  0  0  0  0  0  0
    1.9317   -3.0134   -1.2435 H   0  0  0  0  0  0  0  0  0  0  0  0
    5.3502   -4.3845   -1.4817 H   0  0  0  0  0  0  0  0  0  0  0  0
    5.6200   -3.8633   -3.1179 H   0  0  0  0  0  0  0  0  0  0  0  0
    6.3700   -2.4169   -0.7522 H   0  0  0  0  0  0  0  0  0  0  0  0
    6.5002   -1.8565   -2.3365 H   0  0  0  0  0  0  0  0  0  0  0  0
    5.0143   -0.2979   -1.0104 H   0  0  0  0  0  0  0  0  0  0  0  0
    3.0940   -0.2903   -2.6589 H   0  0  0  0  0  0  0  0  0  0  0  0
    4.6065   -0.5408   -3.4715 H   0  0  0  0  0  0  0  0  0  0  0  0
    3.8522   -2.5655   -4.2847 H   0  0  0  0  0  0  0  0  0  0  0  0
    2.3184   -2.2851   -3.5223 H   0  0  0  0  0  0  0  0  0  0  0  0
    3.3113   -4.3341   -2.7218 H   0  0  0  0  0  0  0  0  0  0  0  0
  1  2  1  0
  2  6  1  0
  2  3  2  0
  3  4  1  0
  4  5  1  0
  5  6  2  0
  6  7  1  0
  7 12  1  0
  7  8  1  0
  7 15  1  1
  8  9  1  0
  8 16  1  0
  8 17  1  0
  9 14  1  0
  9 10  1  0
  9 27  1  6
 10 11  1  0
 10 18  1  0
 10 19  1  0
 11 12  1  0
 11 20  1  0
 11 21  1  0
 12 13  1  0
 12 22  1  1
 13 14  1  0
 13 23  1  0
 13 24  1  0
 14 25  1  0
 14 26  1  0
M  CHG  1   9   1
M  END
>  <i_m_ct_stereo_status>  (29) 
1

>  <s_m_source_file>  (29) 
/var/tmp/pbs.5076255.sched01/tmpgr0kyu9k/0plolsrat.sdf

>  <i_m_source_file_index>  (29) 
13

>  <i_lp_mmshare_version>  (29) 
48012

>  <i_f3d_flags>  (29) 
0

>  <s_epik_input>  (29) 
Q2xjMW5vbmMxW0NASF0oW0NIMl1OMjMpW0NIXShbQ0gyXVtDSDJdMilbQ0gyXVtDSDJdMw==

>  <s_epik_cmdline>  (29) 
J2VwaWtfcHl0aG9uJywgJy1waHQnLCAnMi4wJywgJy1waCcsICc3LjAnLCAnLXRuJywgJzgnLCAnLW1hJywgJzIwMCcsICctaW1hZScsICc8aW5maWxlLm1hZT4nLCAnLW9tYWUnLCAnPG91dGZpbGUubWFlPic=

>  <r_lp_tautomer_probability>  (29) 
1

>  <r_epik_Ionization_Penalty>  (29) 
0.00200573

>  <r_epik_Ionization_Penalty_Charging>  (29) 
0.00200573

>  <r_epik_Ionization_Penalty_Neutral>  (29) 
8.53813e-14

>  <r_epik_State_Penalty>  (29) 
0.00137037

>  <r_epik_Charging_Adjusted_Penalty>  (29) 
0.00337611

>  <i_epik_Tot_Q>  (29) 
1

>  <i_epik_Tot_abs_Q>  (29) 
1

>  <s_lp_Force_Field>  (29) 
OPLS3e

>  <r_lp_Energy>  (29) 
30.0624

>  <b_lp_Chiralities_Consistent>  (29) 
1

>  <s_lp_Variant>  (29) 
9:0-1

>  <s_i_glide_gridfile>  (29) 
pfpi4k_grid

>  <i_i_glide_lignum>  (29) 
13

>  <i_i_glide_rotatable_bonds>  (29) 
1

>  <r_i_docking_score>  (29) 
-3.74216

>  <r_i_glide_ligand_efficiency>  (29) 
-0.267297

>  <r_i_glide_ligand_efficiency_sa>  (29) 
-0.644224

>  <r_i_glide_ligand_efficiency_ln>  (29) 
-1.02833

>  <r_i_glide_gscore>  (29) 
-3.74216

>  <r_i_glide_lipo>  (29) 
-0.29971

>  <r_i_glide_hbond>  (29) 
0

>  <r_i_glide_metal>  (29) 
-0

>  <r_i_glide_rewards>  (29) 
-1.94542

>  <r_i_glide_evdw>  (29) 
-19.429

>  <r_i_glide_ecoul>  (29) 
-5.71716

>  <r_i_glide_erotb>  (29) 
0.362688

>  <r_i_glide_esite>  (29) 
-0.0306921

>  <r_i_glide_emodel>  (29) 
-31.2981

>  <r_i_glide_energy>  (29) 
-25.1462

>  <r_i_glide_einternal>  (29) 
0.0212453

>  <r_i_glide_intrahb_reward>  (29) 
-0

>  <i_i_glide_confnum>  (29) 
5

>  <i_i_glide_posenum>  (29) 
20

>  <r_i_glide_eff_state_penalty>  (29) 
0

>  <ligand_id>  (29) 
9

>  <original_smiles>  (29) 
Clc1nonc1C1CN2CCC1CC2

>  <smiles>  (29) 
[H]C1([H])C2([H])C([H])([H])C([H])([H])[N+]([H])(C1([H])[H])C([H])([H])C2([H])c1nonc1Cl

$$$$
10:0:0
     RDKit          3D

 54 60  0  0  1  0  0  0  0  0999 V2000
   -0.3724   -6.6929    3.5110 O   0  0  0  0  0  0  0  0  0  0  0  0
    0.4901   -7.5622    3.3865 C   0  0  0  0  0  0  0  0  0  0  0  0
    0.2946   -8.9340    4.0653 C   0  0  1  0  0  0  0  0  0  0  0  0
   -0.0037  -10.0577    3.0338 C   0  0  0  0  0  0  0  0  0  0  0  0
    0.7681  -11.3759    3.3156 C   0  0  0  0  0  0  0  0  0  0  0  0
    2.2898  -11.1622    3.5146 C   0  0  0  0  0  0  0  0  0  0  0  0
    2.5325   -9.7796    3.9901 N   0  0  1  0  0  0  0  0  0  0  0  0
    1.5035   -9.3001    4.9307 C   0  0  0  0  0  0  0  0  0  0  0  0
    3.9122   -9.3152    4.2383 C   0  0  0  0  0  0  0  0  0  0  0  0
    4.2176   -8.0374    3.3655 C   0  0  2  0  0  0  0  0  0  0  0  0
    4.5105   -8.6980    2.1310 O   0  0  0  0  0  0  0  0  0  0  0  0
    5.4989   -7.2229    3.8084 C   0  0  1  0  0  0  0  0  0  0  0  0
    6.0539   -6.4437    2.5778 C   0  0  0  0  0  0  0  0  0  0  0  0
    5.0073   -5.7729    1.6772 C   0  0  0  0  0  0  0  0  0  0  0  0
    5.2591   -4.9141    0.5870 C   0  0  0  0  0  0  0  0  0  0  0  0
    4.1751   -4.4398   -0.1896 C   0  0  0  0  0  0  0  0  0  0  0  0
    2.8419   -4.8528    0.0812 C   0  0  0  0  0  0  0  0  0  0  0  0
    1.8191   -4.4431   -0.7215 O   0  0  0  0  0  0  0  0  0  0  0  0
    2.5799   -5.7202    1.1649 C   0  0  0  0  0  0  0  0  0  0  0  0
    3.6557   -6.0939    1.9473 C   0  0  0  0  0  0  0  0  0  0  0  0
    3.1201   -6.9074    3.1283 C   0  0  2  0  0  0  0  0  0  0  0  0
    2.9775   -5.9727    4.4260 C   0  0  2  0  0  0  0  0  0  0  0  0
    3.6940   -4.6457    4.2661 C   0  0  0  0  0  0  0  0  0  0  0  0
    4.9822   -4.8000    4.5932 C   0  0  0  0  0  0  0  0  0  0  0  0
    5.2358   -6.2359    5.0248 C   0  0  1  0  0  0  0  0  0  0  0  0
    3.8381   -6.4781    5.6046 C   0  0  0  0  0  0  0  0  0  0  0  0
    1.7263   -7.3130    2.4858 C   0  0  2  0  0  0  0  0  0  0  0  0
    1.3968   -6.2799    1.5451 O   0  0  0  0  0  0  0  0  0  0  0  0
   -0.5580   -8.8352    4.7369 H   0  0  0  0  0  0  0  0  0  0  0  0
   -1.0729  -10.2538    3.0413 H   0  0  0  0  0  0  0  0  0  0  0  0
    0.2259   -9.7303    2.0231 H   0  0  0  0  0  0  0  0  0  0  0  0
    0.3486  -11.8503    4.2083 H   0  0  0  0  0  0  0  0  0  0  0  0
    0.6074  -12.0879    2.5073 H   0  0  0  0  0  0  0  0  0  0  0  0
    2.6832  -11.8994    4.2170 H   0  0  0  0  0  0  0  0  0  0  0  0
    2.8087  -11.3053    2.5636 H   0  0  0  0  0  0  0  0  0  0  0  0
    1.8263   -8.4317    5.4957 H   0  0  0  0  0  0  0  0  0  0  0  0
    1.2692  -10.0723    5.6691 H   0  0  0  0  0  0  0  0  0  0  0  0
    4.1011   -9.2271    5.3030 H   0  0  0  0  0  0  0  0  0  0  0  0
    4.6076  -10.1133    3.9744 H   0  0  0  0  0  0  0  0  0  0  0  0
    3.8504   -9.3400    1.9155 H   0  0  0  0  0  0  0  0  0  0  0  0
    6.2713   -7.9250    4.1302 H   0  0  0  0  0  0  0  0  0  0  0  0
    6.8053   -5.7166    2.8817 H   0  0  0  0  0  0  0  0  0  0  0  0
    6.5898   -7.1477    1.9436 H   0  0  0  0  0  0  0  0  0  0  0  0
    6.2698   -4.6236    0.3341 H   0  0  0  0  0  0  0  0  0  0  0  0
    4.3646   -3.7782   -1.0182 H   0  0  0  0  0  0  0  0  0  0  0  0
    2.1243   -4.0661   -1.5353 H   0  0  0  0  0  0  0  0  0  0  0  0
    1.9548   -5.7868    4.7480 H   0  0  0  0  0  0  0  0  0  0  0  0
    3.2174   -3.7343    3.9365 H   0  0  0  0  0  0  0  0  0  0  0  0
    5.7347   -4.0268    4.5746 H   0  0  0  0  0  0  0  0  0  0  0  0
    6.0170   -6.2693    5.7862 H   0  0  0  0  0  0  0  0  0  0  0  0
    3.6928   -5.8219    6.4646 H   0  0  0  0  0  0  0  0  0  0  0  0
    3.6369   -7.4525    6.0143 H   0  0  0  0  0  0  0  0  0  0  0  0
    1.8830   -8.2072    1.8810 H   0  0  0  0  0  0  0  0  0  0  0  0
    2.3083   -9.2635    3.1525 H   0  0  0  0  0  0  0  0  0  0  0  0
  1  2  2  0
  2 27  1  0
  2  3  1  0
  3  8  1  0
  3  4  1  0
  3 29  1  1
  4  5  1  0
  4 30  1  0
  4 31  1  0
  5  6  1  0
  5 32  1  0
  5 33  1  0
  6  7  1  0
  6 34  1  0
  6 35  1  0
  7  8  1  0
  7  9  1  0
  7 54  1  6
  8 36  1  0
  8 37  1  0
  9 10  1  0
  9 38  1  0
  9 39  1  0
 10 21  1  0
 10 11  1  6
 10 12  1  0
 11 40  1  0
 12 25  1  0
 12 13  1  0
 12 41  1  1
 13 14  1  0
 13 42  1  0
 13 43  1  0
 14 20  2  0
 14 15  1  0
 15 16  2  0
 15 44  1  0
 16 17  1  0
 16 45  1  0
 17 18  1  0
 17 19  2  0
 18 46  1  0
 19 28  1  0
 19 20  1  0
 21 20  1  6
 21 22  1  0
 21 27  1  0
 22 26  1  0
 22 23  1  0
 22 47  1  1
 23 24  2  0
 23 48  1  0
 24 25  1  0
 24 49  1  0
 25 26  1  0
 25 50  1  1
 26 51  1  0
 26 52  1  0
 27 28  1  0
 27 53  1  6
M  CHG  1   7   1
M  END
>  <i_m_ct_stereo_status>  (30) 
1

>  <s_m_source_file>  (30) 
/var/tmp/pbs.5076255.sched01/tmpgr0kyu9k/0plolsrat.sdf

>  <i_m_source_file_index>  (30) 
14

>  <i_lp_mmshare_version>  (30) 
48012

>  <i_f3d_flags>  (30) 
0

>  <s_epik_input>  (30) 
W0NIMl0xTihbQ0gyXTIpW0NIMl1bQ0gyXVtDSDJdW0NAQEhdMUMoPU8pW0NASF0zT2MoYyhbT0hdKVtjSF1bY0hdNCljNWM0W0NIMl1bQ0BIXShbQ0BAXTIoW0NAXTM1NilbT0hdKVtDQEhdN1tDSF09W0NIXVtDQEBIXTZbQ0gyXTc=

>  <s_epik_cmdline>  (30) 
J2VwaWtfcHl0aG9uJywgJy1waHQnLCAnMi4wJywgJy1waCcsICc3LjAnLCAnLXRuJywgJzgnLCAnLW1hJywgJzIwMCcsICctaW1hZScsICc8aW5maWxlLm1hZT4nLCAnLW9tYWUnLCAnPG91dGZpbGUubWFlPic=

>  <r_lp_tautomer_probability>  (30) 
1

>  <r_epik_Ionization_Penalty>  (30) 
0.164339

>  <r_epik_Ionization_Penalty_Charging>  (30) 
0.161222

>  <r_epik_Ionization_Penalty_Neutral>  (30) 
0.00311702

>  <r_epik_State_Penalty>  (30) 
0.184482

>  <r_epik_Charging_Adjusted_Penalty>  (30) 
0.345705

>  <i_epik_Tot_Q>  (30) 
1

>  <i_epik_Tot_abs_Q>  (30) 
1

>  <s_lp_Force_Field>  (30) 
OPLS3e

>  <r_lp_Energy>  (30) 
103.278

>  <b_lp_Chiralities_Consistent>  (30) 
1

>  <s_lp_Variant>  (30) 
10:0-1

>  <s_i_glide_gridfile>  (30) 
pfpi4k_grid

>  <i_i_glide_lignum>  (30) 
14

>  <i_i_glide_rotatable_bonds>  (30) 
2

>  <r_i_docking_score>  (30) 
-3.69948

>  <r_i_glide_ligand_efficiency>  (30) 
-0.132124

>  <r_i_glide_ligand_efficiency_sa>  (30) 
-0.401208

>  <r_i_glide_ligand_efficiency_ln>  (30) 
-0.85395

>  <r_i_glide_gscore>  (30) 
-3.69948

>  <r_i_glide_lipo>  (30) 
-0.357484

>  <r_i_glide_hbond>  (30) 
-0.12708

>  <r_i_glide_metal>  (30) 
-0

>  <r_i_glide_rewards>  (30) 
-0.815067

>  <r_i_glide_evdw>  (30) 
-23.1213

>  <r_i_glide_ecoul>  (30) 
-8.02409

>  <r_i_glide_erotb>  (30) 
0

>  <r_i_glide_esite>  (30) 
-0.0401736

>  <r_i_glide_emodel>  (30) 
-40.8672

>  <r_i_glide_energy>  (30) 
-31.1454

>  <r_i_glide_einternal>  (30) 
0.45684

>  <r_i_glide_intrahb_reward>  (30) 
-0

>  <i_i_glide_confnum>  (30) 
1

>  <i_i_glide_posenum>  (30) 
37

>  <r_i_glide_eff_state_penalty>  (30) 
0

>  <ligand_id>  (30) 
10

>  <original_smiles>  (30) 
O=C1C2CCCN(C2)CC2(O)C3Cc4ccc(O)c5c4C2(C2C=CC3C2)C1O5

>  <smiles>  (30) 
[H]Oc1c([H])c([H])c2c3c1OC1([H])C(=O)C4([H])C([H])([H])C([H])([H])C([H])([H])[N+]([H])(C4([H])[H])C([H])([H])C4(O[H])C([H])(C2([H])[H])C2([H])C([H])=C([H])C([H])(C2([H])[H])C314

$$$$
10:0:1
     RDKit          3D

 54 60  0  0  1  0  0  0  0  0999 V2000
   -0.4058   -6.6827    3.4994 O   0  0  0  0  0  0  0  0  0  0  0  0
    0.4455   -7.5643    3.3774 C   0  0  0  0  0  0  0  0  0  0  0  0
    0.2291   -8.9330    4.0561 C   0  0  1  0  0  0  0  0  0  0  0  0
   -0.0790  -10.0530    3.0222 C   0  0  0  0  0  0  0  0  0  0  0  0
    0.6763  -11.3805    3.3076 C   0  0  0  0  0  0  0  0  0  0  0  0
    2.2020  -11.1825    3.5120 C   0  0  0  0  0  0  0  0  0  0  0  0
    2.4629   -9.8048    3.9828 N   0  0  1  0  0  0  0  0  0  0  0  0
    1.4364   -9.3139    4.9193 C   0  0  0  0  0  0  0  0  0  0  0  0
    3.8414   -9.3636    4.2497 C   0  0  0  0  0  0  0  0  0  0  0  0
    4.1696   -8.0884    3.3778 C   0  0  2  0  0  0  0  0  0  0  0  0
    4.3857   -8.7577    2.1355 O   0  0  0  0  0  0  0  0  0  0  0  0
    5.4616   -7.2899    3.8241 C   0  0  1  0  0  0  0  0  0  0  0  0
    6.0286   -6.5176    2.5980 C   0  0  0  0  0  0  0  0  0  0  0  0
    4.9978   -5.8297    1.6964 C   0  0  0  0  0  0  0  0  0  0  0  0
    5.2526   -4.9700    0.6065 C   0  0  0  0  0  0  0  0  0  0  0  0
    4.1782   -4.4819   -0.1732 C   0  0  0  0  0  0  0  0  0  0  0  0
    2.8394   -4.8804    0.0921 C   0  0  0  0  0  0  0  0  0  0  0  0
    1.8186   -4.4622   -0.7149 O   0  0  0  0  0  0  0  0  0  0  0  0
    2.5683   -5.7436    1.1713 C   0  0  0  0  0  0  0  0  0  0  0  0
    3.6366   -6.1287    1.9573 C   0  0  0  0  0  0  0  0  0  0  0  0
    3.0895   -6.9422    3.1376 C   0  0  2  0  0  0  0  0  0  0  0  0
    2.9490   -6.0072    4.4359 C   0  0  2  0  0  0  0  0  0  0  0  0
    3.6824   -4.6887    4.2829 C   0  0  0  0  0  0  0  0  0  0  0  0
    4.9661   -4.8595    4.6155 C   0  0  0  0  0  0  0  0  0  0  0  0
    5.2022   -6.2994    5.0425 C   0  0  1  0  0  0  0  0  0  0  0  0
    3.7982   -6.5242    5.6175 C   0  0  0  0  0  0  0  0  0  0  0  0
    1.6920   -7.3301    2.4851 C   0  0  2  0  0  0  0  0  0  0  0  0
    1.3761   -6.2913    1.5449 O   0  0  0  0  0  0  0  0  0  0  0  0
   -0.6258   -8.8251    4.7256 H   0  0  0  0  0  0  0  0  0  0  0  0
   -1.1536  -10.2448    3.0198 H   0  0  0  0  0  0  0  0  0  0  0  0
    0.1625   -9.7264    2.0129 H   0  0  0  0  0  0  0  0  0  0  0  0
    0.2469  -11.8447    4.2019 H   0  0  0  0  0  0  0  0  0  0  0  0
    0.5064  -12.0935    2.4996 H   0  0  0  0  0  0  0  0  0  0  0  0
    2.5822  -11.9254    4.2150 H   0  0  0  0  0  0  0  0  0  0  0  0
    2.7201  -11.3304    2.5613 H   0  0  0  0  0  0  0  0  0  0  0  0
    1.7624   -8.4499    5.4921 H   0  0  0  0  0  0  0  0  0  0  0  0
    1.1863  -10.0828    5.6556 H   0  0  0  0  0  0  0  0  0  0  0  0
    4.0229   -9.2769    5.3144 H   0  0  0  0  0  0  0  0  0  0  0  0
    4.5255  -10.1740    3.9903 H   0  0  0  0  0  0  0  0  0  0  0  0
    4.9743   -9.4891    2.2651 H   0  0  0  0  0  0  0  0  0  0  0  0
    6.2251   -8.0002    4.1511 H   0  0  0  0  0  0  0  0  0  0  0  0
    6.7863   -5.7955    2.9040 H   0  0  0  0  0  0  0  0  0  0  0  0
    6.5575   -7.2242    1.9613 H   0  0  0  0  0  0  0  0  0  0  0  0
    6.2697   -4.6932    0.3597 H   0  0  0  0  0  0  0  0  0  0  0  0
    4.3859   -3.8215   -1.0011 H   0  0  0  0  0  0  0  0  0  0  0  0
    2.1346   -4.1398   -1.5482 H   0  0  0  0  0  0  0  0  0  0  0  0
    1.9260   -5.8119    4.7506 H   0  0  0  0  0  0  0  0  0  0  0  0
    3.2180   -3.7719    3.9506 H   0  0  0  0  0  0  0  0  0  0  0  0
    5.7303   -4.0974    4.6000 H   0  0  0  0  0  0  0  0  0  0  0  0
    5.9764   -6.3468    5.8089 H   0  0  0  0  0  0  0  0  0  0  0  0
    3.6544   -5.8680    6.4797 H   0  0  0  0  0  0  0  0  0  0  0  0
    3.5813   -7.4956    6.0224 H   0  0  0  0  0  0  0  0  0  0  0  0
    1.8393   -8.2251    1.8790 H   0  0  0  0  0  0  0  0  0  0  0  0
    2.2818   -9.2971    3.1276 H   0  0  0  0  0  0  0  0  0  0  0  0
  1  2  2  0
  2 27  1  0
  2  3  1  0
  3  8  1  0
  3  4  1  0
  3 29  1  1
  4  5  1  0
  4 30  1  0
  4 31  1  0
  5  6  1  0
  5 32  1  0
  5 33  1  0
  6  7  1  0
  6 34  1  0
  6 35  1  0
  7  8  1  0
  7  9  1  0
  7 54  1  6
  8 36  1  0
  8 37  1  0
  9 10  1  0
  9 38  1  0
  9 39  1  0
 10 21  1  0
 10 11  1  6
 10 12  1  0
 11 40  1  0
 12 25  1  0
 12 13  1  0
 12 41  1  1
 13 14  1  0
 13 42  1  0
 13 43  1  0
 14 20  2  0
 14 15  1  0
 15 16  2  0
 15 44  1  0
 16 17  1  0
 16 45  1  0
 17 18  1  0
 17 19  2  0
 18 46  1  0
 19 28  1  0
 19 20  1  0
 21 20  1  6
 21 22  1  0
 21 27  1  0
 22 26  1  0
 22 23  1  0
 22 47  1  1
 23 24  2  0
 23 48  1  0
 24 25  1  0
 24 49  1  0
 25 26  1  0
 25 50  1  1
 26 51  1  0
 26 52  1  0
 27 28  1  0
 27 53  1  6
M  CHG  1   7   1
M  END
>  <i_m_ct_stereo_status>  (31) 
1

>  <s_m_source_file>  (31) 
/var/tmp/pbs.5076255.sched01/tmpgr0kyu9k/0plolsrat.sdf

>  <i_m_source_file_index>  (31) 
14

>  <i_lp_mmshare_version>  (31) 
48012

>  <i_f3d_flags>  (31) 
0

>  <s_epik_input>  (31) 
W0NIMl0xTihbQ0gyXTIpW0NIMl1bQ0gyXVtDSDJdW0NAQEhdMUMoPU8pW0NASF0zT2MoYyhbT0hdKVtjSF1bY0hdNCljNWM0W0NIMl1bQ0BIXShbQ0BAXTIoW0NAXTM1NilbT0hdKVtDQEhdN1tDSF09W0NIXVtDQEBIXTZbQ0gyXTc=

>  <s_epik_cmdline>  (31) 
J2VwaWtfcHl0aG9uJywgJy1waHQnLCAnMi4wJywgJy1waCcsICc3LjAnLCAnLXRuJywgJzgnLCAnLW1hJywgJzIwMCcsICctaW1hZScsICc8aW5maWxlLm1hZT4nLCAnLW9tYWUnLCAnPG91dGZpbGUubWFlPic=

>  <r_lp_tautomer_probability>  (31) 
1

>  <r_epik_Ionization_Penalty>  (31) 
0.164339

>  <r_epik_Ionization_Penalty_Charging>  (31) 
0.161222

>  <r_epik_Ionization_Penalty_Neutral>  (31) 
0.00311702

>  <r_epik_State_Penalty>  (31) 
0.184482

>  <r_epik_Charging_Adjusted_Penalty>  (31) 
0.345705

>  <i_epik_Tot_Q>  (31) 
1

>  <i_epik_Tot_abs_Q>  (31) 
1

>  <s_lp_Force_Field>  (31) 
OPLS3e

>  <r_lp_Energy>  (31) 
103.278

>  <b_lp_Chiralities_Consistent>  (31) 
1

>  <s_lp_Variant>  (31) 
10:0-1

>  <s_i_glide_gridfile>  (31) 
pfpi4k_grid

>  <i_i_glide_lignum>  (31) 
14

>  <i_i_glide_rotatable_bonds>  (31) 
2

>  <r_i_docking_score>  (31) 
-3.666

>  <r_i_glide_ligand_efficiency>  (31) 
-0.130929

>  <r_i_glide_ligand_efficiency_sa>  (31) 
-0.397577

>  <r_i_glide_ligand_efficiency_ln>  (31) 
-0.846221

>  <r_i_glide_gscore>  (31) 
-3.666

>  <r_i_glide_lipo>  (31) 
-0.346055

>  <r_i_glide_hbond>  (31) 
-0.139676

>  <r_i_glide_metal>  (31) 
-0

>  <r_i_glide_rewards>  (31) 
-0.815067

>  <r_i_glide_evdw>  (31) 
-22.7789

>  <r_i_glide_ecoul>  (31) 
-7.90062

>  <r_i_glide_erotb>  (31) 
0

>  <r_i_glide_esite>  (31) 
-0.0411699

>  <r_i_glide_emodel>  (31) 
-40.1774

>  <r_i_glide_energy>  (31) 
-30.6795

>  <r_i_glide_einternal>  (31) 
0.628385

>  <r_i_glide_intrahb_reward>  (31) 
-0

>  <i_i_glide_confnum>  (31) 
2

>  <i_i_glide_posenum>  (31) 
39

>  <r_i_glide_eff_state_penalty>  (31) 
0

>  <ligand_id>  (31) 
10

>  <original_smiles>  (31) 
O=C1C2CCCN(C2)CC2(O)C3Cc4ccc(O)c5c4C2(C2C=CC3C2)C1O5

>  <smiles>  (31) 
[H]Oc1c([H])c([H])c2c3c1OC1([H])C(=O)C4([H])C([H])([H])C([H])([H])C([H])([H])[N+]([H])(C4([H])[H])C([H])([H])C4(O[H])C([H])(C2([H])[H])C2([H])C([H])=C([H])C([H])(C2([H])[H])C314

$$$$
10:0:2
     RDKit          3D

 54 60  0  0  1  0  0  0  0  0999 V2000
    1.3656   -5.8568    0.0755 O   0  0  0  0  0  0  0  0  0  0  0  0
    2.2370   -5.4581    0.8432 C   0  0  0  0  0  0  0  0  0  0  0  0
    3.3146   -4.4770    0.3366 C   0  0  1  0  0  0  0  0  0  0  0  0
    3.1092   -3.0331    0.8889 C   0  0  0  0  0  0  0  0  0  0  0  0
    4.4267   -2.3665    1.3673 C   0  0  0  0  0  0  0  0  0  0  0  0
    5.2482   -3.2671    2.3325 C   0  0  0  0  0  0  0  0  0  0  0  0
    4.9257   -4.6945    2.0949 N   0  0  1  0  0  0  0  0  0  0  0  0
    4.7133   -5.0026    0.6685 C   0  0  0  0  0  0  0  0  0  0  0  0
    5.5798   -5.7490    2.8938 C   0  0  0  0  0  0  0  0  0  0  0  0
    4.4837   -6.6231    3.6190 C   0  0  2  0  0  0  0  0  0  0  0  0
    4.1869   -5.7057    4.6700 O   0  0  0  0  0  0  0  0  0  0  0  0
    5.0007   -8.0005    4.1988 C   0  0  1  0  0  0  0  0  0  0  0  0
    4.0798   -8.4318    5.3772 C   0  0  0  0  0  0  0  0  0  0  0  0
    2.5746   -8.2178    5.1730 C   0  0  0  0  0  0  0  0  0  0  0  0
    1.5355   -8.6421    6.0210 C   0  0  0  0  0  0  0  0  0  0  0  0
    0.1978   -8.2977    5.7124 C   0  0  0  0  0  0  0  0  0  0  0  0
   -0.1144   -7.4855    4.5934 C   0  0  0  0  0  0  0  0  0  0  0  0
   -1.4043   -7.1213    4.3398 O   0  0  0  0  0  0  0  0  0  0  0  0
    0.9169   -7.0437    3.7392 C   0  0  0  0  0  0  0  0  0  0  0  0
    2.1982   -7.4767    4.0269 C   0  0  0  0  0  0  0  0  0  0  0  0
    3.1209   -7.0138    2.8992 C   0  0  2  0  0  0  0  0  0  0  0  0
    3.3530   -8.2013    1.8478 C   0  0  2  0  0  0  0  0  0  0  0  0
    2.9013   -9.5483    2.3787 C   0  0  0  0  0  0  0  0  0  0  0  0
    3.8851  -10.0834    3.1046 C   0  0  0  0  0  0  0  0  0  0  0  0
    5.0910   -9.1533    3.1056 C   0  0  1  0  0  0  0  0  0  0  0  0
    4.8455   -8.5768    1.7057 C   0  0  0  0  0  0  0  0  0  0  0  0
    2.1901   -5.8568    2.3374 C   0  0  2  0  0  0  0  0  0  0  0  0
    0.8395   -6.2224    2.6566 O   0  0  0  0  0  0  0  0  0  0  0  0
    3.2303   -4.4566   -0.7488 H   0  0  0  0  0  0  0  0  0  0  0  0
    2.6525   -2.4123    0.1161 H   0  0  0  0  0  0  0  0  0  0  0  0
    2.4031   -3.0257    1.7215 H   0  0  0  0  0  0  0  0  0  0  0  0
    5.0377   -2.1196    0.4947 H   0  0  0  0  0  0  0  0  0  0  0  0
    4.2097   -1.4111    1.8450 H   0  0  0  0  0  0  0  0  0  0  0  0
    6.3136   -3.0785    2.1968 H   0  0  0  0  0  0  0  0  0  0  0  0
    5.0003   -3.0247    3.3682 H   0  0  0  0  0  0  0  0  0  0  0  0
    4.7711   -6.0653    0.4503 H   0  0  0  0  0  0  0  0  0  0  0  0
    5.4839   -4.5316    0.0540 H   0  0  0  0  0  0  0  0  0  0  0  0
    6.3088   -6.2888    2.3009 H   0  0  0  0  0  0  0  0  0  0  0  0
    6.2249   -5.2763    3.6362 H   0  0  0  0  0  0  0  0  0  0  0  0
    4.9465   -5.6239    5.2302 H   0  0  0  0  0  0  0  0  0  0  0  0
    6.0083   -7.8640    4.5958 H   0  0  0  0  0  0  0  0  0  0  0  0
    4.2665   -9.4657    5.6676 H   0  0  0  0  0  0  0  0  0  0  0  0
    4.3440   -7.8445    6.2541 H   0  0  0  0  0  0  0  0  0  0  0  0
    1.7536   -9.2293    6.9043 H   0  0  0  0  0  0  0  0  0  0  0  0
   -0.5849   -8.6561    6.3649 H   0  0  0  0  0  0  0  0  0  0  0  0
   -2.0138   -7.6295    4.8558 H   0  0  0  0  0  0  0  0  0  0  0  0
    2.8921   -8.0347    0.8808 H   0  0  0  0  0  0  0  0  0  0  0  0
    1.9333   -9.9843    2.1701 H   0  0  0  0  0  0  0  0  0  0  0  0
    3.8520  -11.0422    3.6015 H   0  0  0  0  0  0  0  0  0  0  0  0
    6.0161   -9.7279    3.1579 H   0  0  0  0  0  0  0  0  0  0  0  0
    4.9492   -9.3723    0.9631 H   0  0  0  0  0  0  0  0  0  0  0  0
    5.5336   -7.8294    1.3510 H   0  0  0  0  0  0  0  0  0  0  0  0
    2.3766   -4.9575    2.9227 H   0  0  0  0  0  0  0  0  0  0  0  0
    3.9999   -4.7344    2.4960 H   0  0  0  0  0  0  0  0  0  0  0  0
  1  2  2  0
  2 27  1  0
  2  3  1  0
  3  8  1  0
  3  4  1  0
  3 29  1  6
  4  5  1  0
  4 30  1  0
  4 31  1  0
  5  6  1  0
  5 32  1  0
  5 33  1  0
  6  7  1  0
  6 34  1  0
  6 35  1  0
  7  8  1  0
  7  9  1  0
  7 54  1  1
  8 36  1  0
  8 37  1  0
  9 10  1  0
  9 38  1  0
  9 39  1  0
 10 21  1  0
 10 11  1  1
 10 12  1  0
 11 40  1  0
 12 25  1  0
 12 13  1  0
 12 41  1  1
 13 14  1  0
 13 42  1  0
 13 43  1  0
 14 20  2  0
 14 15  1  0
 15 16  2  0
 15 44  1  0
 16 17  1  0
 16 45  1  0
 17 18  1  0
 17 19  2  0
 18 46  1  0
 19 28  1  0
 19 20  1  0
 21 20  1  1
 21 22  1  0
 21 27  1  0
 22 26  1  0
 22 23  1  0
 22 47  1  6
 23 24  2  0
 23 48  1  0
 24 25  1  0
 24 49  1  0
 25 26  1  0
 25 50  1  6
 26 51  1  0
 26 52  1  0
 27 28  1  0
 27 53  1  1
M  CHG  1   7   1
M  END
>  <i_m_ct_stereo_status>  (32) 
1

>  <s_m_source_file>  (32) 
/var/tmp/pbs.5076255.sched01/tmpgr0kyu9k/0plolsrat.sdf

>  <i_m_source_file_index>  (32) 
14

>  <i_lp_mmshare_version>  (32) 
48012

>  <i_f3d_flags>  (32) 
0

>  <s_epik_input>  (32) 
W0NIMl0xTihbQ0gyXTIpW0NIMl1bQ0gyXVtDSDJdW0NAQEhdMUMoPU8pW0NASF0zT2MoYyhbT0hdKVtjSF1bY0hdNCljNWM0W0NIMl1bQ0BIXShbQ0BAXTIoW0NAXTM1NilbT0hdKVtDQEhdN1tDSF09W0NIXVtDQEBIXTZbQ0gyXTc=

>  <s_epik_cmdline>  (32) 
J2VwaWtfcHl0aG9uJywgJy1waHQnLCAnMi4wJywgJy1waCcsICc3LjAnLCAnLXRuJywgJzgnLCAnLW1hJywgJzIwMCcsICctaW1hZScsICc8aW5maWxlLm1hZT4nLCAnLW9tYWUnLCAnPG91dGZpbGUubWFlPic=

>  <r_lp_tautomer_probability>  (32) 
1

>  <r_epik_Ionization_Penalty>  (32) 
0.164339

>  <r_epik_Ionization_Penalty_Charging>  (32) 
0.161222

>  <r_epik_Ionization_Penalty_Neutral>  (32) 
0.00311702

>  <r_epik_State_Penalty>  (32) 
0.184482

>  <r_epik_Charging_Adjusted_Penalty>  (32) 
0.345705

>  <i_epik_Tot_Q>  (32) 
1

>  <i_epik_Tot_abs_Q>  (32) 
1

>  <s_lp_Force_Field>  (32) 
OPLS3e

>  <r_lp_Energy>  (32) 
103.278

>  <b_lp_Chiralities_Consistent>  (32) 
1

>  <s_lp_Variant>  (32) 
10:0-1

>  <s_i_glide_gridfile>  (32) 
pfpi4k_grid

>  <i_i_glide_lignum>  (32) 
14

>  <i_i_glide_rotatable_bonds>  (32) 
2

>  <r_i_docking_score>  (32) 
-3.27388

>  <r_i_glide_ligand_efficiency>  (32) 
-0.116924

>  <r_i_glide_ligand_efficiency_sa>  (32) 
-0.355051

>  <r_i_glide_ligand_efficiency_ln>  (32) 
-0.755708

>  <r_i_glide_gscore>  (32) 
-3.27388

>  <r_i_glide_lipo>  (32) 
-0.119355

>  <r_i_glide_hbond>  (32) 
-0.268154

>  <r_i_glide_metal>  (32) 
-0

>  <r_i_glide_rewards>  (32) 
-0.815067

>  <r_i_glide_evdw>  (32) 
-24.1822

>  <r_i_glide_ecoul>  (32) 
-5.42726

>  <r_i_glide_erotb>  (32) 
0

>  <r_i_glide_esite>  (32) 
-0.0481064

>  <r_i_glide_emodel>  (32) 
-38.3724

>  <r_i_glide_energy>  (32) 
-29.6094

>  <r_i_glide_einternal>  (32) 
0.193225

>  <r_i_glide_intrahb_reward>  (32) 
-0

>  <i_i_glide_confnum>  (32) 
1

>  <i_i_glide_posenum>  (32) 
4

>  <r_i_glide_eff_state_penalty>  (32) 
0

>  <ligand_id>  (32) 
10

>  <original_smiles>  (32) 
O=C1C2CCCN(C2)CC2(O)C3Cc4ccc(O)c5c4C2(C2C=CC3C2)C1O5

>  <smiles>  (32) 
[H]Oc1c([H])c([H])c2c3c1OC1([H])C(=O)C4([H])C([H])([H])C([H])([H])C([H])([H])[N+]([H])(C4([H])[H])C([H])([H])C4(O[H])C([H])(C2([H])[H])C2([H])C([H])=C([H])C([H])(C2([H])[H])C314

$$$$
10:1:0
     RDKit          3D

 53 59  0  0  1  0  0  0  0  0999 V2000
   -0.6768   -6.6647    3.1884 O   0  0  0  0  0  0  0  0  0  0  0  0
    0.3415   -7.3392    3.3045 C   0  0  0  0  0  0  0  0  0  0  0  0
    0.3204   -8.5438    4.2715 C   0  0  1  0  0  0  0  0  0  0  0  0
    0.1215   -9.9179    3.5843 C   0  0  0  0  0  0  0  0  0  0  0  0
    1.3773  -10.4765    2.8806 C   0  0  0  0  0  0  0  0  0  0  0  0
    2.6692  -10.2879    3.7020 C   0  0  0  0  0  0  0  0  0  0  0  0
    2.6955   -8.9601    4.3021 N   0  0  0  0  0  0  0  0  0  0  0  0
    1.5689   -8.6175    5.1431 C   0  0  0  0  0  0  0  0  0  0  0  0
    3.9466   -8.2861    4.5343 C   0  0  0  0  0  0  0  0  0  0  0  0
    4.1001   -7.0949    3.5361 C   0  0  2  0  0  0  0  0  0  0  0  0
    4.5770   -7.8464    2.4270 O   0  0  0  0  0  0  0  0  0  0  0  0
    5.1715   -6.0258    3.9461 C   0  0  1  0  0  0  0  0  0  0  0  0
    5.6640   -5.3104    2.6565 C   0  0  0  0  0  0  0  0  0  0  0  0
    4.5923   -4.9565    1.6154 C   0  0  0  0  0  0  0  0  0  0  0  0
    4.7670   -4.2098    0.4373 C   0  0  0  0  0  0  0  0  0  0  0  0
    3.6799   -4.0410   -0.4483 C   0  0  0  0  0  0  0  0  0  0  0  0
    2.4258   -4.6607   -0.2005 C   0  0  0  0  0  0  0  0  0  0  0  0
    1.4111   -4.5700   -1.1197 O   0  0  0  0  0  0  0  0  0  0  0  0
    2.2387   -5.4325    0.9682 C   0  0  0  0  0  0  0  0  0  0  0  0
    3.2997   -5.4902    1.8518 C   0  0  0  0  0  0  0  0  0  0  0  0
    2.8324   -6.2443    3.1001 C   0  0  2  0  0  0  0  0  0  0  0  0
    2.4227   -5.2061    4.2547 C   0  0  2  0  0  0  0  0  0  0  0  0
    2.9091   -3.7961    3.9674 C   0  0  0  0  0  0  0  0  0  0  0  0
    4.1692   -3.6720    4.3917 C   0  0  0  0  0  0  0  0  0  0  0  0
    4.6365   -4.9800    5.0117 C   0  0  1  0  0  0  0  0  0  0  0  0
    3.2566   -5.4046    5.5337 C   0  0  0  0  0  0  0  0  0  0  0  0
    1.5853   -6.9949    2.4520 C   0  0  2  0  0  0  0  0  0  0  0  0
    1.1563   -6.1679    1.3532 O   0  0  0  0  0  0  0  0  0  0  0  0
   -0.5369   -8.3791    4.9291 H   0  0  0  0  0  0  0  0  0  0  0  0
   -0.1862  -10.6308    4.3502 H   0  0  0  0  0  0  0  0  0  0  0  0
   -0.7045   -9.8634    2.8780 H   0  0  0  0  0  0  0  0  0  0  0  0
    1.2222  -11.5361    2.6660 H   0  0  0  0  0  0  0  0  0  0  0  0
    1.4939   -9.9852    1.9166 H   0  0  0  0  0  0  0  0  0  0  0  0
    2.7368  -11.0584    4.4726 H   0  0  0  0  0  0  0  0  0  0  0  0
    3.5312  -10.4324    3.0404 H   0  0  0  0  0  0  0  0  0  0  0  0
    1.6992   -7.6553    5.6307 H   0  0  0  0  0  0  0  0  0  0  0  0
    1.4378   -9.3383    5.9514 H   0  0  0  0  0  0  0  0  0  0  0  0
    4.0557   -8.0168    5.5819 H   0  0  0  0  0  0  0  0  0  0  0  0
    4.7768   -8.9863    4.4156 H   0  0  0  0  0  0  0  0  0  0  0  0
    3.9484   -8.5343    2.2673 H   0  0  0  0  0  0  0  0  0  0  0  0
    6.0222   -6.5386    4.3961 H   0  0  0  0  0  0  0  0  0  0  0  0
    6.2320   -4.4177    2.9028 H   0  0  0  0  0  0  0  0  0  0  0  0
    6.3658   -5.9744    2.1517 H   0  0  0  0  0  0  0  0  0  0  0  0
    5.7318   -3.7787    0.2052 H   0  0  0  0  0  0  0  0  0  0  0  0
    3.8211   -3.4734   -1.3532 H   0  0  0  0  0  0  0  0  0  0  0  0
    1.7325   -4.4052   -1.9970 H   0  0  0  0  0  0  0  0  0  0  0  0
    1.3591   -5.1728    4.4844 H   0  0  0  0  0  0  0  0  0  0  0  0
    2.3088   -3.0316    3.4945 H   0  0  0  0  0  0  0  0  0  0  0  0
    4.7785   -2.7863    4.3179 H   0  0  0  0  0  0  0  0  0  0  0  0
    5.3454   -4.7892    5.8223 H   0  0  0  0  0  0  0  0  0  0  0  0
    2.9279   -4.6975    6.2964 H   0  0  0  0  0  0  0  0  0  0  0  0
    3.2019   -6.3499    6.0497 H   0  0  0  0  0  0  0  0  0  0  0  0
    1.9490   -7.9080    1.9828 H   0  0  0  0  0  0  0  0  0  0  0  0
  1  2  2  0
  2 27  1  0
  2  3  1  0
  3  8  1  0
  3  4  1  0
  3 29  1  1
  4  5  1  0
  4 30  1  0
  4 31  1  0
  5  6  1  0
  5 32  1  0
  5 33  1  0
  6  7  1  0
  6 34  1  0
  6 35  1  0
  7  8  1  0
  7  9  1  0
  8 36  1  0
  8 37  1  0
  9 10  1  0
  9 38  1  0
  9 39  1  0
 10 21  1  0
 10 11  1  6
 10 12  1  0
 11 40  1  0
 12 25  1  0
 12 13  1  0
 12 41  1  1
 13 14  1  0
 13 42  1  0
 13 43  1  0
 14 20  2  0
 14 15  1  0
 15 16  2  0
 15 44  1  0
 16 17  1  0
 16 45  1  0
 17 18  1  0
 17 19  2  0
 18 46  1  0
 19 28  1  0
 19 20  1  0
 21 20  1  6
 21 22  1  0
 21 27  1  0
 22 26  1  0
 22 23  1  0
 22 47  1  1
 23 24  2  0
 23 48  1  0
 24 25  1  0
 24 49  1  0
 25 26  1  0
 25 50  1  1
 26 51  1  0
 26 52  1  0
 27 28  1  0
 27 53  1  6
M  END
>  <i_m_ct_stereo_status>  (33) 
1

>  <s_m_source_file>  (33) 
/var/tmp/pbs.5076255.sched01/tmpgr0kyu9k/0plolsrat.sdf

>  <i_m_source_file_index>  (33) 
15

>  <i_lp_mmshare_version>  (33) 
48012

>  <i_f3d_flags>  (33) 
0

>  <s_epik_input>  (33) 
W0NIMl0xTihbQ0gyXTIpW0NIMl1bQ0gyXVtDSDJdW0NAQEhdMUMoPU8pW0NASF0zT2MoYyhbT0hdKVtjSF1bY0hdNCljNWM0W0NIMl1bQ0BIXShbQ0BAXTIoW0NAXTM1NilbT0hdKVtDQEhdN1tDSF09W0NIXVtDQEBIXTZbQ0gyXTc=

>  <s_epik_cmdline>  (33) 
J2VwaWtfcHl0aG9uJywgJy1waHQnLCAnMi4wJywgJy1waCcsICc3LjAnLCAnLXRuJywgJzgnLCAnLW1hJywgJzIwMCcsICctaW1hZScsICc8aW5maWxlLm1hZT4nLCAnLW9tYWUnLCAnPG91dGZpbGUubWFlPic=

>  <r_lp_tautomer_probability>  (33) 
1

>  <r_epik_Ionization_Penalty>  (33) 
0.851261

>  <r_epik_Ionization_Penalty_Charging>  (33) 
0

>  <r_epik_Ionization_Penalty_Neutral>  (33) 
0.851261

>  <r_epik_State_Penalty>  (33) 
0.787085

>  <r_epik_Charging_Adjusted_Penalty>  (33) 
0.787085

>  <i_epik_Tot_Q>  (33) 
0

>  <i_epik_Tot_abs_Q>  (33) 
0

>  <s_lp_Force_Field>  (33) 
OPLS3e

>  <r_lp_Energy>  (33) 
87.2661

>  <b_lp_Chiralities_Consistent>  (33) 
1

>  <s_lp_Variant>  (33) 
10:0-2

>  <s_i_glide_gridfile>  (33) 
pfpi4k_grid

>  <i_i_glide_lignum>  (33) 
15

>  <i_i_glide_rotatable_bonds>  (33) 
2

>  <r_i_docking_score>  (33) 
-3.54925

>  <r_i_glide_ligand_efficiency>  (33) 
-0.126759

>  <r_i_glide_ligand_efficiency_sa>  (33) 
-0.384915

>  <r_i_glide_ligand_efficiency_ln>  (33) 
-0.819271

>  <r_i_glide_gscore>  (33) 
-3.54925

>  <r_i_glide_lipo>  (33) 
-0.231743

>  <r_i_glide_hbond>  (33) 
-0.311086

>  <r_i_glide_metal>  (33) 
-0

>  <r_i_glide_rewards>  (33) 
-0.821939

>  <r_i_glide_evdw>  (33) 
-18.7491

>  <r_i_glide_ecoul>  (33) 
-8.06477

>  <r_i_glide_erotb>  (33) 
0

>  <r_i_glide_esite>  (33) 
-0.0373141

>  <r_i_glide_emodel>  (33) 
-33.8542

>  <r_i_glide_energy>  (33) 
-26.8138

>  <r_i_glide_einternal>  (33) 
0.739348

>  <r_i_glide_intrahb_reward>  (33) 
-0

>  <i_i_glide_confnum>  (33) 
2

>  <i_i_glide_posenum>  (33) 
24

>  <r_i_glide_eff_state_penalty>  (33) 
0

>  <ligand_id>  (33) 
10

>  <original_smiles>  (33) 
O=C1C2CCCN(C2)CC2(O)C3Cc4ccc(O)c5c4C2(C2C=CC3C2)C1O5

>  <smiles>  (33) 
[H]Oc1c([H])c([H])c2c3c1OC1([H])C(=O)C4([H])C([H])([H])N(C([H])([H])C([H])([H])C4([H])[H])C([H])([H])C4(O[H])C([H])(C2([H])[H])C2([H])C([H])=C([H])C([H])(C2([H])[H])C314

$$$$
10:1:1
     RDKit          3D

 53 59  0  0  1  0  0  0  0  0999 V2000
    0.2142   -5.5244    4.3691 O   0  0  0  0  0  0  0  0  0  0  0  0
    0.5013   -6.6383    3.9320 C   0  0  0  0  0  0  0  0  0  0  0  0
   -0.2101   -7.8612    4.5483 C   0  0  1  0  0  0  0  0  0  0  0  0
   -1.3995   -8.3932    3.7162 C   0  0  0  0  0  0  0  0  0  0  0  0
   -0.9856   -9.2327    2.4886 C   0  0  0  0  0  0  0  0  0  0  0  0
    0.1982  -10.1881    2.7716 C   0  0  0  0  0  0  0  0  0  0  0  0
    1.2067   -9.5433    3.5816 N   0  0  0  0  0  0  0  0  0  0  0  0
    0.7539   -9.0044    4.8409 C   0  0  0  0  0  0  0  0  0  0  0  0
    2.5919   -9.9170    3.4504 C   0  0  0  0  0  0  0  0  0  0  0  0
    3.3916   -8.7706    2.7388 C   0  0  2  0  0  0  0  0  0  0  0  0
    3.0876   -9.1098    1.3818 O   0  0  0  0  0  0  0  0  0  0  0  0
    4.9396   -8.8205    2.9390 C   0  0  1  0  0  0  0  0  0  0  0  0
    5.6116   -8.0798    1.7559 C   0  0  0  0  0  0  0  0  0  0  0  0
    4.9504   -6.7749    1.3073 C   0  0  0  0  0  0  0  0  0  0  0  0
    5.4135   -5.8495    0.3479 C   0  0  0  0  0  0  0  0  0  0  0  0
    4.6257   -4.7373   -0.0210 C   0  0  0  0  0  0  0  0  0  0  0  0
    3.3306   -4.5374    0.5415 C   0  0  0  0  0  0  0  0  0  0  0  0
    2.5853   -3.4800    0.1466 O   0  0  0  0  0  0  0  0  0  0  0  0
    2.8203   -5.4528    1.5081 C   0  0  0  0  0  0  0  0  0  0  0  0
    3.6925   -6.4839    1.8841 C   0  0  0  0  0  0  0  0  0  0  0  0
    3.0116   -7.2515    3.0156 C   0  0  2  0  0  0  0  0  0  0  0  0
    3.5834   -6.7632    4.4446 C   0  0  2  0  0  0  0  0  0  0  0  0
    4.8610   -5.9558    4.3032 C   0  0  0  0  0  0  0  0  0  0  0  0
    5.9008   -6.7832    4.2331 C   0  0  0  0  0  0  0  0  0  0  0  0
    5.4301   -8.2224    4.3292 C   0  0  1  0  0  0  0  0  0  0  0  0
    4.2183   -7.9363    5.2315 C   0  0  0  0  0  0  0  0  0  0  0  0
    1.5134   -6.7665    2.7589 C   0  0  2  0  0  0  0  0  0  0  0  0
    1.6205   -5.4851    2.1068 O   0  0  0  0  0  0  0  0  0  0  0  0
   -0.6019   -7.5074    5.5059 H   0  0  0  0  0  0  0  0  0  0  0  0
   -2.0108   -9.0236    4.3639 H   0  0  0  0  0  0  0  0  0  0  0  0
   -2.0487   -7.5728    3.3953 H   0  0  0  0  0  0  0  0  0  0  0  0
   -1.8348   -9.7892    2.1020 H   0  0  0  0  0  0  0  0  0  0  0  0
   -0.6872   -8.5547    1.6849 H   0  0  0  0  0  0  0  0  0  0  0  0
   -0.1736  -11.0817    3.2827 H   0  0  0  0  0  0  0  0  0  0  0  0
    0.6152  -10.5223    1.8210 H   0  0  0  0  0  0  0  0  0  0  0  0
    1.5723   -8.6136    5.4368 H   0  0  0  0  0  0  0  0  0  0  0  0
    0.2706   -9.7685    5.4561 H   0  0  0  0  0  0  0  0  0  0  0  0
    3.0014  -10.2297    4.4054 H   0  0  0  0  0  0  0  0  0  0  0  0
    2.6794  -10.8421    2.8725 H   0  0  0  0  0  0  0  0  0  0  0  0
    3.3169  -10.0053    1.2360 H   0  0  0  0  0  0  0  0  0  0  0  0
    5.2633   -9.8643    2.9100 H   0  0  0  0  0  0  0  0  0  0  0  0
    6.6731   -7.9029    1.9383 H   0  0  0  0  0  0  0  0  0  0  0  0
    5.5821   -8.7334    0.8826 H   0  0  0  0  0  0  0  0  0  0  0  0
    6.3649   -6.0027   -0.1176 H   0  0  0  0  0  0  0  0  0  0  0  0
    4.9950   -4.0504   -0.7593 H   0  0  0  0  0  0  0  0  0  0  0  0
    2.9739   -2.9419   -0.5141 H   0  0  0  0  0  0  0  0  0  0  0  0
    2.8823   -6.2112    5.0571 H   0  0  0  0  0  0  0  0  0  0  0  0
    4.8873   -4.8735    4.2675 H   0  0  0  0  0  0  0  0  0  0  0  0
    6.9379   -6.4958    4.1192 H   0  0  0  0  0  0  0  0  0  0  0  0
    6.1723   -8.8426    4.8264 H   0  0  0  0  0  0  0  0  0  0  0  0
    4.5731   -7.5588    6.1991 H   0  0  0  0  0  0  0  0  0  0  0  0
    3.6054   -8.7581    5.5108 H   0  0  0  0  0  0  0  0  0  0  0  0
    1.0808   -7.4252    2.0051 H   0  0  0  0  0  0  0  0  0  0  0  0
  1  2  2  0
  2 27  1  0
  2  3  1  0
  3  8  1  0
  3  4  1  0
  3 29  1  1
  4  5  1  0
  4 30  1  0
  4 31  1  0
  5  6  1  0
  5 32  1  0
  5 33  1  0
  6  7  1  0
  6 34  1  0
  6 35  1  0
  7  8  1  0
  7  9  1  0
  8 36  1  0
  8 37  1  0
  9 10  1  0
  9 38  1  0
  9 39  1  0
 10 21  1  0
 10 11  1  6
 10 12  1  0
 11 40  1  0
 12 25  1  0
 12 13  1  0
 12 41  1  1
 13 14  1  0
 13 42  1  0
 13 43  1  0
 14 20  2  0
 14 15  1  0
 15 16  2  0
 15 44  1  0
 16 17  1  0
 16 45  1  0
 17 18  1  0
 17 19  2  0
 18 46  1  0
 19 28  1  0
 19 20  1  0
 21 20  1  6
 21 22  1  0
 21 27  1  0
 22 26  1  0
 22 23  1  0
 22 47  1  1
 23 24  2  0
 23 48  1  0
 24 25  1  0
 24 49  1  0
 25 26  1  0
 25 50  1  1
 26 51  1  0
 26 52  1  0
 27 28  1  0
 27 53  1  6
M  END
>  <i_m_ct_stereo_status>  (34) 
1

>  <s_m_source_file>  (34) 
/var/tmp/pbs.5076255.sched01/tmpgr0kyu9k/0plolsrat.sdf

>  <i_m_source_file_index>  (34) 
15

>  <i_lp_mmshare_version>  (34) 
48012

>  <i_f3d_flags>  (34) 
0

>  <s_epik_input>  (34) 
W0NIMl0xTihbQ0gyXTIpW0NIMl1bQ0gyXVtDSDJdW0NAQEhdMUMoPU8pW0NASF0zT2MoYyhbT0hdKVtjSF1bY0hdNCljNWM0W0NIMl1bQ0BIXShbQ0BAXTIoW0NAXTM1NilbT0hdKVtDQEhdN1tDSF09W0NIXVtDQEBIXTZbQ0gyXTc=

>  <s_epik_cmdline>  (34) 
J2VwaWtfcHl0aG9uJywgJy1waHQnLCAnMi4wJywgJy1waCcsICc3LjAnLCAnLXRuJywgJzgnLCAnLW1hJywgJzIwMCcsICctaW1hZScsICc8aW5maWxlLm1hZT4nLCAnLW9tYWUnLCAnPG91dGZpbGUubWFlPic=

>  <r_lp_tautomer_probability>  (34) 
1

>  <r_epik_Ionization_Penalty>  (34) 
0.851261

>  <r_epik_Ionization_Penalty_Charging>  (34) 
0

>  <r_epik_Ionization_Penalty_Neutral>  (34) 
0.851261

>  <r_epik_State_Penalty>  (34) 
0.787085

>  <r_epik_Charging_Adjusted_Penalty>  (34) 
0.787085

>  <i_epik_Tot_Q>  (34) 
0

>  <i_epik_Tot_abs_Q>  (34) 
0

>  <s_lp_Force_Field>  (34) 
OPLS3e

>  <r_lp_Energy>  (34) 
87.2661

>  <b_lp_Chiralities_Consistent>  (34) 
1

>  <s_lp_Variant>  (34) 
10:0-2

>  <s_i_glide_gridfile>  (34) 
pfpi4k_grid

>  <i_i_glide_lignum>  (34) 
15

>  <i_i_glide_rotatable_bonds>  (34) 
2

>  <r_i_docking_score>  (34) 
-2.96233

>  <r_i_glide_ligand_efficiency>  (34) 
-0.105797

>  <r_i_glide_ligand_efficiency_sa>  (34) 
-0.321263

>  <r_i_glide_ligand_efficiency_ln>  (34) 
-0.683793

>  <r_i_glide_gscore>  (34) 
-2.96233

>  <r_i_glide_lipo>  (34) 
-0.556615

>  <r_i_glide_hbond>  (34) 
-0.0282264

>  <r_i_glide_metal>  (34) 
-0

>  <r_i_glide_rewards>  (34) 
-0.821939

>  <r_i_glide_evdw>  (34) 
-27.2623

>  <r_i_glide_ecoul>  (34) 
-1.07955

>  <r_i_glide_erotb>  (34) 
0

>  <r_i_glide_esite>  (34) 
-0.0305016

>  <r_i_glide_emodel>  (34) 
-34.6894

>  <r_i_glide_energy>  (34) 
-28.3418

>  <r_i_glide_einternal>  (34) 
0.015314

>  <r_i_glide_intrahb_reward>  (34) 
-0

>  <i_i_glide_confnum>  (34) 
2

>  <i_i_glide_posenum>  (34) 
40

>  <r_i_glide_eff_state_penalty>  (34) 
0

>  <ligand_id>  (34) 
10

>  <original_smiles>  (34) 
O=C1C2CCCN(C2)CC2(O)C3Cc4ccc(O)c5c4C2(C2C=CC3C2)C1O5

>  <smiles>  (34) 
[H]Oc1c([H])c([H])c2c3c1OC1([H])C(=O)C4([H])C([H])([H])N(C([H])([H])C([H])([H])C4([H])[H])C([H])([H])C4(O[H])C([H])(C2([H])[H])C2([H])C([H])=C([H])C([H])(C2([H])[H])C314

$$$$
10:1:2
     RDKit          3D

 53 59  0  0  1  0  0  0  0  0999 V2000
    0.2845   -5.4743    4.4167 O   0  0  0  0  0  0  0  0  0  0  0  0
    0.5574   -6.5942    3.9823 C   0  0  0  0  0  0  0  0  0  0  0  0
   -0.1860   -7.8061    4.5865 C   0  0  1  0  0  0  0  0  0  0  0  0
   -1.3751   -8.3134    3.7312 C   0  0  0  0  0  0  0  0  0  0  0  0
   -0.9515   -9.1548    2.5015 C   0  0  0  0  0  0  0  0  0  0  0  0
    0.1990  -10.1440    2.8032 C   0  0  0  0  0  0  0  0  0  0  0  0
    1.2162   -9.5138    3.6303 N   0  0  0  0  0  0  0  0  0  0  0  0
    0.7514   -8.9683    4.8900 C   0  0  0  0  0  0  0  0  0  0  0  0
    2.5985   -9.9145    3.5159 C   0  0  0  0  0  0  0  0  0  0  0  0
    3.4181   -8.7774    2.8228 C   0  0  2  0  0  0  0  0  0  0  0  0
    3.1205   -9.0972    1.4595 O   0  0  0  0  0  0  0  0  0  0  0  0
    4.9724   -8.8556    3.0419 C   0  0  1  0  0  0  0  0  0  0  0  0
    5.6740   -8.1217    1.8649 C   0  0  0  0  0  0  0  0  0  0  0  0
    5.0303   -6.7987    1.4237 C   0  0  0  0  0  0  0  0  0  0  0  0
    5.5265   -5.8843    0.4798 C   0  0  0  0  0  0  0  0  0  0  0  0
    4.7570   -4.7596    0.0967 C   0  0  0  0  0  0  0  0  0  0  0  0
    3.4726   -4.5440    0.6471 C   0  0  0  0  0  0  0  0  0  0  0  0
    2.7543   -3.4523    0.2577 O   0  0  0  0  0  0  0  0  0  0  0  0
    2.9468   -5.4464    1.5950 C   0  0  0  0  0  0  0  0  0  0  0  0
    3.7672   -6.4909    1.9845 C   0  0  0  0  0  0  0  0  0  0  0  0
    3.0637   -7.2503    3.1056 C   0  0  2  0  0  0  0  0  0  0  0  0
    3.6322   -6.7808    4.5354 C   0  0  2  0  0  0  0  0  0  0  0  0
    4.9211   -5.9888    4.4216 C   0  0  0  0  0  0  0  0  0  0  0  0
    5.9515   -6.8362    4.3571 C   0  0  0  0  0  0  0  0  0  0  0  0
    5.4480   -8.2682    4.4408 C   0  0  1  0  0  0  0  0  0  0  0  0
    4.2388   -7.9568    5.3300 C   0  0  0  0  0  0  0  0  0  0  0  0
    1.5826   -6.7381    2.8212 C   0  0  2  0  0  0  0  0  0  0  0  0
    1.7145   -5.4538    2.1789 O   0  0  0  0  0  0  0  0  0  0  0  0
   -0.5838   -7.4494    5.5357 H   0  0  0  0  0  0  0  0  0  0  0  0
   -1.9991   -8.9382    4.3714 H   0  0  0  0  0  0  0  0  0  0  0  0
   -2.0064   -7.4833    3.4135 H   0  0  0  0  0  0  0  0  0  0  0  0
   -1.8112   -9.6983    2.1075 H   0  0  0  0  0  0  0  0  0  0  0  0
   -0.6379   -8.4869    1.6997 H   0  0  0  0  0  0  0  0  0  0  0  0
   -0.1840  -11.0347    3.2989 H   0  0  0  0  0  0  0  0  0  0  0  0
    0.6365  -10.4679    1.8573 H   0  0  0  0  0  0  0  0  0  0  0  0
    1.5731   -8.5948    5.4923 H   0  0  0  0  0  0  0  0  0  0  0  0
    0.2530   -9.7286    5.4935 H   0  0  0  0  0  0  0  0  0  0  0  0
    2.9859  -10.2338    4.4782 H   0  0  0  0  0  0  0  0  0  0  0  0
    2.6722  -10.8361    2.9398 H   0  0  0  0  0  0  0  0  0  0  0  0
    3.3596  -10.0014    1.2996 H   0  0  0  0  0  0  0  0  0  0  0  0
    5.2744   -9.9027    3.0145 H   0  0  0  0  0  0  0  0  0  0  0  0
    6.7313   -7.9643    2.0662 H   0  0  0  0  0  0  0  0  0  0  0  0
    5.6423   -8.7705    0.9919 H   0  0  0  0  0  0  0  0  0  0  0  0
    6.4879   -6.0555    0.0280 H   0  0  0  0  0  0  0  0  0  0  0  0
    5.1442   -4.0704   -0.6350 H   0  0  0  0  0  0  0  0  0  0  0  0
    2.0655   -3.2269    0.8619 H   0  0  0  0  0  0  0  0  0  0  0  0
    2.9261   -6.2194    5.1468 H   0  0  0  0  0  0  0  0  0  0  0  0
    4.9681   -4.9098    4.3890 H   0  0  0  0  0  0  0  0  0  0  0  0
    6.9926   -6.5680    4.2588 H   0  0  0  0  0  0  0  0  0  0  0  0
    6.1738   -8.9044    4.9451 H   0  0  0  0  0  0  0  0  0  0  0  0
    4.5822   -7.5979    6.3034 H   0  0  0  0  0  0  0  0  0  0  0  0
    3.6010   -8.7794    5.5957 H   0  0  0  0  0  0  0  0  0  0  0  0
    1.1471   -7.3873    2.0626 H   0  0  0  0  0  0  0  0  0  0  0  0
  1  2  2  0
  2 27  1  0
  2  3  1  0
  3  8  1  0
  3  4  1  0
  3 29  1  1
  4  5  1  0
  4 30  1  0
  4 31  1  0
  5  6  1  0
  5 32  1  0
  5 33  1  0
  6  7  1  0
  6 34  1  0
  6 35  1  0
  7  8  1  0
  7  9  1  0
  8 36  1  0
  8 37  1  0
  9 10  1  0
  9 38  1  0
  9 39  1  0
 10 21  1  0
 10 11  1  6
 10 12  1  0
 11 40  1  0
 12 25  1  0
 12 13  1  0
 12 41  1  1
 13 14  1  0
 13 42  1  0
 13 43  1  0
 14 20  2  0
 14 15  1  0
 15 16  2  0
 15 44  1  0
 16 17  1  0
 16 45  1  0
 17 18  1  0
 17 19  2  0
 18 46  1  0
 19 28  1  0
 19 20  1  0
 21 20  1  6
 21 22  1  0
 21 27  1  0
 22 26  1  0
 22 23  1  0
 22 47  1  1
 23 24  2  0
 23 48  1  0
 24 25  1  0
 24 49  1  0
 25 26  1  0
 25 50  1  1
 26 51  1  0
 26 52  1  0
 27 28  1  0
 27 53  1  6
M  END
>  <i_m_ct_stereo_status>  (35) 
1

>  <s_m_source_file>  (35) 
/var/tmp/pbs.5076255.sched01/tmpgr0kyu9k/0plolsrat.sdf

>  <i_m_source_file_index>  (35) 
15

>  <i_lp_mmshare_version>  (35) 
48012

>  <i_f3d_flags>  (35) 
0

>  <s_epik_input>  (35) 
W0NIMl0xTihbQ0gyXTIpW0NIMl1bQ0gyXVtDSDJdW0NAQEhdMUMoPU8pW0NASF0zT2MoYyhbT0hdKVtjSF1bY0hdNCljNWM0W0NIMl1bQ0BIXShbQ0BAXTIoW0NAXTM1NilbT0hdKVtDQEhdN1tDSF09W0NIXVtDQEBIXTZbQ0gyXTc=

>  <s_epik_cmdline>  (35) 
J2VwaWtfcHl0aG9uJywgJy1waHQnLCAnMi4wJywgJy1waCcsICc3LjAnLCAnLXRuJywgJzgnLCAnLW1hJywgJzIwMCcsICctaW1hZScsICc8aW5maWxlLm1hZT4nLCAnLW9tYWUnLCAnPG91dGZpbGUubWFlPic=

>  <r_lp_tautomer_probability>  (35) 
1

>  <r_epik_Ionization_Penalty>  (35) 
0.851261

>  <r_epik_Ionization_Penalty_Charging>  (35) 
0

>  <r_epik_Ionization_Penalty_Neutral>  (35) 
0.851261

>  <r_epik_State_Penalty>  (35) 
0.787085

>  <r_epik_Charging_Adjusted_Penalty>  (35) 
0.787085

>  <i_epik_Tot_Q>  (35) 
0

>  <i_epik_Tot_abs_Q>  (35) 
0

>  <s_lp_Force_Field>  (35) 
OPLS3e

>  <r_lp_Energy>  (35) 
87.2661

>  <b_lp_Chiralities_Consistent>  (35) 
1

>  <s_lp_Variant>  (35) 
10:0-2

>  <s_i_glide_gridfile>  (35) 
pfpi4k_grid

>  <i_i_glide_lignum>  (35) 
15

>  <i_i_glide_rotatable_bonds>  (35) 
2

>  <r_i_docking_score>  (35) 
-2.90012

>  <r_i_glide_ligand_efficiency>  (35) 
-0.103576

>  <r_i_glide_ligand_efficiency_sa>  (35) 
-0.314517

>  <r_i_glide_ligand_efficiency_ln>  (35) 
-0.669433

>  <r_i_glide_gscore>  (35) 
-2.90012

>  <r_i_glide_lipo>  (35) 
-0.499861

>  <r_i_glide_hbond>  (35) 
-0.00170423

>  <r_i_glide_metal>  (35) 
-0

>  <r_i_glide_rewards>  (35) 
-0.821939

>  <r_i_glide_evdw>  (35) 
-27.5583

>  <r_i_glide_ecoul>  (35) 
-1.13787

>  <r_i_glide_erotb>  (35) 
0

>  <r_i_glide_esite>  (35) 
-0.0280176

>  <r_i_glide_emodel>  (35) 
-34.6493

>  <r_i_glide_energy>  (35) 
-28.6962

>  <r_i_glide_einternal>  (35) 
0.483518

>  <r_i_glide_intrahb_reward>  (35) 
-0

>  <i_i_glide_confnum>  (35) 
1

>  <i_i_glide_posenum>  (35) 
17

>  <r_i_glide_eff_state_penalty>  (35) 
0

>  <ligand_id>  (35) 
10

>  <original_smiles>  (35) 
O=C1C2CCCN(C2)CC2(O)C3Cc4ccc(O)c5c4C2(C2C=CC3C2)C1O5

>  <smiles>  (35) 
[H]Oc1c([H])c([H])c2c3c1OC1([H])C(=O)C4([H])C([H])([H])N(C([H])([H])C([H])([H])C4([H])[H])C([H])([H])C4(O[H])C([H])(C2([H])[H])C2([H])C([H])=C([H])C([H])(C2([H])[H])C314

$$$$
11:0:0
     RDKit          3D

 58 62  0  0  1  0  0  0  0  0999 V2000
    2.3497   -5.0119    5.0489 C   0  0  0  0  0  0  0  0  0  0  0  0
    2.0111   -5.6492    3.6869 C   0  0  0  0  0  0  0  0  0  0  0  0
    1.7785   -7.1625    3.8672 C   0  0  0  0  0  0  0  0  0  0  0  0
    2.9698   -5.2721    2.4963 C   0  0  2  0  0  0  0  0  0  0  0  0
    2.2509   -5.6121    1.1562 C   0  0  0  0  0  0  0  0  0  0  0  0
    2.8053   -4.9133   -0.1111 C   0  0  1  0  0  0  0  0  0  0  0  0
    1.6820   -4.5439   -1.1188 C   0  0  0  0  0  0  0  0  0  0  0  0
    3.7986   -3.7714    0.2337 C   0  0  1  0  0  0  0  0  0  0  0  0
    3.2304   -3.0469    1.4698 C   0  0  2  0  0  0  0  0  0  0  0  0
    3.9684   -1.8839    1.7249 O   0  0  0  0  0  0  0  0  0  0  0  0
    5.3593   -2.0672    1.8014 C   0  0  1  0  0  0  0  0  0  0  0  0
    5.8517   -3.3755    1.5592 O   0  0  0  0  0  0  0  0  0  0  0  0
    5.2009   -4.2928    0.6703 C   0  0  1  0  0  0  0  0  0  0  0  0
    5.2445   -5.6988    1.3106 C   0  0  1  0  0  0  0  0  0  0  0  0
    6.5912   -6.0812    1.5124 O   0  0  0  0  0  0  0  0  0  0  0  0
    4.4051   -5.8921    2.5837 C   0  0  1  0  0  0  0  0  0  0  0  0
    5.1315   -5.3799    3.6892 O   0  0  0  0  0  0  0  0  0  0  0  0
    6.0209   -0.9707    0.9104 C   0  0  1  0  0  0  0  0  0  0  0  0
    7.4166   -1.0847    0.8048 O   0  0  0  0  0  0  0  0  0  0  0  0
    5.4243   -0.8177   -0.4969 C   0  0  0  0  0  0  0  0  0  0  0  0
    5.2709   -2.1445   -1.1589 C   0  0  1  0  0  0  0  0  0  0  0  0
    3.8927   -2.7131   -0.8890 C   0  0  1  0  0  0  0  0  0  0  0  0
    4.4355   -2.6327   -2.3089 C   0  0  0  0  0  0  0  0  0  0  0  0
    3.8837   -1.6183   -3.2863 C   0  0  0  0  0  0  0  0  0  0  0  0
    4.8203   -3.8860   -3.0467 C   0  0  0  0  0  0  0  0  0  0  0  0
    3.1572   -3.8583    2.6064 O   0  0  0  0  0  0  0  0  0  0  0  0
    3.2939   -5.3725    5.4572 H   0  0  0  0  0  0  0  0  0  0  0  0
    1.5791   -5.2415    5.7896 H   0  0  0  0  0  0  0  0  0  0  0  0
    2.4008   -3.9263    4.9720 H   0  0  0  0  0  0  0  0  0  0  0  0
    1.0367   -5.2273    3.4402 H   0  0  0  0  0  0  0  0  0  0  0  0
    2.6722   -7.6640    4.2347 H   0  0  0  0  0  0  0  0  0  0  0  0
    1.4665   -7.6611    2.9491 H   0  0  0  0  0  0  0  0  0  0  0  0
    0.9925   -7.3440    4.5994 H   0  0  0  0  0  0  0  0  0  0  0  0
    2.2630   -6.6815    0.9982 H   0  0  0  0  0  0  0  0  0  0  0  0
    1.1913   -5.3794    1.2472 H   0  0  0  0  0  0  0  0  0  0  0  0
    3.4109   -5.6426   -0.6413 H   0  0  0  0  0  0  0  0  0  0  0  0
    1.0879   -3.7044   -0.7678 H   0  0  0  0  0  0  0  0  0  0  0  0
    1.0092   -5.3899   -1.2846 H   0  0  0  0  0  0  0  0  0  0  0  0
    2.0521   -4.2346   -2.0873 H   0  0  0  0  0  0  0  0  0  0  0  0
    2.2156   -2.7205    1.2509 H   0  0  0  0  0  0  0  0  0  0  0  0
    5.6381   -1.8850    2.8313 H   0  0  0  0  0  0  0  0  0  0  0  0
    5.8298   -4.4510   -0.2057 H   0  0  0  0  0  0  0  0  0  0  0  0
    4.8964   -6.4348    0.5928 H   0  0  0  0  0  0  0  0  0  0  0  0
    6.9362   -5.5173    2.1966 H   0  0  0  0  0  0  0  0  0  0  0  0
    4.3050   -6.9627    2.7487 H   0  0  0  0  0  0  0  0  0  0  0  0
    5.1715   -4.4340    3.5768 H   0  0  0  0  0  0  0  0  0  0  0  0
    5.8256   -0.0265    1.4127 H   0  0  0  0  0  0  0  0  0  0  0  0
    7.8124   -0.3319    1.2745 H   0  0  0  0  0  0  0  0  0  0  0  0
    4.4697   -0.2849   -0.4664 H   0  0  0  0  0  0  0  0  0  0  0  0
    6.0901   -0.2554   -1.1216 H   0  0  0  0  0  0  0  0  0  0  0  0
    6.1981   -2.6932   -1.1326 H   0  0  0  0  0  0  0  0  0  0  0  0
    3.0721   -2.0167   -0.7967 H   0  0  0  0  0  0  0  0  0  0  0  0
    2.9778   -2.0098   -3.7568 H   0  0  0  0  0  0  0  0  0  0  0  0
    4.6173   -1.4017   -4.0655 H   0  0  0  0  0  0  0  0  0  0  0  0
    3.6350   -0.6941   -2.7726 H   0  0  0  0  0  0  0  0  0  0  0  0
    3.9495   -4.2415   -3.5986 H   0  0  0  0  0  0  0  0  0  0  0  0
    5.1346   -4.6512   -2.3420 H   0  0  0  0  0  0  0  0  0  0  0  0
    5.6305   -3.6970   -3.7589 H   0  0  0  0  0  0  0  0  0  0  0  0
  1  2  1  0
  1 27  1  0
  1 28  1  0
  1 29  1  0
  2  3  1  0
  4  2  1  1
  2 30  1  0
  3 31  1  0
  3 32  1  0
  3 33  1  0
  4 16  1  0
  4 26  1  0
  4  5  1  0
  5  6  1  0
  5 34  1  0
  5 35  1  0
  6  7  1  0
  8  6  1  6
  6 36  1  6
  7 37  1  0
  7 38  1  0
  7 39  1  0
  8 13  1  0
  8 22  1  0
  8  9  1  0
  9 10  1  0
  9 26  1  0
  9 40  1  6
 10 11  1  0
 11 12  1  0
 11 18  1  0
 11 41  1  1
 12 13  1  0
 13 14  1  0
 13 42  1  6
 14 15  1  0
 14 16  1  0
 14 43  1  6
 15 44  1  0
 16 17  1  0
 16 45  1  1
 17 46  1  0
 18 19  1  0
 18 20  1  0
 18 47  1  1
 19 48  1  0
 20 21  1  0
 20 49  1  0
 20 50  1  0
 21 23  1  0
 21 22  1  0
 21 51  1  1
 22 23  1  0
 22 52  1  6
 23 24  1  0
 23 25  1  0
 24 53  1  0
 24 54  1  0
 24 55  1  0
 25 56  1  0
 25 57  1  0
 25 58  1  0
M  END
>  <i_m_ct_stereo_status>  (36) 
1

>  <s_m_source_file>  (36) 
/var/tmp/pbs.5076255.sched01/tmpgr0kyu9k/0plolsrat.sdf

>  <i_m_source_file_index>  (36) 
16

>  <i_lp_mmshare_version>  (36) 
48012

>  <i_f3d_flags>  (36) 
0

>  <s_epik_input>  (36) 
W0NIM11bQ0BASF0xW0NIMl1bQ0BAXShPMikoW0NIXShbQ0gzXSlbQ0gzXSlbQ0BIXShbT0hdKVtDQEhdKFtPSF0pW0NAQEhdM09bQ0BIXShPW0NASF0yW0NAXTEzNClbQ0BASF0oW09IXSlbQ0gyXVtDQEhdNVtDQEhdNEM1KFtDSDNdKVtDSDNd

>  <s_epik_cmdline>  (36) 
J2VwaWtfcHl0aG9uJywgJy1waHQnLCAnMi4wJywgJy1waCcsICc3LjAnLCAnLXRuJywgJzgnLCAnLW1hJywgJzIwMCcsICctaW1hZScsICc8aW5maWxlLm1hZT4nLCAnLW9tYWUnLCAnPG91dGZpbGUubWFlPic=

>  <r_lp_tautomer_probability>  (36) 
1

>  <r_epik_Ionization_Penalty>  (36) 
1.41851e-07

>  <r_epik_Ionization_Penalty_Charging>  (36) 
0

>  <r_epik_Ionization_Penalty_Neutral>  (36) 
1.41851e-07

>  <r_epik_State_Penalty>  (36) 
-0

>  <r_epik_Charging_Adjusted_Penalty>  (36) 
0

>  <i_epik_Tot_Q>  (36) 
0

>  <i_epik_Tot_abs_Q>  (36) 
0

>  <s_epik_Chemistry_Notes>  (36) 
This compound contains an acetal/aminal-like group ( X-CH(R)-Y where X, Y are N, S, or O) that may be acid/base labile, releasing an aldehyde.

>  <s_lp_Force_Field>  (36) 
OPLS3e

>  <r_lp_Energy>  (36) 
81.2977

>  <b_lp_Chiralities_Consistent>  (36) 
1

>  <s_lp_Variant>  (36) 
11:0-1

>  <s_i_glide_gridfile>  (36) 
pfpi4k_grid

>  <i_i_glide_lignum>  (36) 
16

>  <i_i_glide_rotatable_bonds>  (36) 
4

>  <r_i_docking_score>  (36) 
-3.40685

>  <r_i_glide_ligand_efficiency>  (36) 
-0.131033

>  <r_i_glide_ligand_efficiency_sa>  (36) 
-0.388184

>  <r_i_glide_ligand_efficiency_ln>  (36) 
-0.800087

>  <r_i_glide_gscore>  (36) 
-3.40685

>  <r_i_glide_lipo>  (36) 
-0.40369

>  <r_i_glide_hbond>  (36) 
0

>  <r_i_glide_metal>  (36) 
-0

>  <r_i_glide_rewards>  (36) 
-1.49758

>  <r_i_glide_evdw>  (36) 
-15.418

>  <r_i_glide_ecoul>  (36) 
-4.87595

>  <r_i_glide_erotb>  (36) 
0

>  <r_i_glide_esite>  (36) 
-0.00329056

>  <r_i_glide_emodel>  (36) 
-26.1782

>  <r_i_glide_energy>  (36) 
-20.2939

>  <r_i_glide_einternal>  (36) 
2.83622

>  <r_i_glide_intrahb_reward>  (36) 
-0.5

>  <i_i_glide_confnum>  (36) 
2

>  <i_i_glide_posenum>  (36) 
35

>  <r_i_glide_eff_state_penalty>  (36) 
0

>  <ligand_id>  (36) 
11

>  <original_smiles>  (36) 
CC(C)C12CC(C)C34C(OC(OC3C(O)C1O)C(O)CC1C4C1(C)C)O2

>  <smiles>  (36) 
[H]OC1([H])C2([H])OC3([H])OC4(C([H])(C([H])([H])[H])C([H])([H])[H])C([H])([H])C([H])(C([H])([H])[H])C3(C([H])(O2)C([H])(O[H])C4([H])O[H])C2([H])C([H])(C1([H])[H])C2(C([H])([H])[H])C([H])([H])[H]

$$$$
11:0:1
     RDKit          3D

 58 62  0  0  1  0  0  0  0  0999 V2000
    2.5722   -4.7119    5.0438 C   0  0  0  0  0  0  0  0  0  0  0  0
    2.1752   -5.4132    3.7286 C   0  0  0  0  0  0  0  0  0  0  0  0
    1.9439   -6.9138    3.9922 C   0  0  0  0  0  0  0  0  0  0  0  0
    3.0909   -5.0997    2.4865 C   0  0  2  0  0  0  0  0  0  0  0  0
    2.3113   -5.4788    1.1900 C   0  0  0  0  0  0  0  0  0  0  0  0
    2.8324   -4.8530   -0.1289 C   0  0  1  0  0  0  0  0  0  0  0  0
    1.6777   -4.5013   -1.1024 C   0  0  0  0  0  0  0  0  0  0  0  0
    3.8535   -3.7241    0.1249 C   0  0  1  0  0  0  0  0  0  0  0  0
    3.3518   -2.9312    1.3561 C   0  0  2  0  0  0  0  0  0  0  0  0
    4.1199   -1.7802    1.5288 O   0  0  0  0  0  0  0  0  0  0  0  0
    5.5026   -1.9807    1.5629 C   0  0  1  0  0  0  0  0  0  0  0  0
    5.9769   -3.3012    1.3481 O   0  0  0  0  0  0  0  0  0  0  0  0
    5.2704   -4.2445    0.5287 C   0  0  1  0  0  0  0  0  0  0  0  0
    5.3074   -5.6291    1.2262 C   0  0  1  0  0  0  0  0  0  0  0  0
    6.6435   -6.0702    1.3442 O   0  0  0  0  0  0  0  0  0  0  0  0
    4.5069   -5.7580    2.5373 C   0  0  1  0  0  0  0  0  0  0  0  0
    5.2545   -5.2216    3.6088 O   0  0  0  0  0  0  0  0  0  0  0  0
    6.1450   -0.9388    0.6010 C   0  0  1  0  0  0  0  0  0  0  0  0
    7.5468   -1.0768    0.5003 O   0  0  0  0  0  0  0  0  0  0  0  0
    5.4903   -0.8387   -0.7908 C   0  0  0  0  0  0  0  0  0  0  0  0
    5.2949   -2.1874   -1.3975 C   0  0  1  0  0  0  0  0  0  0  0  0
    3.9184   -2.7126   -1.0452 C   0  0  1  0  0  0  0  0  0  0  0  0
    4.3999   -2.7000   -2.4836 C   0  0  0  0  0  0  0  0  0  0  0  0
    3.8323   -1.7100   -3.4812 C   0  0  0  0  0  0  0  0  0  0  0  0
    4.7308   -3.9807   -3.1948 C   0  0  0  0  0  0  0  0  0  0  0  0
    3.3129   -3.6929    2.5243 O   0  0  0  0  0  0  0  0  0  0  0  0
    3.5331   -5.0537    5.4278 H   0  0  0  0  0  0  0  0  0  0  0  0
    1.8305   -4.8995    5.8214 H   0  0  0  0  0  0  0  0  0  0  0  0
    2.6207   -3.6308    4.9085 H   0  0  0  0  0  0  0  0  0  0  0  0
    1.1954   -4.9974    3.4972 H   0  0  0  0  0  0  0  0  0  0  0  0
    2.8486   -7.4026    4.3515 H   0  0  0  0  0  0  0  0  0  0  0  0
    1.5979   -7.4550    3.1133 H   0  0  0  0  0  0  0  0  0  0  0  0
    1.1868   -7.0562    4.7627 H   0  0  0  0  0  0  0  0  0  0  0  0
    2.2784   -6.5601    1.0731 H   0  0  0  0  0  0  0  0  0  0  0  0
    1.2758   -5.1881    1.3171 H   0  0  0  0  0  0  0  0  0  0  0  0
    3.3944   -5.6145   -0.6561 H   0  0  0  0  0  0  0  0  0  0  0  0
    1.1086   -3.6377   -0.7698 H   0  0  0  0  0  0  0  0  0  0  0  0
    1.0013   -5.3505   -1.2215 H   0  0  0  0  0  0  0  0  0  0  0  0
    2.0209   -4.2404   -2.1055 H   0  0  0  0  0  0  0  0  0  0  0  0
    2.3315   -2.5893    1.1663 H   0  0  0  0  0  0  0  0  0  0  0  0
    5.8288   -1.7649    2.5775 H   0  0  0  0  0  0  0  0  0  0  0  0
    5.8463   -4.4557   -0.3639 H   0  0  0  0  0  0  0  0  0  0  0  0
    4.9010   -6.3729    0.5492 H   0  0  0  0  0  0  0  0  0  0  0  0
    6.6439   -6.9519    1.6938 H   0  0  0  0  0  0  0  0  0  0  0  0
    4.3952   -6.8208    2.7453 H   0  0  0  0  0  0  0  0  0  0  0  0
    5.3000   -4.2866    3.4670 H   0  0  0  0  0  0  0  0  0  0  0  0
    5.9951    0.0361    1.0563 H   0  0  0  0  0  0  0  0  0  0  0  0
    7.9445   -0.5065    1.1501 H   0  0  0  0  0  0  0  0  0  0  0  0
    4.5369   -0.3033   -0.7210 H   0  0  0  0  0  0  0  0  0  0  0  0
    6.0946   -0.2818   -1.4877 H   0  0  0  0  0  0  0  0  0  0  0  0
    6.2179   -2.7577   -1.3798 H   0  0  0  0  0  0  0  0  0  0  0  0
    3.1032   -1.9901   -0.9403 H   0  0  0  0  0  0  0  0  0  0  0  0
    2.9027   -2.0998   -3.8973 H   0  0  0  0  0  0  0  0  0  0  0  0
    4.5405   -1.5398   -4.2943 H   0  0  0  0  0  0  0  0  0  0  0  0
    3.6215   -0.7570   -2.9943 H   0  0  0  0  0  0  0  0  0  0  0  0
    3.8348   -4.3302   -3.7053 H   0  0  0  0  0  0  0  0  0  0  0  0
    5.0534   -4.7312   -2.4690 H   0  0  0  0  0  0  0  0  0  0  0  0
    5.5202   -3.8300   -3.9332 H   0  0  0  0  0  0  0  0  0  0  0  0
  1  2  1  0
  1 27  1  0
  1 28  1  0
  1 29  1  0
  2  3  1  0
  4  2  1  1
  2 30  1  0
  3 31  1  0
  3 32  1  0
  3 33  1  0
  4 16  1  0
  4 26  1  0
  4  5  1  0
  5  6  1  0
  5 34  1  0
  5 35  1  0
  6  7  1  0
  8  6  1  6
  6 36  1  6
  7 37  1  0
  7 38  1  0
  7 39  1  0
  8 13  1  0
  8 22  1  0
  8  9  1  0
  9 10  1  0
  9 26  1  0
  9 40  1  6
 10 11  1  0
 11 12  1  0
 11 18  1  0
 11 41  1  1
 12 13  1  0
 13 14  1  0
 13 42  1  6
 14 15  1  0
 14 16  1  0
 14 43  1  6
 15 44  1  0
 16 17  1  0
 16 45  1  1
 17 46  1  0
 18 19  1  0
 18 20  1  0
 18 47  1  1
 19 48  1  0
 20 21  1  0
 20 49  1  0
 20 50  1  0
 21 23  1  0
 21 22  1  0
 21 51  1  1
 22 23  1  0
 22 52  1  6
 23 24  1  0
 23 25  1  0
 24 53  1  0
 24 54  1  0
 24 55  1  0
 25 56  1  0
 25 57  1  0
 25 58  1  0
M  END
>  <i_m_ct_stereo_status>  (37) 
1

>  <s_m_source_file>  (37) 
/var/tmp/pbs.5076255.sched01/tmpgr0kyu9k/0plolsrat.sdf

>  <i_m_source_file_index>  (37) 
16

>  <i_lp_mmshare_version>  (37) 
48012

>  <i_f3d_flags>  (37) 
0

>  <s_epik_input>  (37) 
W0NIM11bQ0BASF0xW0NIMl1bQ0BAXShPMikoW0NIXShbQ0gzXSlbQ0gzXSlbQ0BIXShbT0hdKVtDQEhdKFtPSF0pW0NAQEhdM09bQ0BIXShPW0NASF0yW0NAXTEzNClbQ0BASF0oW09IXSlbQ0gyXVtDQEhdNVtDQEhdNEM1KFtDSDNdKVtDSDNd

>  <s_epik_cmdline>  (37) 
J2VwaWtfcHl0aG9uJywgJy1waHQnLCAnMi4wJywgJy1waCcsICc3LjAnLCAnLXRuJywgJzgnLCAnLW1hJywgJzIwMCcsICctaW1hZScsICc8aW5maWxlLm1hZT4nLCAnLW9tYWUnLCAnPG91dGZpbGUubWFlPic=

>  <r_lp_tautomer_probability>  (37) 
1

>  <r_epik_Ionization_Penalty>  (37) 
1.41851e-07

>  <r_epik_Ionization_Penalty_Charging>  (37) 
0

>  <r_epik_Ionization_Penalty_Neutral>  (37) 
1.41851e-07

>  <r_epik_State_Penalty>  (37) 
-0

>  <r_epik_Charging_Adjusted_Penalty>  (37) 
0

>  <i_epik_Tot_Q>  (37) 
0

>  <i_epik_Tot_abs_Q>  (37) 
0

>  <s_epik_Chemistry_Notes>  (37) 
This compound contains an acetal/aminal-like group ( X-CH(R)-Y where X, Y are N, S, or O) that may be acid/base labile, releasing an aldehyde.

>  <s_lp_Force_Field>  (37) 
OPLS3e

>  <r_lp_Energy>  (37) 
81.2977

>  <b_lp_Chiralities_Consistent>  (37) 
1

>  <s_lp_Variant>  (37) 
11:0-1

>  <s_i_glide_gridfile>  (37) 
pfpi4k_grid

>  <i_i_glide_lignum>  (37) 
16

>  <i_i_glide_rotatable_bonds>  (37) 
4

>  <r_i_docking_score>  (37) 
-3.35112

>  <r_i_glide_ligand_efficiency>  (37) 
-0.128889

>  <r_i_glide_ligand_efficiency_sa>  (37) 
-0.381834

>  <r_i_glide_ligand_efficiency_ln>  (37) 
-0.787

>  <r_i_glide_gscore>  (37) 
-3.35112

>  <r_i_glide_lipo>  (37) 
-0.483986

>  <r_i_glide_hbond>  (37) 
0

>  <r_i_glide_metal>  (37) 
-0

>  <r_i_glide_rewards>  (37) 
-1.52355

>  <r_i_glide_evdw>  (37) 
-15.0211

>  <r_i_glide_ecoul>  (37) 
-3.9188

>  <r_i_glide_erotb>  (37) 
0

>  <r_i_glide_esite>  (37) 
-0.00470742

>  <r_i_glide_emodel>  (37) 
-25.1766

>  <r_i_glide_energy>  (37) 
-18.9399

>  <r_i_glide_einternal>  (37) 
3.00428

>  <r_i_glide_intrahb_reward>  (37) 
-0.5

>  <i_i_glide_confnum>  (37) 
1

>  <i_i_glide_posenum>  (37) 
32

>  <r_i_glide_eff_state_penalty>  (37) 
0

>  <ligand_id>  (37) 
11

>  <original_smiles>  (37) 
CC(C)C12CC(C)C34C(OC(OC3C(O)C1O)C(O)CC1C4C1(C)C)O2

>  <smiles>  (37) 
[H]OC1([H])C2([H])OC3([H])OC4(C([H])(C([H])([H])[H])C([H])([H])[H])C([H])([H])C([H])(C([H])([H])[H])C3(C([H])(O2)C([H])(O[H])C4([H])O[H])C2([H])C([H])(C1([H])[H])C2(C([H])([H])[H])C([H])([H])[H]

$$$$
11:0:2
     RDKit          3D

 58 62  0  0  1  0  0  0  0  0999 V2000
    2.0997   -7.3461    3.8164 C   0  0  0  0  0  0  0  0  0  0  0  0
    2.3618   -5.8267    3.7455 C   0  0  0  0  0  0  0  0  0  0  0  0
    1.0168   -5.0840    3.8764 C   0  0  0  0  0  0  0  0  0  0  0  0
    3.2066   -5.3670    2.5078 C   0  0  2  0  0  0  0  0  0  0  0  0
    2.4325   -5.6452    1.1902 C   0  0  0  0  0  0  0  0  0  0  0  0
    2.9756   -4.9252   -0.0522 C   0  0  1  0  0  0  0  0  0  0  0  0
    1.8469   -4.5395   -1.0375 C   0  0  0  0  0  0  0  0  0  0  0  0
    3.9712   -3.7972    0.2841 C   0  0  1  0  0  0  0  0  0  0  0  0
    3.4517   -3.1158    1.5840 C   0  0  2  0  0  0  0  0  0  0  0  0
    4.1774   -1.9593    1.8264 O   0  0  0  0  0  0  0  0  0  0  0  0
    5.5673   -2.1289    1.8421 C   0  0  1  0  0  0  0  0  0  0  0  0
    6.0734   -3.4084    1.5305 O   0  0  0  0  0  0  0  0  0  0  0  0
    5.4004   -4.3078    0.6412 C   0  0  1  0  0  0  0  0  0  0  0  0
    5.4867   -5.7291    1.2721 C   0  0  1  0  0  0  0  0  0  0  0  0
    6.8265   -6.1445    1.4268 O   0  0  0  0  0  0  0  0  0  0  0  0
    4.6446   -5.9825    2.5410 C   0  0  1  0  0  0  0  0  0  0  0  0
    5.3139   -5.5139    3.6929 O   0  0  0  0  0  0  0  0  0  0  0  0
    6.1858   -1.0026    0.9674 C   0  0  1  0  0  0  0  0  0  0  0  0
    7.5794   -1.1058    0.8273 O   0  0  0  0  0  0  0  0  0  0  0  0
    5.5350   -0.8003   -0.4049 C   0  0  0  0  0  0  0  0  0  0  0  0
    5.3668   -2.0975   -1.1168 C   0  0  1  0  0  0  0  0  0  0  0  0
    4.0172   -2.6995   -0.8047 C   0  0  1  0  0  0  0  0  0  0  0  0
    4.4862   -2.5652   -2.2421 C   0  0  0  0  0  0  0  0  0  0  0  0
    3.8898   -1.5250   -3.1655 C   0  0  0  0  0  0  0  0  0  0  0  0
    4.8467   -3.7907   -3.0386 C   0  0  0  0  0  0  0  0  0  0  0  0
    3.4461   -3.9738    2.6797 O   0  0  0  0  0  0  0  0  0  0  0  0
    1.5248   -7.7145    2.9654 H   0  0  0  0  0  0  0  0  0  0  0  0
    1.5297   -7.5905    4.7127 H   0  0  0  0  0  0  0  0  0  0  0  0
    3.0181   -7.9279    3.8767 H   0  0  0  0  0  0  0  0  0  0  0  0
    2.9350   -5.5698    4.6370 H   0  0  0  0  0  0  0  0  0  0  0  0
    0.2994   -5.3870    3.1147 H   0  0  0  0  0  0  0  0  0  0  0  0
    1.1448   -4.0020    3.8156 H   0  0  0  0  0  0  0  0  0  0  0  0
    0.5505   -5.3092    4.8346 H   0  0  0  0  0  0  0  0  0  0  0  0
    2.4591   -6.7206    1.0029 H   0  0  0  0  0  0  0  0  0  0  0  0
    1.3744   -5.4233    1.2762 H   0  0  0  0  0  0  0  0  0  0  0  0
    3.5753   -5.6841   -0.5296 H   0  0  0  0  0  0  0  0  0  0  0  0
    1.2955   -3.6480   -0.7659 H   0  0  0  0  0  0  0  0  0  0  0  0
    1.1534   -5.3750   -1.1760 H   0  0  0  0  0  0  0  0  0  0  0  0
    2.2265   -4.2483   -2.0255 H   0  0  0  0  0  0  0  0  0  0  0  0
    2.4185   -2.8103    1.4100 H   0  0  0  0  0  0  0  0  0  0  0  0
    5.8893   -1.9852    2.8722 H   0  0  0  0  0  0  0  0  0  0  0  0
    5.9812   -4.4338   -0.2678 H   0  0  0  0  0  0  0  0  0  0  0  0
    5.1478   -6.4468    0.5343 H   0  0  0  0  0  0  0  0  0  0  0  0
    7.2624   -6.0867    0.5899 H   0  0  0  0  0  0  0  0  0  0  0  0
    4.5944   -7.0648    2.6367 H   0  0  0  0  0  0  0  0  0  0  0  0
    5.4276   -4.5834    3.5751 H   0  0  0  0  0  0  0  0  0  0  0  0
    6.0071   -0.0812    1.5181 H   0  0  0  0  0  0  0  0  0  0  0  0
    7.9447   -0.3569    1.2708 H   0  0  0  0  0  0  0  0  0  0  0  0
    4.5780   -0.2714   -0.3138 H   0  0  0  0  0  0  0  0  0  0  0  0
    6.1865   -0.1981   -1.0090 H   0  0  0  0  0  0  0  0  0  0  0  0
    6.3079   -2.6339   -1.1506 H   0  0  0  0  0  0  0  0  0  0  0  0
    3.1842   -2.0079   -0.6534 H   0  0  0  0  0  0  0  0  0  0  0  0
    2.9678   -1.9031   -3.6088 H   0  0  0  0  0  0  0  0  0  0  0  0
    4.5918   -1.2651   -3.9599 H   0  0  0  0  0  0  0  0  0  0  0  0
    3.6524   -0.6181   -2.6033 H   0  0  0  0  0  0  0  0  0  0  0  0
    3.9562   -4.1686   -3.5401 H   0  0  0  0  0  0  0  0  0  0  0  0
    5.2231   -4.5687   -2.3699 H   0  0  0  0  0  0  0  0  0  0  0  0
    5.6073   -3.5670   -3.7863 H   0  0  0  0  0  0  0  0  0  0  0  0
  1  2  1  0
  1 27  1  0
  1 28  1  0
  1 29  1  0
  2  3  1  0
  4  2  1  1
  2 30  1  0
  3 31  1  0
  3 32  1  0
  3 33  1  0
  4 16  1  0
  4 26  1  0
  4  5  1  0
  5  6  1  0
  5 34  1  0
  5 35  1  0
  6  7  1  0
  8  6  1  6
  6 36  1  6
  7 37  1  0
  7 38  1  0
  7 39  1  0
  8 13  1  0
  8 22  1  0
  8  9  1  0
  9 10  1  0
  9 26  1  0
  9 40  1  6
 10 11  1  0
 11 12  1  0
 11 18  1  0
 11 41  1  1
 12 13  1  0
 13 14  1  0
 13 42  1  6
 14 15  1  0
 14 16  1  0
 14 43  1  6
 15 44  1  0
 16 17  1  0
 16 45  1  1
 17 46  1  0
 18 19  1  0
 18 20  1  0
 18 47  1  1
 19 48  1  0
 20 21  1  0
 20 49  1  0
 20 50  1  0
 21 23  1  0
 21 22  1  0
 21 51  1  1
 22 23  1  0
 22 52  1  6
 23 24  1  0
 23 25  1  0
 24 53  1  0
 24 54  1  0
 24 55  1  0
 25 56  1  0
 25 57  1  0
 25 58  1  0
M  END
>  <i_m_ct_stereo_status>  (38) 
1

>  <s_m_source_file>  (38) 
/var/tmp/pbs.5076255.sched01/tmpgr0kyu9k/0plolsrat.sdf

>  <i_m_source_file_index>  (38) 
16

>  <i_lp_mmshare_version>  (38) 
48012

>  <i_f3d_flags>  (38) 
0

>  <s_epik_input>  (38) 
W0NIM11bQ0BASF0xW0NIMl1bQ0BAXShPMikoW0NIXShbQ0gzXSlbQ0gzXSlbQ0BIXShbT0hdKVtDQEhdKFtPSF0pW0NAQEhdM09bQ0BIXShPW0NASF0yW0NAXTEzNClbQ0BASF0oW09IXSlbQ0gyXVtDQEhdNVtDQEhdNEM1KFtDSDNdKVtDSDNd

>  <s_epik_cmdline>  (38) 
J2VwaWtfcHl0aG9uJywgJy1waHQnLCAnMi4wJywgJy1waCcsICc3LjAnLCAnLXRuJywgJzgnLCAnLW1hJywgJzIwMCcsICctaW1hZScsICc8aW5maWxlLm1hZT4nLCAnLW9tYWUnLCAnPG91dGZpbGUubWFlPic=

>  <r_lp_tautomer_probability>  (38) 
1

>  <r_epik_Ionization_Penalty>  (38) 
1.41851e-07

>  <r_epik_Ionization_Penalty_Charging>  (38) 
0

>  <r_epik_Ionization_Penalty_Neutral>  (38) 
1.41851e-07

>  <r_epik_State_Penalty>  (38) 
-0

>  <r_epik_Charging_Adjusted_Penalty>  (38) 
0

>  <i_epik_Tot_Q>  (38) 
0

>  <i_epik_Tot_abs_Q>  (38) 
0

>  <s_epik_Chemistry_Notes>  (38) 
This compound contains an acetal/aminal-like group ( X-CH(R)-Y where X, Y are N, S, or O) that may be acid/base labile, releasing an aldehyde.

>  <s_lp_Force_Field>  (38) 
OPLS3e

>  <r_lp_Energy>  (38) 
81.2977

>  <b_lp_Chiralities_Consistent>  (38) 
1

>  <s_lp_Variant>  (38) 
11:0-1

>  <s_i_glide_gridfile>  (38) 
pfpi4k_grid

>  <i_i_glide_lignum>  (38) 
16

>  <i_i_glide_rotatable_bonds>  (38) 
4

>  <r_i_docking_score>  (38) 
-3.3007

>  <r_i_glide_ligand_efficiency>  (38) 
-0.12695

>  <r_i_glide_ligand_efficiency_sa>  (38) 
-0.376089

>  <r_i_glide_ligand_efficiency_ln>  (38) 
-0.77516

>  <r_i_glide_gscore>  (38) 
-3.3007

>  <r_i_glide_lipo>  (38) 
-0.399911

>  <r_i_glide_hbond>  (38) 
0

>  <r_i_glide_metal>  (38) 
-0

>  <r_i_glide_rewards>  (38) 
-1.50112

>  <r_i_glide_evdw>  (38) 
-15.4521

>  <r_i_glide_ecoul>  (38) 
-4.17282

>  <r_i_glide_erotb>  (38) 
0

>  <r_i_glide_esite>  (38) 
-0.00114844

>  <r_i_glide_emodel>  (38) 
-26.0699

>  <r_i_glide_energy>  (38) 
-19.625

>  <r_i_glide_einternal>  (38) 
1.76019

>  <r_i_glide_intrahb_reward>  (38) 
-0.5

>  <i_i_glide_confnum>  (38) 
1

>  <i_i_glide_posenum>  (38) 
23

>  <r_i_glide_eff_state_penalty>  (38) 
0

>  <ligand_id>  (38) 
11

>  <original_smiles>  (38) 
CC(C)C12CC(C)C34C(OC(OC3C(O)C1O)C(O)CC1C4C1(C)C)O2

>  <smiles>  (38) 
[H]OC1([H])C2([H])OC3([H])OC4(C([H])(C([H])([H])[H])C([H])([H])[H])C([H])([H])C([H])(C([H])([H])[H])C3(C([H])(O2)C([H])(O[H])C4([H])O[H])C2([H])C([H])(C1([H])[H])C2(C([H])([H])[H])C([H])([H])[H]

$$$$
13:1:0
     RDKit          3D

 53 58  0  0  1  0  0  0  0  0999 V2000
    5.6903   -5.7526    4.9046 C   0  0  0  0  0  0  0  0  0  0  0  0
    4.6954   -5.0460    4.1110 N   0  0  0  0  0  0  0  0  0  0  0  0
    5.2263   -4.6940    2.7389 C   0  0  0  0  0  0  0  0  0  0  0  0
    4.4718   -3.8323    1.6337 C   0  0  0  0  0  0  0  0  0  0  0  0
    5.1339   -3.3063    0.5796 C   0  0  0  0  0  0  0  0  0  0  0  0
    6.5277   -3.3533    0.2383 C   0  0  0  0  0  0  0  0  0  0  0  0
    7.6586   -3.8266    0.8531 C   0  0  0  0  0  0  0  0  0  0  0  0
    8.7465   -3.5587   -0.0157 C   0  0  0  0  0  0  0  0  0  0  0  0
    8.2098   -2.9936   -1.1339 C   0  0  0  0  0  0  0  0  0  0  0  0
    6.8608   -2.8453   -0.9879 O   0  0  0  0  0  0  0  0  0  0  0  0
    2.9860   -3.5650    1.7048 C   0  0  0  0  0  0  0  0  0  0  0  0
    2.2663   -3.1140    0.8119 O   0  0  0  0  0  0  0  0  0  0  0  0
    2.4779   -3.9437    3.0646 C   0  0  2  0  0  0  0  0  0  0  0  0
    1.2898   -3.8148    3.9595 C   0  0  2  0  0  0  0  0  0  0  0  0
    0.9026   -2.3218    4.0668 C   0  0  0  0  0  0  0  0  0  0  0  0
    2.1685   -1.6642    3.7924 N   0  0  0  0  0  0  0  0  0  0  0  0
    2.3835   -0.4297    4.5424 C   0  0  0  0  0  0  0  0  0  0  0  0
    3.1197   -2.7592    3.9860 C   0  0  1  0  0  0  0  0  0  0  0  0
    3.0838   -3.2243    5.4479 C   0  0  0  0  0  0  0  0  0  0  0  0
    2.2689   -4.4313    5.0933 C   0  0  2  0  0  0  0  0  0  0  0  0
    3.2871   -5.4923    4.4164 C   0  0  1  0  0  0  0  0  0  0  0  0
    2.6578   -5.5253    3.0902 C   0  0  1  0  0  0  0  0  0  0  0  0
    1.4117   -6.4292    2.9456 C   0  0  0  0  0  0  0  0  0  0  0  0
    0.8753   -7.1791    4.0196 C   0  0  0  0  0  0  0  0  0  0  0  0
   -0.2265   -8.0222    3.7894 C   0  0  0  0  0  0  0  0  0  0  0  0
   -0.7584   -8.0937    2.4949 C   0  0  0  0  0  0  0  0  0  0  0  0
   -0.1672   -7.3160    1.4871 C   0  0  0  0  0  0  0  0  0  0  0  0
    0.8683   -6.4754    1.7046 N   0  0  0  0  0  0  0  0  0  0  0  0
    6.6568   -5.2471    4.8467 H   0  0  0  0  0  0  0  0  0  0  0  0
    5.8209   -6.7768    4.5484 H   0  0  0  0  0  0  0  0  0  0  0  0
    5.4005   -5.7814    5.9579 H   0  0  0  0  0  0  0  0  0  0  0  0
    6.1267   -4.1389    2.9784 H   0  0  0  0  0  0  0  0  0  0  0  0
    5.5249   -5.6291    2.2547 H   0  0  0  0  0  0  0  0  0  0  0  0
    4.5555   -2.7295   -0.1272 H   0  0  0  0  0  0  0  0  0  0  0  0
    7.7390   -4.2932    1.8220 H   0  0  0  0  0  0  0  0  0  0  0  0
    9.7861   -3.7611    0.1625 H   0  0  0  0  0  0  0  0  0  0  0  0
    8.6310   -2.6506   -2.0719 H   0  0  0  0  0  0  0  0  0  0  0  0
    0.4078   -4.4115    3.7422 H   0  0  0  0  0  0  0  0  0  0  0  0
    0.1812   -2.0334    3.3013 H   0  0  0  0  0  0  0  0  0  0  0  0
    0.4888   -2.0876    5.0496 H   0  0  0  0  0  0  0  0  0  0  0  0
    3.3733   -0.0264    4.3266 H   0  0  0  0  0  0  0  0  0  0  0  0
    2.2938   -0.5559    5.6219 H   0  0  0  0  0  0  0  0  0  0  0  0
    1.6476    0.3178    4.2407 H   0  0  0  0  0  0  0  0  0  0  0  0
    4.1175   -2.4126    3.7139 H   0  0  0  0  0  0  0  0  0  0  0  0
    4.0572   -3.4420    5.8868 H   0  0  0  0  0  0  0  0  0  0  0  0
    2.5608   -2.5743    6.1475 H   0  0  0  0  0  0  0  0  0  0  0  0
    1.7370   -4.8317    5.9563 H   0  0  0  0  0  0  0  0  0  0  0  0
    3.3097   -6.4654    4.9046 H   0  0  0  0  0  0  0  0  0  0  0  0
    3.2860   -5.9897    2.3243 H   0  0  0  0  0  0  0  0  0  0  0  0
    1.2876   -7.1458    5.0156 H   0  0  0  0  0  0  0  0  0  0  0  0
   -0.6443   -8.6186    4.5910 H   0  0  0  0  0  0  0  0  0  0  0  0
   -1.5907   -8.7445    2.2719 H   0  0  0  0  0  0  0  0  0  0  0  0
   -0.5400   -7.3656    0.4758 H   0  0  0  0  0  0  0  0  0  0  0  0
  1  2  1  0
  1 29  1  0
  1 30  1  0
  1 31  1  0
  2 21  1  0
  2  3  1  0
  3  4  1  0
  3 32  1  0
  3 33  1  0
  4  5  2  3
  4 11  1  0
  5  6  1  0
  5 34  1  0
  6 10  1  0
  6  7  2  0
  7  8  1  0
  7 35  1  0
  8  9  2  0
  8 36  1  0
  9 10  1  0
  9 37  1  0
 11 12  2  0
 13 11  1  6
 13 18  1  0
 13 22  1  0
 13 14  1  0
 14 20  1  0
 14 15  1  0
 14 38  1  6
 15 16  1  0
 15 39  1  0
 15 40  1  0
 16 17  1  0
 16 18  1  0
 17 41  1  0
 17 42  1  0
 17 43  1  0
 18 19  1  0
 18 44  1  6
 19 20  1  0
 19 45  1  0
 19 46  1  0
 20 21  1  0
 20 47  1  1
 21 22  1  0
 21 48  1  1
 22 23  1  0
 22 49  1  6
 23 28  1  0
 23 24  2  0
 24 25  1  0
 24 50  1  0
 25 26  2  0
 25 51  1  0
 26 27  1  0
 26 52  1  0
 27 28  2  0
 27 53  1  0
M  END
>  <i_m_ct_stereo_status>  (39) 
1

>  <s_m_source_file>  (39) 
/var/tmp/pbs.5076255.sched01/tmpgr0kyu9k/0plolsrat.sdf

>  <i_m_source_file_index>  (39) 
19

>  <i_lp_mmshare_version>  (39) 
48012

>  <i_f3d_flags>  (39) 
0

>  <s_epik_input>  (39) 
bjFbY0hdW2NIXVtjSF1bY0hdYzFbQ0BASF0yW0NASF0oW0NASF0oW0NAQEhdM0MyNDUpW0NIMl1bQ0BASF01TihbQ0gyXTMpW0NIM10pTihbQ0gzXSlbQ0gyXS9DKEM0PU8pPVtDSF0vYzZbY0hdW2NIXVtjSF1vNg==

>  <s_epik_cmdline>  (39) 
J2VwaWtfcHl0aG9uJywgJy1waHQnLCAnMi4wJywgJy1waCcsICc3LjAnLCAnLXRuJywgJzgnLCAnLW1hJywgJzIwMCcsICctaW1hZScsICc8aW5maWxlLm1hZT4nLCAnLW9tYWUnLCAnPG91dGZpbGUubWFlPic=

>  <r_epik_Ionization_Penalty>  (39) 
2.28003

>  <r_epik_Ionization_Penalty_Charging>  (39) 
0

>  <r_epik_Ionization_Penalty_Neutral>  (39) 
2.28003

>  <r_epik_State_Penalty>  (39) 
2.18424

>  <r_epik_Charging_Adjusted_Penalty>  (39) 
2.18424

>  <i_epik_Tot_Q>  (39) 
0

>  <i_epik_Tot_abs_Q>  (39) 
0

>  <s_lp_Force_Field>  (39) 
OPLS3e

>  <r_lp_Energy>  (39) 
177.401

>  <b_lp_Chiralities_Consistent>  (39) 
1

>  <s_lp_Variant>  (39) 
13:0-2

>  <s_i_glide_gridfile>  (39) 
pfpi4k_grid

>  <i_i_glide_lignum>  (39) 
19

>  <i_i_glide_rotatable_bonds>  (39) 
2

>  <r_i_docking_score>  (39) 
-2.37601

>  <r_i_glide_ligand_efficiency>  (39) 
-0.0848576

>  <r_i_glide_ligand_efficiency_sa>  (39) 
-0.257678

>  <r_i_glide_ligand_efficiency_ln>  (39) 
-0.548453

>  <r_i_glide_gscore>  (39) 
-2.37601

>  <r_i_glide_lipo>  (39) 
-0.396008

>  <r_i_glide_hbond>  (39) 
-0.0632478

>  <r_i_glide_metal>  (39) 
-0

>  <r_i_glide_rewards>  (39) 
-0.849112

>  <r_i_glide_evdw>  (39) 
-21.2476

>  <r_i_glide_ecoul>  (39) 
-0.937156

>  <r_i_glide_erotb>  (39) 
0.13724

>  <r_i_glide_esite>  (39) 
-0.00192861

>  <r_i_glide_emodel>  (39) 
-25.9298

>  <r_i_glide_energy>  (39) 
-22.1848

>  <r_i_glide_einternal>  (39) 
0.131273

>  <r_i_glide_intrahb_reward>  (39) 
-0

>  <i_i_glide_confnum>  (39) 
1

>  <i_i_glide_posenum>  (39) 
38

>  <r_i_glide_eff_state_penalty>  (39) 
0

>  <ligand_id>  (39) 
13

>  <original_smiles>  (39) 
CN1CC(=Cc2ccco2)C(=O)C23C4CN(C)C2CC4C1C3c1ccccn1

>  <smiles>  (39) 
[H]C(=C1C(=O)C23C([H])(c4nc([H])c([H])c([H])c4[H])C([H])(N(C([H])([H])[H])C1([H])[H])C1([H])C([H])([H])C2([H])N(C([H])([H])[H])C([H])([H])C13[H])c1oc([H])c([H])c1[H]

$$$$
13:1:1
     RDKit          3D

 53 58  0  0  1  0  0  0  0  0999 V2000
    5.5264   -5.8436    5.1110 C   0  0  0  0  0  0  0  0  0  0  0  0
    4.5944   -5.1625    4.2198 N   0  0  0  0  0  0  0  0  0  0  0  0
    5.1781   -4.9895    2.8333 C   0  0  0  0  0  0  0  0  0  0  0  0
    4.4991   -4.2007    1.6251 C   0  0  0  0  0  0  0  0  0  0  0  0
    5.2122   -3.8027    0.5447 C   0  0  0  0  0  0  0  0  0  0  0  0
    6.6001   -3.9670    0.2351 C   0  0  0  0  0  0  0  0  0  0  0  0
    7.3893   -3.5118   -0.7864 C   0  0  0  0  0  0  0  0  0  0  0  0
    8.7050   -3.9963   -0.5312 C   0  0  0  0  0  0  0  0  0  0  0  0
    8.6217   -4.7072    0.6317 C   0  0  0  0  0  0  0  0  0  0  0  0
    7.3502   -4.7092    1.0944 O   0  0  0  0  0  0  0  0  0  0  0  0
    3.0283   -3.8522    1.6225 C   0  0  0  0  0  0  0  0  0  0  0  0
    2.3591   -3.4759    0.6614 O   0  0  0  0  0  0  0  0  0  0  0  0
    2.4673   -4.0600    3.0003 C   0  0  2  0  0  0  0  0  0  0  0  0
    1.2673   -3.7741    3.8449 C   0  0  2  0  0  0  0  0  0  0  0  0
    0.9630   -2.2585    3.7889 C   0  0  0  0  0  0  0  0  0  0  0  0
    2.2711   -1.7024    3.4844 N   0  0  0  0  0  0  0  0  0  0  0  0
    2.5388   -0.4113    4.1136 C   0  0  0  0  0  0  0  0  0  0  0  0
    3.1521   -2.8234    3.8170 C   0  0  1  0  0  0  0  0  0  0  0  0
    3.0557   -3.1319    5.3165 C   0  0  0  0  0  0  0  0  0  0  0  0
    2.1827   -4.3217    5.0629 C   0  0  2  0  0  0  0  0  0  0  0  0
    3.1548   -5.4997    4.5263 C   0  0  1  0  0  0  0  0  0  0  0  0
    2.5572   -5.6356    3.1934 C   0  0  1  0  0  0  0  0  0  0  0  0
    1.2630   -6.4815    3.1045 C   0  0  0  0  0  0  0  0  0  0  0  0
    0.6578   -7.0883    4.2326 C   0  0  0  0  0  0  0  0  0  0  0  0
   -0.4834   -7.8915    4.0543 C   0  0  0  0  0  0  0  0  0  0  0  0
   -0.9865   -8.0672    2.7568 C   0  0  0  0  0  0  0  0  0  0  0  0
   -0.3229   -7.4341    1.6919 C   0  0  0  0  0  0  0  0  0  0  0  0
    0.7487   -6.6284    1.8586 N   0  0  0  0  0  0  0  0  0  0  0  0
    6.5223   -5.4019    5.0319 H   0  0  0  0  0  0  0  0  0  0  0  0
    5.6042   -6.9048    4.8647 H   0  0  0  0  0  0  0  0  0  0  0  0
    5.2084   -5.7481    6.1524 H   0  0  0  0  0  0  0  0  0  0  0  0
    6.1295   -4.4983    3.0290 H   0  0  0  0  0  0  0  0  0  0  0  0
    5.4127   -5.9895    2.4571 H   0  0  0  0  0  0  0  0  0  0  0  0
    4.6832   -3.2780   -0.2368 H   0  0  0  0  0  0  0  0  0  0  0  0
    7.0640   -2.9181   -1.6278 H   0  0  0  0  0  0  0  0  0  0  0  0
    9.5929   -3.8529   -1.1256 H   0  0  0  0  0  0  0  0  0  0  0  0
    9.3173   -5.2578    1.2486 H   0  0  0  0  0  0  0  0  0  0  0  0
    0.3553   -4.3404    3.6754 H   0  0  0  0  0  0  0  0  0  0  0  0
    0.2732   -2.0100    2.9805 H   0  0  0  0  0  0  0  0  0  0  0  0
    0.5401   -1.9010    4.7305 H   0  0  0  0  0  0  0  0  0  0  0  0
    3.5550   -0.0869    3.8881 H   0  0  0  0  0  0  0  0  0  0  0  0
    2.4163   -0.4210    5.1971 H   0  0  0  0  0  0  0  0  0  0  0  0
    1.8551    0.3410    3.7171 H   0  0  0  0  0  0  0  0  0  0  0  0
    4.1753   -2.5620    3.5400 H   0  0  0  0  0  0  0  0  0  0  0  0
    4.0032   -3.3575    5.8046 H   0  0  0  0  0  0  0  0  0  0  0  0
    2.5542   -2.3871    5.9319 H   0  0  0  0  0  0  0  0  0  0  0  0
    1.6074   -4.6032    5.9446 H   0  0  0  0  0  0  0  0  0  0  0  0
    3.1084   -6.4173    5.1105 H   0  0  0  0  0  0  0  0  0  0  0  0
    3.1750   -6.2088    2.4999 H   0  0  0  0  0  0  0  0  0  0  0  0
    1.0495   -6.9764    5.2302 H   0  0  0  0  0  0  0  0  0  0  0  0
   -0.9530   -8.3787    4.8972 H   0  0  0  0  0  0  0  0  0  0  0  0
   -1.8530   -8.6852    2.5818 H   0  0  0  0  0  0  0  0  0  0  0  0
   -0.6731   -7.5572    0.6775 H   0  0  0  0  0  0  0  0  0  0  0  0
  1  2  1  0
  1 29  1  0
  1 30  1  0
  1 31  1  0
  2 21  1  0
  2  3  1  0
  3  4  1  0
  3 32  1  0
  3 33  1  0
  4  5  2  3
  4 11  1  0
  5  6  1  0
  5 34  1  0
  6 10  1  0
  6  7  2  0
  7  8  1  0
  7 35  1  0
  8  9  2  0
  8 36  1  0
  9 10  1  0
  9 37  1  0
 11 12  2  0
 13 11  1  6
 13 18  1  0
 13 22  1  0
 13 14  1  0
 14 20  1  0
 14 15  1  0
 14 38  1  6
 15 16  1  0
 15 39  1  0
 15 40  1  0
 16 17  1  0
 16 18  1  0
 17 41  1  0
 17 42  1  0
 17 43  1  0
 18 19  1  0
 18 44  1  6
 19 20  1  0
 19 45  1  0
 19 46  1  0
 20 21  1  0
 20 47  1  1
 21 22  1  0
 21 48  1  1
 22 23  1  0
 22 49  1  6
 23 28  1  0
 23 24  2  0
 24 25  1  0
 24 50  1  0
 25 26  2  0
 25 51  1  0
 26 27  1  0
 26 52  1  0
 27 28  2  0
 27 53  1  0
M  END
>  <i_m_ct_stereo_status>  (40) 
1

>  <s_m_source_file>  (40) 
/var/tmp/pbs.5076255.sched01/tmpgr0kyu9k/0plolsrat.sdf

>  <i_m_source_file_index>  (40) 
19

>  <i_lp_mmshare_version>  (40) 
48012

>  <i_f3d_flags>  (40) 
0

>  <s_epik_input>  (40) 
bjFbY0hdW2NIXVtjSF1bY0hdYzFbQ0BASF0yW0NASF0oW0NASF0oW0NAQEhdM0MyNDUpW0NIMl1bQ0BASF01TihbQ0gyXTMpW0NIM10pTihbQ0gzXSlbQ0gyXS9DKEM0PU8pPVtDSF0vYzZbY0hdW2NIXVtjSF1vNg==

>  <s_epik_cmdline>  (40) 
J2VwaWtfcHl0aG9uJywgJy1waHQnLCAnMi4wJywgJy1waCcsICc3LjAnLCAnLXRuJywgJzgnLCAnLW1hJywgJzIwMCcsICctaW1hZScsICc8aW5maWxlLm1hZT4nLCAnLW9tYWUnLCAnPG91dGZpbGUubWFlPic=

>  <r_epik_Ionization_Penalty>  (40) 
2.28003

>  <r_epik_Ionization_Penalty_Charging>  (40) 
0

>  <r_epik_Ionization_Penalty_Neutral>  (40) 
2.28003

>  <r_epik_State_Penalty>  (40) 
2.18424

>  <r_epik_Charging_Adjusted_Penalty>  (40) 
2.18424

>  <i_epik_Tot_Q>  (40) 
0

>  <i_epik_Tot_abs_Q>  (40) 
0

>  <s_lp_Force_Field>  (40) 
OPLS3e

>  <r_lp_Energy>  (40) 
177.401

>  <b_lp_Chiralities_Consistent>  (40) 
1

>  <s_lp_Variant>  (40) 
13:0-2

>  <s_i_glide_gridfile>  (40) 
pfpi4k_grid

>  <i_i_glide_lignum>  (40) 
19

>  <i_i_glide_rotatable_bonds>  (40) 
2

>  <r_i_docking_score>  (40) 
-2.29424

>  <r_i_glide_ligand_efficiency>  (40) 
-0.0819371

>  <r_i_glide_ligand_efficiency_sa>  (40) 
-0.248809

>  <r_i_glide_ligand_efficiency_ln>  (40) 
-0.529578

>  <r_i_glide_gscore>  (40) 
-2.29424

>  <r_i_glide_lipo>  (40) 
-0.367481

>  <r_i_glide_hbond>  (40) 
-0.00468396

>  <r_i_glide_metal>  (40) 
-0

>  <r_i_glide_rewards>  (40) 
-0.849112

>  <r_i_glide_evdw>  (40) 
-21.1247

>  <r_i_glide_ecoul>  (40) 
-1.01524

>  <r_i_glide_erotb>  (40) 
0.13724

>  <r_i_glide_esite>  (40) 
-0.00167812

>  <r_i_glide_emodel>  (40) 
-25.7609

>  <r_i_glide_energy>  (40) 
-22.14

>  <r_i_glide_einternal>  (40) 
0.250802

>  <r_i_glide_intrahb_reward>  (40) 
-0

>  <i_i_glide_confnum>  (40) 
1

>  <i_i_glide_posenum>  (40) 
11

>  <r_i_glide_eff_state_penalty>  (40) 
0

>  <ligand_id>  (40) 
13

>  <original_smiles>  (40) 
CN1CC(=Cc2ccco2)C(=O)C23C4CN(C)C2CC4C1C3c1ccccn1

>  <smiles>  (40) 
[H]C(=C1C(=O)C23C([H])(c4nc([H])c([H])c([H])c4[H])C([H])(N(C([H])([H])[H])C1([H])[H])C1([H])C([H])([H])C2([H])N(C([H])([H])[H])C([H])([H])C13[H])c1oc([H])c([H])c1[H]

$$$$
13:1:2
     RDKit          3D

 53 58  0  0  1  0  0  0  0  0999 V2000
    5.4445   -7.4881    0.9164 C   0  0  0  0  0  0  0  0  0  0  0  0
    4.5243   -6.6734    1.6971 N   0  0  0  0  0  0  0  0  0  0  0  0
    4.1620   -5.3880    0.9793 C   0  0  0  0  0  0  0  0  0  0  0  0
    3.2641   -4.2085    1.5748 C   0  0  0  0  0  0  0  0  0  0  0  0
    3.2737   -2.9728    1.0206 C   0  0  0  0  0  0  0  0  0  0  0  0
    3.9860   -2.4624   -0.1197 C   0  0  0  0  0  0  0  0  0  0  0  0
    4.1741   -1.1954   -0.6043 C   0  0  0  0  0  0  0  0  0  0  0  0
    5.0122   -1.3099   -1.7532 C   0  0  0  0  0  0  0  0  0  0  0  0
    5.2886   -2.6419   -1.8811 C   0  0  0  0  0  0  0  0  0  0  0  0
    4.6661   -3.3500   -0.9025 O   0  0  0  0  0  0  0  0  0  0  0  0
    2.3779   -4.4120    2.7935 C   0  0  0  0  0  0  0  0  0  0  0  0
    1.4807   -3.6781    3.2131 O   0  0  0  0  0  0  0  0  0  0  0  0
    2.7433   -5.7070    3.4529 C   0  0  2  0  0  0  0  0  0  0  0  0
    2.5209   -6.4842    4.7073 C   0  0  2  0  0  0  0  0  0  0  0  0
    2.8651   -5.5835    5.9184 C   0  0  0  0  0  0  0  0  0  0  0  0
    3.8118   -4.6434    5.3368 N   0  0  0  0  0  0  0  0  0  0  0  0
    4.8808   -4.2273    6.2423 C   0  0  0  0  0  0  0  0  0  0  0  0
    4.1925   -5.3384    4.1048 C   0  0  1  0  0  0  0  0  0  0  0  0
    4.9048   -6.6524    4.4445 C   0  0  0  0  0  0  0  0  0  0  0  0
    3.6789   -7.4548    4.1278 C   0  0  2  0  0  0  0  0  0  0  0  0
    3.5762   -7.5188    2.5128 C   0  0  1  0  0  0  0  0  0  0  0  0
    2.3075   -6.7960    2.3781 C   0  0  1  0  0  0  0  0  0  0  0  0
    1.0190   -7.6149    2.6126 C   0  0  0  0  0  0  0  0  0  0  0  0
    1.0366   -8.9932    2.9370 C   0  0  0  0  0  0  0  0  0  0  0  0
   -0.1776   -9.6796    3.0913 C   0  0  0  0  0  0  0  0  0  0  0  0
   -1.3763   -8.9748    2.9110 C   0  0  0  0  0  0  0  0  0  0  0  0
   -1.3024   -7.6089    2.6085 C   0  0  0  0  0  0  0  0  0  0  0  0
   -0.1426   -6.9315    2.4555 N   0  0  0  0  0  0  0  0  0  0  0  0
    6.2603   -6.8671    0.5399 H   0  0  0  0  0  0  0  0  0  0  0  0
    4.9375   -7.9541    0.0696 H   0  0  0  0  0  0  0  0  0  0  0  0
    5.8901   -8.2770    1.5290 H   0  0  0  0  0  0  0  0  0  0  0  0
    5.1299   -4.9508    0.7402 H   0  0  0  0  0  0  0  0  0  0  0  0
    3.7142   -5.6712    0.0222 H   0  0  0  0  0  0  0  0  0  0  0  0
    2.6438   -2.2216    1.4743 H   0  0  0  0  0  0  0  0  0  0  0  0
    3.7593   -0.2926   -0.1801 H   0  0  0  0  0  0  0  0  0  0  0  0
    5.3700   -0.5225   -2.4015 H   0  0  0  0  0  0  0  0  0  0  0  0
    5.8735   -3.2400   -2.5657 H   0  0  0  0  0  0  0  0  0  0  0  0
    1.5548   -6.9603    4.8632 H   0  0  0  0  0  0  0  0  0  0  0  0
    1.9913   -5.0355    6.2766 H   0  0  0  0  0  0  0  0  0  0  0  0
    3.2748   -6.1660    6.7477 H   0  0  0  0  0  0  0  0  0  0  0  0
    5.5826   -3.5756    5.7204 H   0  0  0  0  0  0  0  0  0  0  0  0
    5.4397   -5.0610    6.6682 H   0  0  0  0  0  0  0  0  0  0  0  0
    4.4584   -3.6618    7.0744 H   0  0  0  0  0  0  0  0  0  0  0  0
    4.8400   -4.6853    3.5171 H   0  0  0  0  0  0  0  0  0  0  0  0
    5.7710   -6.8821    3.8251 H   0  0  0  0  0  0  0  0  0  0  0  0
    5.2145   -6.7805    5.4802 H   0  0  0  0  0  0  0  0  0  0  0  0
    3.6978   -8.4363    4.6009 H   0  0  0  0  0  0  0  0  0  0  0  0
    3.5400   -8.5304    2.1111 H   0  0  0  0  0  0  0  0  0  0  0  0
    2.1028   -6.4715    1.3552 H   0  0  0  0  0  0  0  0  0  0  0  0
    1.9481   -9.5508    3.0771 H   0  0  0  0  0  0  0  0  0  0  0  0
   -0.1840  -10.7299    3.3397 H   0  0  0  0  0  0  0  0  0  0  0  0
   -2.3254   -9.4692    3.0378 H   0  0  0  0  0  0  0  0  0  0  0  0
   -2.2121   -7.0427    2.4808 H   0  0  0  0  0  0  0  0  0  0  0  0
  1  2  1  0
  1 29  1  0
  1 30  1  0
  1 31  1  0
  2 21  1  0
  2  3  1  0
  3  4  1  0
  3 32  1  0
  3 33  1  0
  4  5  2  3
  4 11  1  0
  5  6  1  0
  5 34  1  0
  6 10  1  0
  6  7  2  0
  7  8  1  0
  7 35  1  0
  8  9  2  0
  8 36  1  0
  9 10  1  0
  9 37  1  0
 11 12  2  0
 13 11  1  1
 13 18  1  0
 13 22  1  0
 13 14  1  0
 14 20  1  0
 14 15  1  0
 14 38  1  1
 15 16  1  0
 15 39  1  0
 15 40  1  0
 16 17  1  0
 16 18  1  0
 17 41  1  0
 17 42  1  0
 17 43  1  0
 18 19  1  0
 18 44  1  6
 19 20  1  0
 19 45  1  0
 19 46  1  0
 20 21  1  0
 20 47  1  1
 21 22  1  0
 21 48  1  6
 22 23  1  0
 22 49  1  6
 23 28  1  0
 23 24  2  0
 24 25  1  0
 24 50  1  0
 25 26  2  0
 25 51  1  0
 26 27  1  0
 26 52  1  0
 27 28  2  0
 27 53  1  0
M  END
>  <i_m_ct_stereo_status>  (41) 
1

>  <s_m_source_file>  (41) 
/var/tmp/pbs.5076255.sched01/tmpgr0kyu9k/0plolsrat.sdf

>  <i_m_source_file_index>  (41) 
19

>  <i_lp_mmshare_version>  (41) 
48012

>  <i_f3d_flags>  (41) 
0

>  <s_epik_input>  (41) 
bjFbY0hdW2NIXVtjSF1bY0hdYzFbQ0BASF0yW0NASF0oW0NASF0oW0NAQEhdM0MyNDUpW0NIMl1bQ0BASF01TihbQ0gyXTMpW0NIM10pTihbQ0gzXSlbQ0gyXS9DKEM0PU8pPVtDSF0vYzZbY0hdW2NIXVtjSF1vNg==

>  <s_epik_cmdline>  (41) 
J2VwaWtfcHl0aG9uJywgJy1waHQnLCAnMi4wJywgJy1waCcsICc3LjAnLCAnLXRuJywgJzgnLCAnLW1hJywgJzIwMCcsICctaW1hZScsICc8aW5maWxlLm1hZT4nLCAnLW9tYWUnLCAnPG91dGZpbGUubWFlPic=

>  <r_epik_Ionization_Penalty>  (41) 
2.28003

>  <r_epik_Ionization_Penalty_Charging>  (41) 
0

>  <r_epik_Ionization_Penalty_Neutral>  (41) 
2.28003

>  <r_epik_State_Penalty>  (41) 
2.18424

>  <r_epik_Charging_Adjusted_Penalty>  (41) 
2.18424

>  <i_epik_Tot_Q>  (41) 
0

>  <i_epik_Tot_abs_Q>  (41) 
0

>  <s_lp_Force_Field>  (41) 
OPLS3e

>  <r_lp_Energy>  (41) 
177.401

>  <b_lp_Chiralities_Consistent>  (41) 
1

>  <s_lp_Variant>  (41) 
13:0-2

>  <s_i_glide_gridfile>  (41) 
pfpi4k_grid

>  <i_i_glide_lignum>  (41) 
19

>  <i_i_glide_rotatable_bonds>  (41) 
2

>  <r_i_docking_score>  (41) 
-2.06518

>  <r_i_glide_ligand_efficiency>  (41) 
-0.0737564

>  <r_i_glide_ligand_efficiency_sa>  (41) 
-0.223968

>  <r_i_glide_ligand_efficiency_ln>  (41) 
-0.476704

>  <r_i_glide_gscore>  (41) 
-2.06518

>  <r_i_glide_lipo>  (41) 
-0.110816

>  <r_i_glide_hbond>  (41) 
-0.096683

>  <r_i_glide_metal>  (41) 
-0

>  <r_i_glide_rewards>  (41) 
-0.849112

>  <r_i_glide_evdw>  (41) 
-24.2106

>  <r_i_glide_ecoul>  (41) 
0.465395

>  <r_i_glide_erotb>  (41) 
0.13724

>  <r_i_glide_esite>  (41) 
-0.00508628

>  <r_i_glide_emodel>  (41) 
-27.0253

>  <r_i_glide_energy>  (41) 
-23.7452

>  <r_i_glide_einternal>  (41) 
0.296679

>  <r_i_glide_intrahb_reward>  (41) 
-0

>  <i_i_glide_confnum>  (41) 
4

>  <i_i_glide_posenum>  (41) 
24

>  <r_i_glide_eff_state_penalty>  (41) 
0

>  <ligand_id>  (41) 
13

>  <original_smiles>  (41) 
CN1CC(=Cc2ccco2)C(=O)C23C4CN(C)C2CC4C1C3c1ccccn1

>  <smiles>  (41) 
[H]C(=C1C(=O)C23C([H])(c4nc([H])c([H])c([H])c4[H])C([H])(N(C([H])([H])[H])C1([H])[H])C1([H])C([H])([H])C2([H])N(C([H])([H])[H])C([H])([H])C13[H])c1oc([H])c([H])c1[H]

$$$$
13:2:0
     RDKit          3D

 54 59  0  0  1  0  0  0  0  0999 V2000
    2.3209  -12.0004    4.5210 C   0  0  0  0  0  0  0  0  0  0  0  0
    2.7917  -10.6328    4.2118 N   0  0  2  0  0  0  0  0  0  0  0  0
    4.0421  -10.2585    5.0314 C   0  0  0  0  0  0  0  0  0  0  0  0
    4.7677   -8.8436    5.0938 C   0  0  0  0  0  0  0  0  0  0  0  0
    6.1094   -8.6856    5.0671 C   0  0  0  0  0  0  0  0  0  0  0  0
    7.2092   -9.6273    4.9346 C   0  0  0  0  0  0  0  0  0  0  0  0
    7.3309  -10.9786    4.7748 C   0  0  0  0  0  0  0  0  0  0  0  0
    8.7214  -11.2733    4.7052 C   0  0  0  0  0  0  0  0  0  0  0  0
    9.3610  -10.0923    4.8662 C   0  0  0  0  0  0  0  0  0  0  0  0
    8.4575   -9.0761    5.0089 O   0  0  0  0  0  0  0  0  0  0  0  0
    3.9268   -7.5849    5.2090 C   0  0  0  0  0  0  0  0  0  0  0  0
    4.2836   -6.4290    5.4586 O   0  0  0  0  0  0  0  0  0  0  0  0
    2.5100   -7.9577    4.9107 C   0  0  2  0  0  0  0  0  0  0  0  0
    1.1307   -7.3950    4.9069 C   0  0  2  0  0  0  0  0  0  0  0  0
    0.8197   -6.7687    6.2808 C   0  0  0  0  0  0  0  0  0  0  0  0
    1.7009   -7.5271    7.1434 N   0  0  0  0  0  0  0  0  0  0  0  0
    1.1567   -7.7884    8.4727 C   0  0  0  0  0  0  0  0  0  0  0  0
    2.0369   -8.6721    6.2997 C   0  0  1  0  0  0  0  0  0  0  0  0
    0.7807   -9.4989    6.0192 C   0  0  0  0  0  0  0  0  0  0  0  0
    0.6722   -8.9312    4.6435 C   0  0  2  0  0  0  0  0  0  0  0  0
    1.7477   -9.6511    3.6928 C   0  0  1  0  0  0  0  0  0  0  0  0
    2.5779   -8.4889    3.4076 C   0  0  1  0  0  0  0  0  0  0  0  0
    2.0951   -7.5575    2.2676 C   0  0  0  0  0  0  0  0  0  0  0  0
    0.7851   -7.5954    1.7335 C   0  0  0  0  0  0  0  0  0  0  0  0
    0.4397   -6.7228    0.6928 C   0  0  0  0  0  0  0  0  0  0  0  0
    1.4231   -5.8571    0.1792 C   0  0  0  0  0  0  0  0  0  0  0  0
    2.6966   -5.8761    0.7731 C   0  0  0  0  0  0  0  0  0  0  0  0
    3.0270   -6.6908    1.7979 N   0  0  0  0  0  0  0  0  0  0  0  0
    2.2167  -12.1672    5.5890 H   0  0  0  0  0  0  0  0  0  0  0  0
    3.0684  -12.7215    4.1904 H   0  0  0  0  0  0  0  0  0  0  0  0
    1.3810  -12.2343    4.0249 H   0  0  0  0  0  0  0  0  0  0  0  0
    3.9926  -10.6631    6.0439 H   0  0  0  0  0  0  0  0  0  0  0  0
    4.7219  -10.9157    4.5059 H   0  0  0  0  0  0  0  0  0  0  0  0
    6.4668   -7.6702    5.1402 H   0  0  0  0  0  0  0  0  0  0  0  0
    6.5659  -11.7368    4.6917 H   0  0  0  0  0  0  0  0  0  0  0  0
    9.1539  -12.2522    4.5623 H   0  0  0  0  0  0  0  0  0  0  0  0
   10.4091   -9.8123    4.8907 H   0  0  0  0  0  0  0  0  0  0  0  0
    0.8641   -6.6824    4.1327 H   0  0  0  0  0  0  0  0  0  0  0  0
    1.0903   -5.7142    6.3181 H   0  0  0  0  0  0  0  0  0  0  0  0
   -0.2362   -6.8598    6.5340 H   0  0  0  0  0  0  0  0  0  0  0  0
    1.8468   -8.4062    9.0475 H   0  0  0  0  0  0  0  0  0  0  0  0
    0.1872   -8.2879    8.4575 H   0  0  0  0  0  0  0  0  0  0  0  0
    1.0277   -6.8477    9.0119 H   0  0  0  0  0  0  0  0  0  0  0  0
    2.7681   -9.2411    6.8662 H   0  0  0  0  0  0  0  0  0  0  0  0
    0.8991  -10.5723    6.0640 H   0  0  0  0  0  0  0  0  0  0  0  0
   -0.0982   -9.2595    6.6151 H   0  0  0  0  0  0  0  0  0  0  0  0
   -0.3488   -9.0191    4.2723 H   0  0  0  0  0  0  0  0  0  0  0  0
    1.2948  -10.0711    2.7926 H   0  0  0  0  0  0  0  0  0  0  0  0
    3.5571   -8.7869    3.0075 H   0  0  0  0  0  0  0  0  0  0  0  0
    0.0308   -8.2839    2.0896 H   0  0  0  0  0  0  0  0  0  0  0  0
   -0.5528   -6.7517    0.2655 H   0  0  0  0  0  0  0  0  0  0  0  0
    1.2294   -5.2105   -0.6606 H   0  0  0  0  0  0  0  0  0  0  0  0
    3.4747   -5.2298    0.3914 H   0  0  0  0  0  0  0  0  0  0  0  0
    3.2440  -10.8219    3.3373 H   0  0  0  0  0  0  0  0  0  0  0  0
  1  2  1  0
  1 29  1  0
  1 30  1  0
  1 31  1  0
  2 21  1  0
  2  3  1  0
  2 54  1  6
  3  4  1  0
  3 32  1  0
  3 33  1  0
  4  5  2  3
  4 11  1  0
  5  6  1  0
  5 34  1  0
  6 10  1  0
  6  7  2  0
  7  8  1  0
  7 35  1  0
  8  9  2  0
  8 36  1  0
  9 10  1  0
  9 37  1  0
 11 12  2  0
 13 11  1  1
 13 18  1  0
 13 22  1  0
 13 14  1  0
 14 20  1  0
 14 15  1  0
 14 38  1  6
 15 16  1  0
 15 39  1  0
 15 40  1  0
 16 17  1  0
 16 18  1  0
 17 41  1  0
 17 42  1  0
 17 43  1  0
 18 19  1  0
 18 44  1  1
 19 20  1  0
 19 45  1  0
 19 46  1  0
 20 21  1  0
 20 47  1  6
 21 22  1  0
 21 48  1  6
 22 23  1  0
 22 49  1  6
 23 28  1  0
 23 24  2  0
 24 25  1  0
 24 50  1  0
 25 26  2  0
 25 51  1  0
 26 27  1  0
 26 52  1  0
 27 28  2  0
 27 53  1  0
M  CHG  1   2   1
M  END
>  <i_m_ct_stereo_status>  (42) 
1

>  <s_m_source_file>  (42) 
/var/tmp/pbs.5076255.sched01/tmpgr0kyu9k/0plolsrat.sdf

>  <i_m_source_file_index>  (42) 
20

>  <i_lp_mmshare_version>  (42) 
48012

>  <i_f3d_flags>  (42) 
0

>  <s_epik_input>  (42) 
bjFbY0hdW2NIXVtjSF1bY0hdYzFbQ0BASF0yW0NASF0oW0NASF0oW0NAQEhdM0MyNDUpW0NIMl1bQ0BASF01TihbQ0gyXTMpW0NIM10pTihbQ0gzXSlbQ0gyXS9DKEM0PU8pPVtDSF0vYzZbY0hdW2NIXVtjSF1vNg==

>  <s_epik_cmdline>  (42) 
J2VwaWtfcHl0aG9uJywgJy1waHQnLCAnMi4wJywgJy1waCcsICc3LjAnLCAnLXRuJywgJzgnLCAnLW1hJywgJzIwMCcsICctaW1hZScsICc8aW5maWxlLm1hZT4nLCAnLW9tYWUnLCAnPG91dGZpbGUubWFlPic=

>  <r_epik_Ionization_Penalty>  (42) 
0.811775

>  <r_epik_Ionization_Penalty_Charging>  (42) 
0.483781

>  <r_epik_Ionization_Penalty_Neutral>  (42) 
0.327993

>  <r_epik_State_Penalty>  (42) 
2.45389

>  <r_epik_Charging_Adjusted_Penalty>  (42) 
2.93767

>  <i_epik_Tot_Q>  (42) 
1

>  <i_epik_Tot_abs_Q>  (42) 
1

>  <s_lp_Force_Field>  (42) 
OPLS3e

>  <r_lp_Energy>  (42) 
185.362

>  <b_lp_Chiralities_Consistent>  (42) 
1

>  <s_lp_Variant>  (42) 
13:0-3

>  <s_i_glide_gridfile>  (42) 
pfpi4k_grid

>  <i_i_glide_lignum>  (42) 
20

>  <i_i_glide_rotatable_bonds>  (42) 
2

>  <r_i_docking_score>  (42) 
-2.17778

>  <r_i_glide_ligand_efficiency>  (42) 
-0.077778

>  <r_i_glide_ligand_efficiency_sa>  (42) 
-0.23618

>  <r_i_glide_ligand_efficiency_ln>  (42) 
-0.502696

>  <r_i_glide_gscore>  (42) 
-2.17778

>  <r_i_glide_lipo>  (42) 
-0.0338575

>  <r_i_glide_hbond>  (42) 
0

>  <r_i_glide_metal>  (42) 
-0

>  <r_i_glide_rewards>  (42) 
-0.84224

>  <r_i_glide_evdw>  (42) 
-15.5215

>  <r_i_glide_ecoul>  (42) 
-4.31136

>  <r_i_glide_erotb>  (42) 
0.136583

>  <r_i_glide_esite>  (42) 
-0.0154912

>  <r_i_glide_emodel>  (42) 
-23.0961

>  <r_i_glide_energy>  (42) 
-19.8328

>  <r_i_glide_einternal>  (42) 
0.635604

>  <r_i_glide_intrahb_reward>  (42) 
-0

>  <i_i_glide_confnum>  (42) 
1

>  <i_i_glide_posenum>  (42) 
38

>  <r_i_glide_eff_state_penalty>  (42) 
0

>  <ligand_id>  (42) 
13

>  <original_smiles>  (42) 
CN1CC(=Cc2ccco2)C(=O)C23C4CN(C)C2CC4C1C3c1ccccn1

>  <smiles>  (42) 
[H]C(=C1C(=O)C23C([H])(c4nc([H])c([H])c([H])c4[H])C([H])(C4([H])C([H])([H])C2([H])N(C([H])([H])[H])C([H])([H])C43[H])[N+]([H])(C([H])([H])[H])C1([H])[H])c1oc([H])c([H])c1[H]

$$$$
13:2:1
     RDKit          3D

 54 59  0  0  1  0  0  0  0  0999 V2000
    2.4813  -11.0877    5.5096 C   0  0  0  0  0  0  0  0  0  0  0  0
    3.0645   -9.9313    4.8051 N   0  0  2  0  0  0  0  0  0  0  0  0
    4.5244   -9.6808    5.2081 C   0  0  0  0  0  0  0  0  0  0  0  0
    5.4429   -8.4401    4.7751 C   0  0  0  0  0  0  0  0  0  0  0  0
    6.7593   -8.5494    4.4377 C   0  0  0  0  0  0  0  0  0  0  0  0
    7.6447   -9.6719    4.3213 C   0  0  0  0  0  0  0  0  0  0  0  0
    8.9948   -9.7942    4.0804 C   0  0  0  0  0  0  0  0  0  0  0  0
    9.2856  -11.1932    4.0919 C   0  0  0  0  0  0  0  0  0  0  0  0
    8.1010  -11.8184    4.3332 C   0  0  0  0  0  0  0  0  0  0  0  0
    7.1077  -10.9109    4.4850 O   0  0  0  0  0  0  0  0  0  0  0  0
    4.8503   -7.0428    4.7648 C   0  0  0  0  0  0  0  0  0  0  0  0
    5.4270   -5.9621    4.6580 O   0  0  0  0  0  0  0  0  0  0  0  0
    3.3627   -7.1696    4.8779 C   0  0  2  0  0  0  0  0  0  0  0  0
    2.1242   -6.3474    5.0263 C   0  0  2  0  0  0  0  0  0  0  0  0
    2.2669   -5.4111    6.2473 C   0  0  0  0  0  0  0  0  0  0  0  0
    3.2118   -6.1450    7.0609 N   0  0  0  0  0  0  0  0  0  0  0  0
    2.9948   -6.0190    8.5019 C   0  0  0  0  0  0  0  0  0  0  0  0
    3.1509   -7.4807    6.4641 C   0  0  1  0  0  0  0  0  0  0  0  0
    1.7578   -8.0696    6.6611 C   0  0  0  0  0  0  0  0  0  0  0  0
    1.3913   -7.7737    5.2467 C   0  0  2  0  0  0  0  0  0  0  0  0
    2.0833   -8.8795    4.2949 C   0  0  1  0  0  0  0  0  0  0  0  0
    2.9686   -7.9840    3.5620 C   0  0  1  0  0  0  0  0  0  0  0  0
    2.3457   -7.2183    2.3750 C   0  0  0  0  0  0  0  0  0  0  0  0
    0.9857   -7.3452    1.9987 C   0  0  0  0  0  0  0  0  0  0  0  0
    0.5170   -6.6643    0.8653 C   0  0  0  0  0  0  0  0  0  0  0  0
    1.4169   -5.8483    0.1352 C   0  0  0  0  0  0  0  0  0  0  0  0
    2.7466   -5.7805    0.5886 C   0  0  0  0  0  0  0  0  0  0  0  0
    3.2025   -6.4365    1.6780 N   0  0  0  0  0  0  0  0  0  0  0  0
    2.6519  -11.0047    6.5822 H   0  0  0  0  0  0  0  0  0  0  0  0
    2.9796  -12.0149    5.2242 H   0  0  0  0  0  0  0  0  0  0  0  0
    1.4157  -11.2213    5.3087 H   0  0  0  0  0  0  0  0  0  0  0  0
    4.6576   -9.8246    6.2806 H   0  0  0  0  0  0  0  0  0  0  0  0
    4.9228  -10.5822    4.7835 H   0  0  0  0  0  0  0  0  0  0  0  0
    7.2566   -7.6228    4.1855 H   0  0  0  0  0  0  0  0  0  0  0  0
    9.6796   -8.9774    3.9106 H   0  0  0  0  0  0  0  0  0  0  0  0
   10.2208  -11.7027    3.9453 H   0  0  0  0  0  0  0  0  0  0  0  0
    7.7731  -12.8464    4.4381 H   0  0  0  0  0  0  0  0  0  0  0  0
    1.7666   -5.7733    4.1739 H   0  0  0  0  0  0  0  0  0  0  0  0
    2.6966   -4.4460    5.9760 H   0  0  0  0  0  0  0  0  0  0  0  0
    1.3074   -5.2278    6.7381 H   0  0  0  0  0  0  0  0  0  0  0  0
    3.7038   -6.6386    9.0474 H   0  0  0  0  0  0  0  0  0  0  0  0
    1.9897   -6.2993    8.8163 H   0  0  0  0  0  0  0  0  0  0  0  0
    3.1505   -4.9860    8.8129 H   0  0  0  0  0  0  0  0  0  0  0  0
    3.9124   -8.0640    6.9786 H   0  0  0  0  0  0  0  0  0  0  0  0
    1.7197   -9.1171    6.9357 H   0  0  0  0  0  0  0  0  0  0  0  0
    1.1062   -7.5416    7.3607 H   0  0  0  0  0  0  0  0  0  0  0  0
    0.3149   -7.7236    5.1145 H   0  0  0  0  0  0  0  0  0  0  0  0
    1.3625   -9.3980    3.6674 H   0  0  0  0  0  0  0  0  0  0  0  0
    3.7644   -8.5360    3.0407 H   0  0  0  0  0  0  0  0  0  0  0  0
    0.2836   -7.9702    2.5299 H   0  0  0  0  0  0  0  0  0  0  0  0
   -0.5042   -6.7783    0.5409 H   0  0  0  0  0  0  0  0  0  0  0  0
    1.1197   -5.3337   -0.7567 H   0  0  0  0  0  0  0  0  0  0  0  0
    3.4612   -5.1829    0.0412 H   0  0  0  0  0  0  0  0  0  0  0  0
    3.2371  -10.3779    3.9056 H   0  0  0  0  0  0  0  0  0  0  0  0
  1  2  1  0
  1 29  1  0
  1 30  1  0
  1 31  1  0
  2 21  1  0
  2  3  1  0
  2 54  1  6
  3  4  1  0
  3 32  1  0
  3 33  1  0
  4  5  2  3
  4 11  1  0
  5  6  1  0
  5 34  1  0
  6 10  1  0
  6  7  2  0
  7  8  1  0
  7 35  1  0
  8  9  2  0
  8 36  1  0
  9 10  1  0
  9 37  1  0
 11 12  2  0
 13 11  1  1
 13 18  1  0
 13 22  1  0
 13 14  1  0
 14 20  1  0
 14 15  1  0
 14 38  1  6
 15 16  1  0
 15 39  1  0
 15 40  1  0
 16 17  1  0
 16 18  1  0
 17 41  1  0
 17 42  1  0
 17 43  1  0
 18 19  1  0
 18 44  1  1
 19 20  1  0
 19 45  1  0
 19 46  1  0
 20 21  1  0
 20 47  1  1
 21 22  1  0
 21 48  1  6
 22 23  1  0
 22 49  1  6
 23 28  1  0
 23 24  2  0
 24 25  1  0
 24 50  1  0
 25 26  2  0
 25 51  1  0
 26 27  1  0
 26 52  1  0
 27 28  2  0
 27 53  1  0
M  CHG  1   2   1
M  END
>  <i_m_ct_stereo_status>  (43) 
1

>  <s_m_source_file>  (43) 
/var/tmp/pbs.5076255.sched01/tmpgr0kyu9k/0plolsrat.sdf

>  <i_m_source_file_index>  (43) 
20

>  <i_lp_mmshare_version>  (43) 
48012

>  <i_f3d_flags>  (43) 
0

>  <s_epik_input>  (43) 
bjFbY0hdW2NIXVtjSF1bY0hdYzFbQ0BASF0yW0NASF0oW0NASF0oW0NAQEhdM0MyNDUpW0NIMl1bQ0BASF01TihbQ0gyXTMpW0NIM10pTihbQ0gzXSlbQ0gyXS9DKEM0PU8pPVtDSF0vYzZbY0hdW2NIXVtjSF1vNg==

>  <s_epik_cmdline>  (43) 
J2VwaWtfcHl0aG9uJywgJy1waHQnLCAnMi4wJywgJy1waCcsICc3LjAnLCAnLXRuJywgJzgnLCAnLW1hJywgJzIwMCcsICctaW1hZScsICc8aW5maWxlLm1hZT4nLCAnLW9tYWUnLCAnPG91dGZpbGUubWFlPic=

>  <r_epik_Ionization_Penalty>  (43) 
0.811775

>  <r_epik_Ionization_Penalty_Charging>  (43) 
0.483781

>  <r_epik_Ionization_Penalty_Neutral>  (43) 
0.327993

>  <r_epik_State_Penalty>  (43) 
2.45389

>  <r_epik_Charging_Adjusted_Penalty>  (43) 
2.93767

>  <i_epik_Tot_Q>  (43) 
1

>  <i_epik_Tot_abs_Q>  (43) 
1

>  <s_lp_Force_Field>  (43) 
OPLS3e

>  <r_lp_Energy>  (43) 
185.362

>  <b_lp_Chiralities_Consistent>  (43) 
1

>  <s_lp_Variant>  (43) 
13:0-3

>  <s_i_glide_gridfile>  (43) 
pfpi4k_grid

>  <i_i_glide_lignum>  (43) 
20

>  <i_i_glide_rotatable_bonds>  (43) 
2

>  <r_i_docking_score>  (43) 
-2.10868

>  <r_i_glide_ligand_efficiency>  (43) 
-0.0753099

>  <r_i_glide_ligand_efficiency_sa>  (43) 
-0.228685

>  <r_i_glide_ligand_efficiency_ln>  (43) 
-0.486745

>  <r_i_glide_gscore>  (43) 
-2.10868

>  <r_i_glide_lipo>  (43) 
-0.0509197

>  <r_i_glide_hbond>  (43) 
0

>  <r_i_glide_metal>  (43) 
-0

>  <r_i_glide_rewards>  (43) 
-0.84224

>  <r_i_glide_evdw>  (43) 
-13.8682

>  <r_i_glide_ecoul>  (43) 
-4.27628

>  <r_i_glide_erotb>  (43) 
0.136583

>  <r_i_glide_esite>  (43) 
-0.0172459

>  <r_i_glide_emodel>  (43) 
-21.5723

>  <r_i_glide_energy>  (43) 
-18.1445

>  <r_i_glide_einternal>  (43) 
0.235671

>  <r_i_glide_intrahb_reward>  (43) 
-0

>  <i_i_glide_confnum>  (43) 
4

>  <i_i_glide_posenum>  (43) 
39

>  <r_i_glide_eff_state_penalty>  (43) 
0

>  <ligand_id>  (43) 
13

>  <original_smiles>  (43) 
CN1CC(=Cc2ccco2)C(=O)C23C4CN(C)C2CC4C1C3c1ccccn1

>  <smiles>  (43) 
[H]C(=C1C(=O)C23C([H])(c4nc([H])c([H])c([H])c4[H])C([H])(C4([H])C([H])([H])C2([H])N(C([H])([H])[H])C([H])([H])C43[H])[N+]([H])(C([H])([H])[H])C1([H])[H])c1oc([H])c([H])c1[H]

$$$$
13:2:2
     RDKit          3D

 54 59  0  0  1  0  0  0  0  0999 V2000
    2.7103   -9.9287    6.9344 C   0  0  0  0  0  0  0  0  0  0  0  0
    3.3221   -9.2492    5.7663 N   0  0  2  0  0  0  0  0  0  0  0  0
    4.8533   -9.4180    5.7305 C   0  0  0  0  0  0  0  0  0  0  0  0
    5.8740   -8.6941    4.7323 C   0  0  0  0  0  0  0  0  0  0  0  0
    6.9476   -9.3120    4.1659 C   0  0  0  0  0  0  0  0  0  0  0  0
    7.4303  -10.6687    4.2385 C   0  0  0  0  0  0  0  0  0  0  0  0
    8.5817  -11.2798    3.8111 C   0  0  0  0  0  0  0  0  0  0  0  0
    8.4810  -12.6543    4.1803 C   0  0  0  0  0  0  0  0  0  0  0  0
    7.2846  -12.7768    4.8227 C   0  0  0  0  0  0  0  0  0  0  0  0
    6.6479  -11.5829    4.8660 O   0  0  0  0  0  0  0  0  0  0  0  0
    5.6787   -7.2253    4.3928 C   0  0  0  0  0  0  0  0  0  0  0  0
    6.4578   -6.4664    3.8127 O   0  0  0  0  0  0  0  0  0  0  0  0
    4.3127   -6.8083    4.8575 C   0  0  2  0  0  0  0  0  0  0  0  0
    3.4373   -5.6058    5.0028 C   0  0  2  0  0  0  0  0  0  0  0  0
    4.1880   -4.5062    5.7823 C   0  0  0  0  0  0  0  0  0  0  0  0
    5.1191   -5.2964    6.5640 N   0  0  0  0  0  0  0  0  0  0  0  0
    5.3935   -4.7561    7.8934 C   0  0  0  0  0  0  0  0  0  0  0  0
    4.5380   -6.6368    6.4649 C   0  0  1  0  0  0  0  0  0  0  0  0
    3.1685   -6.6559    7.1446 C   0  0  0  0  0  0  0  0  0  0  0  0
    2.4721   -6.6070    5.8263 C   0  0  2  0  0  0  0  0  0  0  0  0
    2.5386   -8.0793    5.1671 C   0  0  1  0  0  0  0  0  0  0  0  0
    3.3469   -7.7408    3.9921 C   0  0  1  0  0  0  0  0  0  0  0  0
    2.5976   -7.1309    2.7812 C   0  0  0  0  0  0  0  0  0  0  0  0
    1.2404   -7.4174    2.5122 C   0  0  0  0  0  0  0  0  0  0  0  0
    0.6466   -6.9061    1.3462 C   0  0  0  0  0  0  0  0  0  0  0  0
    1.4192   -6.1050    0.4900 C   0  0  0  0  0  0  0  0  0  0  0  0
    2.7639   -5.8773    0.8234 C   0  0  0  0  0  0  0  0  0  0  0  0
    3.3516   -6.3979    1.9253 N   0  0  0  0  0  0  0  0  0  0  0  0
    3.1780   -9.6343    7.8776 H   0  0  0  0  0  0  0  0  0  0  0  0
    2.8794  -11.0041    6.8413 H   0  0  0  0  0  0  0  0  0  0  0  0
    1.6295   -9.7585    7.0020 H   0  0  0  0  0  0  0  0  0  0  0  0
    5.2602   -9.3245    6.7373 H   0  0  0  0  0  0  0  0  0  0  0  0
    4.8707  -10.4813    5.5476 H   0  0  0  0  0  0  0  0  0  0  0  0
    7.5678   -8.7045    3.5227 H   0  0  0  0  0  0  0  0  0  0  0  0
    9.3956  -10.8037    3.2889 H   0  0  0  0  0  0  0  0  0  0  0  0
    9.1809  -13.4590    4.0115 H   0  0  0  0  0  0  0  0  0  0  0  0
    6.7457  -13.5851    5.3015 H   0  0  0  0  0  0  0  0  0  0  0  0
    2.9744   -5.1647    4.1245 H   0  0  0  0  0  0  0  0  0  0  0  0
    4.7423   -3.8470    5.1130 H   0  0  0  0  0  0  0  0  0  0  0  0
    3.5053   -3.8991    6.3801 H   0  0  0  0  0  0  0  0  0  0  0  0
    6.0569   -5.4241    8.4422 H   0  0  0  0  0  0  0  0  0  0  0  0
    4.4968   -4.5986    8.4928 H   0  0  0  0  0  0  0  0  0  0  0  0
    5.8953   -3.7911    7.8055 H   0  0  0  0  0  0  0  0  0  0  0  0
    5.2437   -7.2993    6.9626 H   0  0  0  0  0  0  0  0  0  0  0  0
    2.9513   -7.5294    7.7461 H   0  0  0  0  0  0  0  0  0  0  0  0
    2.9199   -5.7870    7.7537 H   0  0  0  0  0  0  0  0  0  0  0  0
    1.4518   -6.2354    5.9147 H   0  0  0  0  0  0  0  0  0  0  0  0
    1.5444   -8.4583    4.9469 H   0  0  0  0  0  0  0  0  0  0  0  0
    3.7717   -8.6281    3.5161 H   0  0  0  0  0  0  0  0  0  0  0  0
    0.6404   -8.0576    3.1400 H   0  0  0  0  0  0  0  0  0  0  0  0
   -0.3785   -7.1461    1.1109 H   0  0  0  0  0  0  0  0  0  0  0  0
    1.0142   -5.6964   -0.4230 H   0  0  0  0  0  0  0  0  0  0  0  0
    3.3862   -5.2760    0.1784 H   0  0  0  0  0  0  0  0  0  0  0  0
    3.0860   -9.9326    5.0554 H   0  0  0  0  0  0  0  0  0  0  0  0
  1  2  1  0
  1 29  1  0
  1 30  1  0
  1 31  1  0
  2 21  1  0
  2  3  1  0
  2 54  1  6
  3  4  1  0
  3 32  1  0
  3 33  1  0
  4  5  2  3
  4 11  1  0
  5  6  1  0
  5 34  1  0
  6 10  1  0
  6  7  2  0
  7  8  1  0
  7 35  1  0
  8  9  2  0
  8 36  1  0
  9 10  1  0
  9 37  1  0
 11 12  2  0
 13 11  1  6
 13 18  1  0
 13 22  1  0
 13 14  1  0
 14 20  1  0
 14 15  1  0
 14 38  1  6
 15 16  1  0
 15 39  1  0
 15 40  1  0
 16 17  1  0
 16 18  1  0
 17 41  1  0
 17 42  1  0
 17 43  1  0
 18 19  1  0
 18 44  1  1
 19 20  1  0
 19 45  1  0
 19 46  1  0
 20 21  1  0
 20 47  1  1
 21 22  1  0
 21 48  1  6
 22 23  1  0
 22 49  1  6
 23 28  1  0
 23 24  2  0
 24 25  1  0
 24 50  1  0
 25 26  2  0
 25 51  1  0
 26 27  1  0
 26 52  1  0
 27 28  2  0
 27 53  1  0
M  CHG  1   2   1
M  END
>  <i_m_ct_stereo_status>  (44) 
1

>  <s_m_source_file>  (44) 
/var/tmp/pbs.5076255.sched01/tmpgr0kyu9k/0plolsrat.sdf

>  <i_m_source_file_index>  (44) 
20

>  <i_lp_mmshare_version>  (44) 
48012

>  <i_f3d_flags>  (44) 
0

>  <s_epik_input>  (44) 
bjFbY0hdW2NIXVtjSF1bY0hdYzFbQ0BASF0yW0NASF0oW0NASF0oW0NAQEhdM0MyNDUpW0NIMl1bQ0BASF01TihbQ0gyXTMpW0NIM10pTihbQ0gzXSlbQ0gyXS9DKEM0PU8pPVtDSF0vYzZbY0hdW2NIXVtjSF1vNg==

>  <s_epik_cmdline>  (44) 
J2VwaWtfcHl0aG9uJywgJy1waHQnLCAnMi4wJywgJy1waCcsICc3LjAnLCAnLXRuJywgJzgnLCAnLW1hJywgJzIwMCcsICctaW1hZScsICc8aW5maWxlLm1hZT4nLCAnLW9tYWUnLCAnPG91dGZpbGUubWFlPic=

>  <r_epik_Ionization_Penalty>  (44) 
0.811775

>  <r_epik_Ionization_Penalty_Charging>  (44) 
0.483781

>  <r_epik_Ionization_Penalty_Neutral>  (44) 
0.327993

>  <r_epik_State_Penalty>  (44) 
2.45389

>  <r_epik_Charging_Adjusted_Penalty>  (44) 
2.93767

>  <i_epik_Tot_Q>  (44) 
1

>  <i_epik_Tot_abs_Q>  (44) 
1

>  <s_lp_Force_Field>  (44) 
OPLS3e

>  <r_lp_Energy>  (44) 
185.362

>  <b_lp_Chiralities_Consistent>  (44) 
1

>  <s_lp_Variant>  (44) 
13:0-3

>  <s_i_glide_gridfile>  (44) 
pfpi4k_grid

>  <i_i_glide_lignum>  (44) 
20

>  <i_i_glide_rotatable_bonds>  (44) 
2

>  <r_i_docking_score>  (44) 
-1.8453

>  <r_i_glide_ligand_efficiency>  (44) 
-0.0659036

>  <r_i_glide_ligand_efficiency_sa>  (44) 
-0.200122

>  <r_i_glide_ligand_efficiency_ln>  (44) 
-0.42595

>  <r_i_glide_gscore>  (44) 
-1.8453

>  <r_i_glide_lipo>  (44) 
-0.0356747

>  <r_i_glide_hbond>  (44) 
0

>  <r_i_glide_metal>  (44) 
-0

>  <r_i_glide_rewards>  (44) 
-0.84224

>  <r_i_glide_evdw>  (44) 
-12.5566

>  <r_i_glide_ecoul>  (44) 
-3.07466

>  <r_i_glide_erotb>  (44) 
0.136583

>  <r_i_glide_esite>  (44) 
-0.0149382

>  <r_i_glide_emodel>  (44) 
-17.6804

>  <r_i_glide_energy>  (44) 
-15.6313

>  <r_i_glide_einternal>  (44) 
1.99669

>  <r_i_glide_intrahb_reward>  (44) 
-0

>  <i_i_glide_confnum>  (44) 
1

>  <i_i_glide_posenum>  (44) 
7

>  <r_i_glide_eff_state_penalty>  (44) 
0

>  <ligand_id>  (44) 
13

>  <original_smiles>  (44) 
CN1CC(=Cc2ccco2)C(=O)C23C4CN(C)C2CC4C1C3c1ccccn1

>  <smiles>  (44) 
[H]C(=C1C(=O)C23C([H])(c4nc([H])c([H])c([H])c4[H])C([H])(C4([H])C([H])([H])C2([H])N(C([H])([H])[H])C([H])([H])C43[H])[N+]([H])(C([H])([H])[H])C1([H])[H])c1oc([H])c([H])c1[H]

$$$$
14:0:0
     RDKit          3D

 52 55  0  0  1  0  0  0  0  0999 V2000
    7.8323   -2.7419   -0.5296 C   0  0  0  0  0  0  0  0  0  0  0  0
    7.3697   -2.8533   -1.8808 O   0  0  0  0  0  0  0  0  0  0  0  0
    6.0803   -3.2628   -2.1631 C   0  0  0  0  0  0  0  0  0  0  0  0
    5.8100   -3.8380   -3.2269 O   0  0  0  0  0  0  0  0  0  0  0  0
    5.0536   -2.9168   -1.1873 C   0  0  0  0  0  0  0  0  0  0  0  0
    4.8890   -1.7022   -0.6803 C   0  0  0  0  0  0  0  0  0  0  0  0
    4.5103   -0.7498   -1.8206 C   0  0  0  0  0  0  0  0  0  0  0  0
    3.1795   -1.1576   -2.5070 C   0  0  0  0  0  0  0  0  0  0  0  0
    2.8706   -2.6832   -2.5084 C   0  0  1  0  0  0  0  0  0  0  0  0
    3.0689   -3.1956   -3.9594 C   0  0  0  0  0  0  0  0  0  0  0  0
    3.6372   -3.4458   -1.3405 C   0  0  2  0  0  0  0  0  0  0  0  0
    3.0248   -3.0585    0.0556 C   0  0  2  0  0  0  0  0  0  0  0  0
    3.8517   -1.8040    0.4447 C   0  0  2  0  0  0  0  0  0  0  0  0
    3.0280   -0.6586    0.5178 O   0  0  0  0  0  0  0  0  0  0  0  0
    4.4639   -1.9872    1.7298 O   0  0  0  0  0  0  0  0  0  0  0  0
    5.2478   -3.1933    1.9159 C   0  0  0  0  0  0  0  0  0  0  0  0
    4.4284   -4.5128    1.7857 C   0  0  1  0  0  0  0  0  0  0  0  0
    5.2078   -5.5796    0.9715 C   0  0  0  0  0  0  0  0  0  0  0  0
    4.0522   -5.1337    3.1606 C   0  0  1  0  0  0  0  0  0  0  0  0
    5.1836   -5.2880    4.2021 C   0  0  0  0  0  0  0  0  0  0  0  0
    2.8935   -4.2824    3.6637 C   0  0  0  0  0  0  0  0  0  0  0  0
    2.2099   -3.7412    2.4119 C   0  0  0  0  0  0  0  0  0  0  0  0
    3.0354   -4.1567    1.1729 C   0  0  1  0  0  0  0  0  0  0  0  0
    2.3911   -5.2892    0.6483 O   0  0  0  0  0  0  0  0  0  0  0  0
    8.9015   -2.4994   -0.4662 H   0  0  0  0  0  0  0  0  0  0  0  0
    7.6467   -3.6745    0.0119 H   0  0  0  0  0  0  0  0  0  0  0  0
    7.3078   -1.9242   -0.0202 H   0  0  0  0  0  0  0  0  0  0  0  0
    4.3414    0.2054   -1.3524 H   0  0  0  0  0  0  0  0  0  0  0  0
    5.3032   -0.6566   -2.5629 H   0  0  0  0  0  0  0  0  0  0  0  0
    2.4009   -0.6491   -1.9613 H   0  0  0  0  0  0  0  0  0  0  0  0
    3.1036   -0.7129   -3.5007 H   0  0  0  0  0  0  0  0  0  0  0  0
    1.7888   -2.8016   -2.3461 H   0  0  0  0  0  0  0  0  0  0  0  0
    4.0175   -2.8843   -4.4000 H   0  0  0  0  0  0  0  0  0  0  0  0
    2.2888   -2.8149   -4.6199 H   0  0  0  0  0  0  0  0  0  0  0  0
    2.9969   -4.2791   -3.9662 H   0  0  0  0  0  0  0  0  0  0  0  0
    3.6982   -4.5055   -1.5032 H   0  0  0  0  0  0  0  0  0  0  0  0
    1.9771   -2.7449   -0.0840 H   0  0  0  0  0  0  0  0  0  0  0  0
    2.1677   -0.8237    0.0646 H   0  0  0  0  0  0  0  0  0  0  0  0
    6.0494   -3.2586    1.2234 H   0  0  0  0  0  0  0  0  0  0  0  0
    5.7286   -3.1341    2.9109 H   0  0  0  0  0  0  0  0  0  0  0  0
    4.7053   -6.5439    0.9361 H   0  0  0  0  0  0  0  0  0  0  0  0
    6.1972   -5.7735    1.4011 H   0  0  0  0  0  0  0  0  0  0  0  0
    5.3816   -5.2919   -0.0674 H   0  0  0  0  0  0  0  0  0  0  0  0
    3.6522   -6.1306    2.9788 H   0  0  0  0  0  0  0  0  0  0  0  0
    5.5315   -4.3385    4.6131 H   0  0  0  0  0  0  0  0  0  0  0  0
    6.0464   -5.8057    3.7864 H   0  0  0  0  0  0  0  0  0  0  0  0
    4.8341   -5.8675    5.0630 H   0  0  0  0  0  0  0  0  0  0  0  0
    2.2047   -4.8722    4.2754 H   0  0  0  0  0  0  0  0  0  0  0  0
    3.2449   -3.4409    4.2690 H   0  0  0  0  0  0  0  0  0  0  0  0
    1.1828   -4.1220    2.3742 H   0  0  0  0  0  0  0  0  0  0  0  0
    2.1406   -2.6522    2.4788 H   0  0  0  0  0  0  0  0  0  0  0  0
    2.8660   -5.5603   -0.1454 H   0  0  0  0  0  0  0  0  0  0  0  0
  1  2  1  0
  1 25  1  0
  1 26  1  0
  1 27  1  0
  2  3  1  0
  3  4  2  0
  3  5  1  0
  5 11  1  0
  5  6  2  0
  6 13  1  0
  6  7  1  0
  7  8  1  0
  7 28  1  0
  7 29  1  0
  8  9  1  0
  8 30  1  0
  8 31  1  0
  9 10  1  0
  9 11  1  0
  9 32  1  1
 10 33  1  0
 10 34  1  0
 10 35  1  0
 11 12  1  0
 11 36  1  6
 12 23  1  0
 12 13  1  0
 12 37  1  6
 13 14  1  1
 13 15  1  0
 14 38  1  0
 15 16  1  0
 16 17  1  0
 16 39  1  0
 16 40  1  0
 17 23  1  0
 17 18  1  6
 17 19  1  0
 18 41  1  0
 18 42  1  0
 18 43  1  0
 19 20  1  0
 19 21  1  0
 19 44  1  6
 20 45  1  0
 20 46  1  0
 20 47  1  0
 21 22  1  0
 21 48  1  0
 21 49  1  0
 22 23  1  0
 22 50  1  0
 22 51  1  0
 23 24  1  6
 24 52  1  0
M  END
>  <i_m_ct_stereo_status>  (45) 
1

>  <s_m_source_file>  (45) 
/var/tmp/pbs.5076255.sched01/tmpgr0kyu9k/0plolsrat.sdf

>  <i_m_source_file_index>  (45) 
21

>  <i_lp_mmshare_version>  (45) 
48012

>  <i_f3d_flags>  (45) 
0

>  <s_epik_input>  (45) 
W0NIM11PQyg9TylDKD1DMVtDQEBdMjNbT0hdKVtDQEhdKFtDQEhdKFtDSDNdKVtDSDJdW0NIMl0xKVtDQEhdMltDQEBdNChbT0hdKVtDQF0oW0NIMl1PMykoW0NIM10pW0NAQEhdKFtDSDNdKVtDSDJdW0NIMl00

>  <s_epik_cmdline>  (45) 
J2VwaWtfcHl0aG9uJywgJy1waHQnLCAnMi4wJywgJy1waCcsICc3LjAnLCAnLXRuJywgJzgnLCAnLW1hJywgJzIwMCcsICctaW1hZScsICc8aW5maWxlLm1hZT4nLCAnLW9tYWUnLCAnPG91dGZpbGUubWFlPic=

>  <r_lp_tautomer_probability>  (45) 
1

>  <r_epik_Ionization_Penalty>  (45) 
1.17535e-05

>  <r_epik_Ionization_Penalty_Charging>  (45) 
0

>  <r_epik_Ionization_Penalty_Neutral>  (45) 
1.17535e-05

>  <r_epik_State_Penalty>  (45) 
-0

>  <r_epik_Charging_Adjusted_Penalty>  (45) 
0

>  <i_epik_Tot_Q>  (45) 
0

>  <i_epik_Tot_abs_Q>  (45) 
0

>  <s_epik_Chemistry_Notes>  (45) 
This compound has an ester and may undergo hydrolysis at high or low pH.

>  <s_lp_Force_Field>  (45) 
OPLS3e

>  <r_lp_Energy>  (45) 
83.1066

>  <b_lp_Chiralities_Consistent>  (45) 
1

>  <s_lp_Variant>  (45) 
14:0-1

>  <s_i_glide_gridfile>  (45) 
pfpi4k_grid

>  <i_i_glide_lignum>  (45) 
21

>  <i_i_glide_rotatable_bonds>  (45) 
4

>  <r_i_docking_score>  (45) 
-3.60801

>  <r_i_glide_ligand_efficiency>  (45) 
-0.150334

>  <r_i_glide_ligand_efficiency_sa>  (45) 
-0.433638

>  <r_i_glide_ligand_efficiency_ln>  (45) 
-0.863563

>  <r_i_glide_gscore>  (45) 
-3.60801

>  <r_i_glide_lipo>  (45) 
-0.259133

>  <r_i_glide_hbond>  (45) 
-0.0644433

>  <r_i_glide_metal>  (45) 
-0

>  <r_i_glide_rewards>  (45) 
-1.43259

>  <r_i_glide_evdw>  (45) 
-18.9066

>  <r_i_glide_ecoul>  (45) 
-6.94213

>  <r_i_glide_erotb>  (45) 
0.166868

>  <r_i_glide_esite>  (45) 
-0.0320686

>  <r_i_glide_emodel>  (45) 
-26.5967

>  <r_i_glide_energy>  (45) 
-25.8487

>  <r_i_glide_einternal>  (45) 
8.83862

>  <r_i_glide_intrahb_reward>  (45) 
-0

>  <i_i_glide_confnum>  (45) 
1

>  <i_i_glide_posenum>  (45) 
1

>  <r_i_glide_eff_state_penalty>  (45) 
0

>  <ligand_id>  (45) 
14

>  <original_smiles>  (45) 
COC(=O)C1=C2CCC(C)C1C1C2(O)OCC2(C)C(C)CCC12O

>  <smiles>  (45) 
[H]OC12OC([H])([H])C3(C([H])([H])[H])C([H])(C([H])([H])[H])C([H])([H])C([H])([H])C3(O[H])C1([H])C1([H])C(C(=O)OC([H])([H])[H])=C2C([H])([H])C([H])([H])C1([H])C([H])([H])[H]

$$$$
14:0:1
     RDKit          3D

 52 55  0  0  1  0  0  0  0  0999 V2000
    8.9823   -2.9644   -0.1941 C   0  0  0  0  0  0  0  0  0  0  0  0
    7.7417   -2.9186    0.4800 O   0  0  0  0  0  0  0  0  0  0  0  0
    6.6147   -3.2043   -0.1893 C   0  0  0  0  0  0  0  0  0  0  0  0
    6.5755   -3.4496   -1.3936 O   0  0  0  0  0  0  0  0  0  0  0  0
    5.4294   -3.2469    0.6996 C   0  0  0  0  0  0  0  0  0  0  0  0
    5.3271   -2.7228    1.9244 C   0  0  0  0  0  0  0  0  0  0  0  0
    5.3243   -1.1914    1.8395 C   0  0  0  0  0  0  0  0  0  0  0  0
    4.1519   -0.7219    0.9079 C   0  0  0  0  0  0  0  0  0  0  0  0
    3.7314   -1.7277   -0.2325 C   0  0  1  0  0  0  0  0  0  0  0  0
    4.2698   -1.2837   -1.6085 C   0  0  0  0  0  0  0  0  0  0  0  0
    4.0442   -3.2259    0.1191 C   0  0  2  0  0  0  0  0  0  0  0  0
    3.1697   -3.6950    1.3243 C   0  0  2  0  0  0  0  0  0  0  0  0
    4.0532   -3.3090    2.5530 C   0  0  2  0  0  0  0  0  0  0  0  0
    3.3602   -2.3680    3.3506 O   0  0  0  0  0  0  0  0  0  0  0  0
    4.3453   -4.4260    3.3482 O   0  0  0  0  0  0  0  0  0  0  0  0
    4.8543   -5.6032    2.7189 C   0  0  0  0  0  0  0  0  0  0  0  0
    3.8705   -6.2231    1.6881 C   0  0  1  0  0  0  0  0  0  0  0  0
    4.6718   -6.6684    0.4473 C   0  0  0  0  0  0  0  0  0  0  0  0
    3.0679   -7.4370    2.2366 C   0  0  1  0  0  0  0  0  0  0  0  0
    3.8406   -8.5482    2.9771 C   0  0  0  0  0  0  0  0  0  0  0  0
    1.9186   -6.8490    3.0534 C   0  0  0  0  0  0  0  0  0  0  0  0
    1.6585   -5.4620    2.4627 C   0  0  0  0  0  0  0  0  0  0  0  0
    2.7388   -5.1965    1.3799 C   0  0  1  0  0  0  0  0  0  0  0  0
    2.0752   -5.4901    0.1582 O   0  0  0  0  0  0  0  0  0  0  0  0
    9.7852   -2.6955    0.4941 H   0  0  0  0  0  0  0  0  0  0  0  0
    8.9931   -2.2537   -1.0211 H   0  0  0  0  0  0  0  0  0  0  0  0
    9.1846   -3.9615   -0.5917 H   0  0  0  0  0  0  0  0  0  0  0  0
    5.2549   -0.7294    2.8275 H   0  0  0  0  0  0  0  0  0  0  0  0
    6.2690   -0.8548    1.4148 H   0  0  0  0  0  0  0  0  0  0  0  0
    3.2729   -0.5373    1.5327 H   0  0  0  0  0  0  0  0  0  0  0  0
    4.3921    0.2586    0.4895 H   0  0  0  0  0  0  0  0  0  0  0  0
    2.6501   -1.6466   -0.3262 H   0  0  0  0  0  0  0  0  0  0  0  0
    5.3532   -1.1736   -1.6213 H   0  0  0  0  0  0  0  0  0  0  0  0
    3.8584   -0.3193   -1.9048 H   0  0  0  0  0  0  0  0  0  0  0  0
    3.9885   -1.9994   -2.3811 H   0  0  0  0  0  0  0  0  0  0  0  0
    3.9503   -3.8696   -0.7525 H   0  0  0  0  0  0  0  0  0  0  0  0
    2.2585   -3.0976    1.3425 H   0  0  0  0  0  0  0  0  0  0  0  0
    2.5213   -2.7430    3.5629 H   0  0  0  0  0  0  0  0  0  0  0  0
    5.8189   -5.3897    2.2609 H   0  0  0  0  0  0  0  0  0  0  0  0
    5.0986   -6.3072    3.5101 H   0  0  0  0  0  0  0  0  0  0  0  0
    4.0579   -7.1841   -0.2837 H   0  0  0  0  0  0  0  0  0  0  0  0
    5.4643   -7.3597    0.7295 H   0  0  0  0  0  0  0  0  0  0  0  0
    5.1387   -5.8358   -0.0716 H   0  0  0  0  0  0  0  0  0  0  0  0
    2.5991   -7.9202    1.3786 H   0  0  0  0  0  0  0  0  0  0  0  0
    4.1958   -8.2322    3.9580 H   0  0  0  0  0  0  0  0  0  0  0  0
    4.6987   -8.8921    2.4001 H   0  0  0  0  0  0  0  0  0  0  0  0
    3.1992   -9.4157    3.1460 H   0  0  0  0  0  0  0  0  0  0  0  0
    1.0335   -7.4870    3.0090 H   0  0  0  0  0  0  0  0  0  0  0  0
    2.1981   -6.7535    4.1034 H   0  0  0  0  0  0  0  0  0  0  0  0
    0.6447   -5.4093    2.0706 H   0  0  0  0  0  0  0  0  0  0  0  0
    1.7111   -4.7307    3.2677 H   0  0  0  0  0  0  0  0  0  0  0  0
    2.7079   -5.4550   -0.5461 H   0  0  0  0  0  0  0  0  0  0  0  0
  1  2  1  0
  1 25  1  0
  1 26  1  0
  1 27  1  0
  2  3  1  0
  3  4  2  0
  3  5  1  0
  5 11  1  0
  5  6  2  0
  6 13  1  0
  6  7  1  0
  7  8  1  0
  7 28  1  0
  7 29  1  0
  8  9  1  0
  8 30  1  0
  8 31  1  0
  9 10  1  0
  9 11  1  0
  9 32  1  6
 10 33  1  0
 10 34  1  0
 10 35  1  0
 11 12  1  0
 11 36  1  6
 12 23  1  0
 12 13  1  0
 12 37  1  1
 13 14  1  1
 13 15  1  0
 14 38  1  0
 15 16  1  0
 16 17  1  0
 16 39  1  0
 16 40  1  0
 17 23  1  0
 17 18  1  6
 17 19  1  0
 18 41  1  0
 18 42  1  0
 18 43  1  0
 19 20  1  0
 19 21  1  0
 19 44  1  6
 20 45  1  0
 20 46  1  0
 20 47  1  0
 21 22  1  0
 21 48  1  0
 21 49  1  0
 22 23  1  0
 22 50  1  0
 22 51  1  0
 23 24  1  6
 24 52  1  0
M  END
>  <i_m_ct_stereo_status>  (46) 
1

>  <s_m_source_file>  (46) 
/var/tmp/pbs.5076255.sched01/tmpgr0kyu9k/0plolsrat.sdf

>  <i_m_source_file_index>  (46) 
21

>  <i_lp_mmshare_version>  (46) 
48012

>  <i_f3d_flags>  (46) 
0

>  <s_epik_input>  (46) 
W0NIM11PQyg9TylDKD1DMVtDQEBdMjNbT0hdKVtDQEhdKFtDQEhdKFtDSDNdKVtDSDJdW0NIMl0xKVtDQEhdMltDQEBdNChbT0hdKVtDQF0oW0NIMl1PMykoW0NIM10pW0NAQEhdKFtDSDNdKVtDSDJdW0NIMl00

>  <s_epik_cmdline>  (46) 
J2VwaWtfcHl0aG9uJywgJy1waHQnLCAnMi4wJywgJy1waCcsICc3LjAnLCAnLXRuJywgJzgnLCAnLW1hJywgJzIwMCcsICctaW1hZScsICc8aW5maWxlLm1hZT4nLCAnLW9tYWUnLCAnPG91dGZpbGUubWFlPic=

>  <r_lp_tautomer_probability>  (46) 
1

>  <r_epik_Ionization_Penalty>  (46) 
1.17535e-05

>  <r_epik_Ionization_Penalty_Charging>  (46) 
0

>  <r_epik_Ionization_Penalty_Neutral>  (46) 
1.17535e-05

>  <r_epik_State_Penalty>  (46) 
-0

>  <r_epik_Charging_Adjusted_Penalty>  (46) 
0

>  <i_epik_Tot_Q>  (46) 
0

>  <i_epik_Tot_abs_Q>  (46) 
0

>  <s_epik_Chemistry_Notes>  (46) 
This compound has an ester and may undergo hydrolysis at high or low pH.

>  <s_lp_Force_Field>  (46) 
OPLS3e

>  <r_lp_Energy>  (46) 
83.1066

>  <b_lp_Chiralities_Consistent>  (46) 
1

>  <s_lp_Variant>  (46) 
14:0-1

>  <s_i_glide_gridfile>  (46) 
pfpi4k_grid

>  <i_i_glide_lignum>  (46) 
21

>  <i_i_glide_rotatable_bonds>  (46) 
4

>  <r_i_docking_score>  (46) 
-3.5942

>  <r_i_glide_ligand_efficiency>  (46) 
-0.149758

>  <r_i_glide_ligand_efficiency_sa>  (46) 
-0.431978

>  <r_i_glide_ligand_efficiency_ln>  (46) 
-0.860258

>  <r_i_glide_gscore>  (46) 
-3.5942

>  <r_i_glide_lipo>  (46) 
-0.472159

>  <r_i_glide_hbond>  (46) 
-0.189228

>  <r_i_glide_metal>  (46) 
-0

>  <r_i_glide_rewards>  (46) 
-1.2509

>  <r_i_glide_evdw>  (46) 
-24.776

>  <r_i_glide_ecoul>  (46) 
-4.0666

>  <r_i_glide_erotb>  (46) 
0.166868

>  <r_i_glide_esite>  (46) 
0

>  <r_i_glide_emodel>  (46) 
-34.9784

>  <r_i_glide_energy>  (46) 
-28.8426

>  <r_i_glide_einternal>  (46) 
0.525837

>  <r_i_glide_intrahb_reward>  (46) 
-0

>  <i_i_glide_confnum>  (46) 
1

>  <i_i_glide_posenum>  (46) 
18

>  <r_i_glide_eff_state_penalty>  (46) 
0

>  <ligand_id>  (46) 
14

>  <original_smiles>  (46) 
COC(=O)C1=C2CCC(C)C1C1C2(O)OCC2(C)C(C)CCC12O

>  <smiles>  (46) 
[H]OC12OC([H])([H])C3(C([H])([H])[H])C([H])(C([H])([H])[H])C([H])([H])C([H])([H])C3(O[H])C1([H])C1([H])C(C(=O)OC([H])([H])[H])=C2C([H])([H])C([H])([H])C1([H])C([H])([H])[H]

$$$$
14:0:2
     RDKit          3D

 52 55  0  0  1  0  0  0  0  0999 V2000
    8.0866   -2.5903    0.0755 C   0  0  0  0  0  0  0  0  0  0  0  0
    7.7300   -2.7179   -1.2962 O   0  0  0  0  0  0  0  0  0  0  0  0
    6.4613   -3.0598   -1.7250 C   0  0  0  0  0  0  0  0  0  0  0  0
    6.2534   -3.4301   -2.9070 O   0  0  0  0  0  0  0  0  0  0  0  0
    5.3706   -2.9993   -0.7466 C   0  0  0  0  0  0  0  0  0  0  0  0
    5.1415   -1.9457    0.0695 C   0  0  0  0  0  0  0  0  0  0  0  0
    4.7131   -0.7490   -0.7702 C   0  0  0  0  0  0  0  0  0  0  0  0
    3.4344   -1.0900   -1.5917 C   0  0  0  0  0  0  0  0  0  0  0  0
    3.2237   -2.5931   -1.9862 C   0  0  1  0  0  0  0  0  0  0  0  0
    3.4901   -2.7888   -3.4968 C   0  0  0  0  0  0  0  0  0  0  0  0
    4.0070   -3.5714   -1.0088 C   0  0  2  0  0  0  0  0  0  0  0  0
    3.3408   -3.5435    0.4206 C   0  0  2  0  0  0  0  0  0  0  0  0
    4.1260   -2.3869    1.1310 C   0  0  2  0  0  0  0  0  0  0  0  0
    3.2508   -1.3240    1.4632 O   0  0  0  0  0  0  0  0  0  0  0  0
    4.7432   -2.8477    2.3190 O   0  0  0  0  0  0  0  0  0  0  0  0
    5.5463   -4.0331    2.2757 C   0  0  0  0  0  0  0  0  0  0  0  0
    4.7808   -5.3005    1.8257 C   0  0  1  0  0  0  0  0  0  0  0  0
    5.6221   -6.1246    0.8108 C   0  0  0  0  0  0  0  0  0  0  0  0
    4.4044   -6.2300    3.0159 C   0  0  1  0  0  0  0  0  0  0  0  0
    5.5302   -6.5767    4.0219 C   0  0  0  0  0  0  0  0  0  0  0  0
    3.1835   -5.5683    3.6570 C   0  0  0  0  0  0  0  0  0  0  0  0
    2.4891   -4.7797    2.5375 C   0  0  0  0  0  0  0  0  0  0  0  0
    3.3849   -4.8611    1.2776 C   0  0  1  0  0  0  0  0  0  0  0  0
    2.7928   -5.8779    0.4806 O   0  0  0  0  0  0  0  0  0  0  0  0
    9.1438   -2.3626    0.1904 H   0  0  0  0  0  0  0  0  0  0  0  0
    7.8828   -3.5220    0.5792 H   0  0  0  0  0  0  0  0  0  0  0  0
    7.5363   -1.7562    0.4852 H   0  0  0  0  0  0  0  0  0  0  0  0
    4.5496    0.1171   -0.1281 H   0  0  0  0  0  0  0  0  0  0  0  0
    5.5061   -0.4754   -1.4635 H   0  0  0  0  0  0  0  0  0  0  0  0
    2.6137   -0.8006   -0.9435 H   0  0  0  0  0  0  0  0  0  0  0  0
    3.3366   -0.4361   -2.4564 H   0  0  0  0  0  0  0  0  0  0  0  0
    2.1489   -2.7971   -1.8848 H   0  0  0  0  0  0  0  0  0  0  0  0
    4.4429   -2.3693   -3.8115 H   0  0  0  0  0  0  0  0  0  0  0  0
    2.7534   -2.2547   -4.0982 H   0  0  0  0  0  0  0  0  0  0  0  0
    3.4501   -3.8493   -3.7558 H   0  0  0  0  0  0  0  0  0  0  0  0
    4.0702   -4.5785   -1.4296 H   0  0  0  0  0  0  0  0  0  0  0  0
    2.2878   -3.2454    0.3370 H   0  0  0  0  0  0  0  0  0  0  0  0
    3.7703   -0.6074    1.7910 H   0  0  0  0  0  0  0  0  0  0  0  0
    6.3472   -3.9370    1.5776 H   0  0  0  0  0  0  0  0  0  0  0  0
    6.0113   -4.1840    3.2463 H   0  0  0  0  0  0  0  0  0  0  0  0
    5.1580   -7.0791    0.5406 H   0  0  0  0  0  0  0  0  0  0  0  0
    6.6068   -6.3686    1.2097 H   0  0  0  0  0  0  0  0  0  0  0  0
    5.7937   -5.5938   -0.1227 H   0  0  0  0  0  0  0  0  0  0  0  0
    4.0584   -7.1890    2.5966 H   0  0  0  0  0  0  0  0  0  0  0  0
    5.8304   -5.7312    4.6415 H   0  0  0  0  0  0  0  0  0  0  0  0
    6.4224   -6.9492    3.5172 H   0  0  0  0  0  0  0  0  0  0  0  0
    5.1986   -7.3509    4.7117 H   0  0  0  0  0  0  0  0  0  0  0  0
    2.5262   -6.3166    4.0973 H   0  0  0  0  0  0  0  0  0  0  0  0
    3.4953   -4.8855    4.4494 H   0  0  0  0  0  0  0  0  0  0  0  0
    1.4824   -5.1477    2.3449 H   0  0  0  0  0  0  0  0  0  0  0  0
    2.3906   -3.7428    2.8588 H   0  0  0  0  0  0  0  0  0  0  0  0
    3.2316   -5.8645   -0.3595 H   0  0  0  0  0  0  0  0  0  0  0  0
  1  2  1  0
  1 25  1  0
  1 26  1  0
  1 27  1  0
  2  3  1  0
  3  4  2  0
  3  5  1  0
  5 11  1  0
  5  6  2  0
  6 13  1  0
  6  7  1  0
  7  8  1  0
  7 28  1  0
  7 29  1  0
  8  9  1  0
  8 30  1  0
  8 31  1  0
  9 10  1  0
  9 11  1  0
  9 32  1  6
 10 33  1  0
 10 34  1  0
 10 35  1  0
 11 12  1  0
 11 36  1  6
 12 23  1  0
 12 13  1  0
 12 37  1  6
 13 14  1  1
 13 15  1  0
 14 38  1  0
 15 16  1  0
 16 17  1  0
 16 39  1  0
 16 40  1  0
 17 23  1  0
 17 18  1  6
 17 19  1  0
 18 41  1  0
 18 42  1  0
 18 43  1  0
 19 20  1  0
 19 21  1  0
 19 44  1  6
 20 45  1  0
 20 46  1  0
 20 47  1  0
 21 22  1  0
 21 48  1  0
 21 49  1  0
 22 23  1  0
 22 50  1  0
 22 51  1  0
 23 24  1  6
 24 52  1  0
M  END
>  <i_m_ct_stereo_status>  (47) 
1

>  <s_m_source_file>  (47) 
/var/tmp/pbs.5076255.sched01/tmpgr0kyu9k/0plolsrat.sdf

>  <i_m_source_file_index>  (47) 
21

>  <i_lp_mmshare_version>  (47) 
48012

>  <i_f3d_flags>  (47) 
0

>  <s_epik_input>  (47) 
W0NIM11PQyg9TylDKD1DMVtDQEBdMjNbT0hdKVtDQEhdKFtDQEhdKFtDSDNdKVtDSDJdW0NIMl0xKVtDQEhdMltDQEBdNChbT0hdKVtDQF0oW0NIMl1PMykoW0NIM10pW0NAQEhdKFtDSDNdKVtDSDJdW0NIMl00

>  <s_epik_cmdline>  (47) 
J2VwaWtfcHl0aG9uJywgJy1waHQnLCAnMi4wJywgJy1waCcsICc3LjAnLCAnLXRuJywgJzgnLCAnLW1hJywgJzIwMCcsICctaW1hZScsICc8aW5maWxlLm1hZT4nLCAnLW9tYWUnLCAnPG91dGZpbGUubWFlPic=

>  <r_lp_tautomer_probability>  (47) 
1

>  <r_epik_Ionization_Penalty>  (47) 
1.17535e-05

>  <r_epik_Ionization_Penalty_Charging>  (47) 
0

>  <r_epik_Ionization_Penalty_Neutral>  (47) 
1.17535e-05

>  <r_epik_State_Penalty>  (47) 
-0

>  <r_epik_Charging_Adjusted_Penalty>  (47) 
0

>  <i_epik_Tot_Q>  (47) 
0

>  <i_epik_Tot_abs_Q>  (47) 
0

>  <s_epik_Chemistry_Notes>  (47) 
This compound has an ester and may undergo hydrolysis at high or low pH.

>  <s_lp_Force_Field>  (47) 
OPLS3e

>  <r_lp_Energy>  (47) 
83.1066

>  <b_lp_Chiralities_Consistent>  (47) 
1

>  <s_lp_Variant>  (47) 
14:0-1

>  <s_i_glide_gridfile>  (47) 
pfpi4k_grid

>  <i_i_glide_lignum>  (47) 
21

>  <i_i_glide_rotatable_bonds>  (47) 
4

>  <r_i_docking_score>  (47) 
-3.24659

>  <r_i_glide_ligand_efficiency>  (47) 
-0.135274

>  <r_i_glide_ligand_efficiency_sa>  (47) 
-0.390199

>  <r_i_glide_ligand_efficiency_ln>  (47) 
-0.777057

>  <r_i_glide_gscore>  (47) 
-3.24659

>  <r_i_glide_lipo>  (47) 
-0.506801

>  <r_i_glide_hbond>  (47) 
-0.24684

>  <r_i_glide_metal>  (47) 
-0

>  <r_i_glide_rewards>  (47) 
-1.19092

>  <r_i_glide_evdw>  (47) 
-23.969

>  <r_i_glide_ecoul>  (47) 
-1.79013

>  <r_i_glide_erotb>  (47) 
0.166868

>  <r_i_glide_esite>  (47) 
-0.00192719

>  <r_i_glide_emodel>  (47) 
-26.6124

>  <r_i_glide_energy>  (47) 
-25.7591

>  <r_i_glide_einternal>  (47) 
6.99371

>  <r_i_glide_intrahb_reward>  (47) 
-0

>  <i_i_glide_confnum>  (47) 
1

>  <i_i_glide_posenum>  (47) 
9

>  <r_i_glide_eff_state_penalty>  (47) 
0

>  <ligand_id>  (47) 
14

>  <original_smiles>  (47) 
COC(=O)C1=C2CCC(C)C1C1C2(O)OCC2(C)C(C)CCC12O

>  <smiles>  (47) 
[H]OC12OC([H])([H])C3(C([H])([H])[H])C([H])(C([H])([H])[H])C([H])([H])C([H])([H])C3(O[H])C1([H])C1([H])C(C(=O)OC([H])([H])[H])=C2C([H])([H])C([H])([H])C1([H])C([H])([H])[H]

$$$$
16:0:0
     RDKit          3D

 52 56  0  0  1  0  0  0  0  0999 V2000
    2.4879    0.5017    3.7778 C   0  0  0  0  0  0  0  0  0  0  0  0
    3.8074    0.5870    4.2568 O   0  0  0  0  0  0  0  0  0  0  0  0
    4.8666   -0.0738    3.7453 C   0  0  0  0  0  0  0  0  0  0  0  0
    6.0074    0.1082    4.1498 O   0  0  0  0  0  0  0  0  0  0  0  0
    4.6432   -1.1749    2.7252 C   0  0  2  0  0  0  0  0  0  0  0  0
    5.4602   -1.0144    1.5565 O   0  0  0  0  0  0  0  0  0  0  0  0
    4.0458   -1.2908    1.3768 C   0  0  2  0  0  0  0  0  0  0  0  0
    3.0482   -0.3432    1.0432 O   0  0  0  0  0  0  0  0  0  0  0  0
    3.5488   -2.6995    1.6488 C   0  0  2  0  0  0  0  0  0  0  0  0
    2.1564   -2.6860    1.7995 O   0  0  0  0  0  0  0  0  0  0  0  0
    4.1360   -2.5458    3.0946 C   0  0  1  0  0  0  0  0  0  0  0  0
    5.1044   -3.4780    3.8036 C   0  0  0  0  0  0  0  0  0  0  0  0
    5.1219   -4.8206    3.8385 C   0  0  0  0  0  0  0  0  0  0  0  0
    6.0790   -5.6101    4.7142 C   0  0  0  0  0  0  0  0  0  0  0  0
    4.1965   -5.6368    3.0463 C   0  0  0  0  0  0  0  0  0  0  0  0
    3.1855   -6.1365    3.5584 O   0  0  0  0  0  0  0  0  0  0  0  0
    4.4893   -5.8870    1.5468 C   0  0  2  0  0  0  0  0  0  0  0  0
    4.2274   -7.2470    1.2600 O   0  0  0  0  0  0  0  0  0  0  0  0
    5.9866   -5.6650    1.1417 C   0  0  0  0  0  0  0  0  0  0  0  0
    6.3865   -4.2066    0.8155 C   0  0  0  0  0  0  0  0  0  0  0  0
    5.3037   -3.6977   -0.1212 C   0  0  2  0  0  0  0  0  0  0  0  0
    5.5252   -2.4772   -0.9973 C   0  0  0  0  0  0  0  0  0  0  0  0
    6.5969   -1.9043   -1.1799 O   0  0  0  0  0  0  0  0  0  0  0  0
    4.1738   -2.0565   -1.5695 C   0  0  1  0  0  0  0  0  0  0  0  0
    4.1631   -2.0636   -3.0988 C   0  0  0  0  0  0  0  0  0  0  0  0
    3.1980   -3.0666   -0.8887 C   0  0  0  0  0  0  0  0  0  0  0  0
    3.8718   -3.6386    0.4179 C   0  0  2  0  0  0  0  0  0  0  0  0
    3.4832   -5.1226    0.6512 C   0  0  0  0  0  0  0  0  0  0  0  0
    1.8424    1.1315    4.4018 H   0  0  0  0  0  0  0  0  0  0  0  0
    2.1676   -0.5350    3.8806 H   0  0  0  0  0  0  0  0  0  0  0  0
    2.4590    0.8782    2.7583 H   0  0  0  0  0  0  0  0  0  0  0  0
    2.6333   -0.5736    0.2084 H   0  0  0  0  0  0  0  0  0  0  0  0
    1.8489   -1.9186    1.3403 H   0  0  0  0  0  0  0  0  0  0  0  0
    3.3504   -2.4335    3.8551 H   0  0  0  0  0  0  0  0  0  0  0  0
    5.8211   -2.9650    4.4209 H   0  0  0  0  0  0  0  0  0  0  0  0
    6.6758   -6.3284    4.1390 H   0  0  0  0  0  0  0  0  0  0  0  0
    5.5024   -6.1757    5.4517 H   0  0  0  0  0  0  0  0  0  0  0  0
    6.7655   -4.9566    5.2573 H   0  0  0  0  0  0  0  0  0  0  0  0
    4.7506   -7.7688    1.8482 H   0  0  0  0  0  0  0  0  0  0  0  0
    6.6603   -6.0824    1.8897 H   0  0  0  0  0  0  0  0  0  0  0  0
    6.1534   -6.2537    0.2383 H   0  0  0  0  0  0  0  0  0  0  0  0
    6.5082   -3.5877    1.7016 H   0  0  0  0  0  0  0  0  0  0  0  0
    7.3527   -4.1878    0.3043 H   0  0  0  0  0  0  0  0  0  0  0  0
    5.2746   -4.4522   -0.9010 H   0  0  0  0  0  0  0  0  0  0  0  0
    3.9941   -1.0321   -1.2594 H   0  0  0  0  0  0  0  0  0  0  0  0
    4.8698   -1.3353   -3.4969 H   0  0  0  0  0  0  0  0  0  0  0  0
    3.1776   -1.8006   -3.4825 H   0  0  0  0  0  0  0  0  0  0  0  0
    4.4368   -3.0404   -3.4948 H   0  0  0  0  0  0  0  0  0  0  0  0
    2.2144   -2.6449   -0.7061 H   0  0  0  0  0  0  0  0  0  0  0  0
    3.0145   -3.8616   -1.6186 H   0  0  0  0  0  0  0  0  0  0  0  0
    3.4435   -5.6353   -0.3179 H   0  0  0  0  0  0  0  0  0  0  0  0
    2.4722   -5.2049    1.0542 H   0  0  0  0  0  0  0  0  0  0  0  0
  1  2  1  0
  1 29  1  0
  1 30  1  0
  1 31  1  0
  2  3  1  0
  3  4  2  0
  5  3  1  1
  5  7  1  0
  5 11  1  0
  5  6  1  0
  6  7  1  0
  7  8  1  1
  7  9  1  0
  8 32  1  0
  9 27  1  0
  9 10  1  1
  9 11  1  0
 10 33  1  0
 11 12  1  0
 11 34  1  1
 12 13  2  3
 12 35  1  0
 13 14  1  0
 13 15  1  0
 14 36  1  0
 14 37  1  0
 14 38  1  0
 15 16  2  0
 15 17  1  0
 17 28  1  0
 17 18  1  1
 17 19  1  0
 18 39  1  0
 19 20  1  0
 19 40  1  0
 19 41  1  0
 20 21  1  0
 20 42  1  0
 20 43  1  0
 21 27  1  0
 21 22  1  0
 21 44  1  6
 22 23  2  0
 22 24  1  0
 24 25  1  0
 24 26  1  0
 24 45  1  1
 25 46  1  0
 25 47  1  0
 25 48  1  0
 27 26  1  6
 26 49  1  0
 26 50  1  0
 27 28  1  0
 28 51  1  0
 28 52  1  0
M  END
>  <i_m_ct_stereo_status>  (48) 
1

>  <s_m_source_file>  (48) 
/var/tmp/pbs.5076255.sched01/tmpgr0kyu9k/0plolsrat.sdf

>  <i_m_source_file_index>  (48) 
23

>  <i_lp_mmshare_version>  (48) 
48012

>  <i_f3d_flags>  (48) 
0

>  <s_epik_input>  (48) 
W0NIM11PQyg9TylbQ0BdKE8xKShbQ0BdMShbT0hdKVtDQF0yKFtDQF0zNDUpW09IXSlbQ0BASF0yL1tDSF09QygvW0NIM10pQyg9TylbQ0BAXShbT0hdKShbQ0gyXTUpW0NIMl1bQ0gyXVtDQEBIXTNDKD1PKVtDQEBIXShbQ0gzXSlbQ0gyXTQ=

>  <s_epik_cmdline>  (48) 
J2VwaWtfcHl0aG9uJywgJy1waHQnLCAnMi4wJywgJy1waCcsICc3LjAnLCAnLXRuJywgJzgnLCAnLW1hJywgJzIwMCcsICctaW1hZScsICc8aW5maWxlLm1hZT4nLCAnLW9tYWUnLCAnPG91dGZpbGUubWFlPic=

>  <r_lp_tautomer_probability>  (48) 
1

>  <r_epik_Ionization_Penalty>  (48) 
0.000254995

>  <r_epik_Ionization_Penalty_Charging>  (48) 
0

>  <r_epik_Ionization_Penalty_Neutral>  (48) 
0.000254995

>  <r_epik_State_Penalty>  (48) 
-0

>  <r_epik_Charging_Adjusted_Penalty>  (48) 
0

>  <i_epik_Tot_Q>  (48) 
0

>  <i_epik_Tot_abs_Q>  (48) 
0

>  <s_epik_Chemistry_Notes>  (48) 
This compound has an ester and may undergo hydrolysis at high or low pH.

>  <s_lp_Force_Field>  (48) 
OPLS3e

>  <r_lp_Energy>  (48) 
48.5265

>  <b_lp_Chiralities_Consistent>  (48) 
1

>  <s_lp_Variant>  (48) 
16:0-1

>  <s_i_glide_gridfile>  (48) 
pfpi4k_grid

>  <i_i_glide_lignum>  (48) 
23

>  <i_i_glide_rotatable_bonds>  (48) 
5

>  <r_i_docking_score>  (48) 
-3.66525

>  <r_i_glide_ligand_efficiency>  (48) 
-0.130902

>  <r_i_glide_ligand_efficiency_sa>  (48) 
-0.397495

>  <r_i_glide_ligand_efficiency_ln>  (48) 
-0.846048

>  <r_i_glide_gscore>  (48) 
-3.66525

>  <r_i_glide_lipo>  (48) 
-0.521374

>  <r_i_glide_hbond>  (48) 
-0.16

>  <r_i_glide_metal>  (48) 
-0

>  <r_i_glide_rewards>  (48) 
-0.841184

>  <r_i_glide_evdw>  (48) 
-27.7652

>  <r_i_glide_ecoul>  (48) 
-5.72305

>  <r_i_glide_erotb>  (48) 
0.1268

>  <r_i_glide_esite>  (48) 
-0.0227763

>  <r_i_glide_emodel>  (48) 
-34.6363

>  <r_i_glide_energy>  (48) 
-33.4883

>  <r_i_glide_einternal>  (48) 
10.5799

>  <r_i_glide_intrahb_reward>  (48) 
-0

>  <i_i_glide_confnum>  (48) 
5

>  <i_i_glide_posenum>  (48) 
13

>  <r_i_glide_eff_state_penalty>  (48) 
0

>  <ligand_id>  (48) 
16

>  <original_smiles>  (48) 
COC(=O)C12OC1(O)C1(O)C2C=C(C)C(=O)C2(O)CCC3C(=O)C(C)CC31C2

>  <smiles>  (48) 
[H]OC12OC1(C(=O)OC([H])([H])[H])C1([H])C([H])=C(C([H])([H])[H])C(=O)C3(O[H])C([H])([H])C([H])([H])C4([H])C(=O)C([H])(C([H])([H])[H])C([H])([H])C4(C3([H])[H])C21O[H]

$$$$
16:0:1
     RDKit          3D

 52 56  0  0  1  0  0  0  0  0999 V2000
    2.4563    0.3942    3.8125 C   0  0  0  0  0  0  0  0  0  0  0  0
    3.7801    0.5186    4.2799 O   0  0  0  0  0  0  0  0  0  0  0  0
    4.8576   -0.1032    3.7514 C   0  0  0  0  0  0  0  0  0  0  0  0
    6.0009    0.1097    4.1369 O   0  0  0  0  0  0  0  0  0  0  0  0
    4.6519   -1.2064    2.7324 C   0  0  2  0  0  0  0  0  0  0  0  0
    5.4740   -1.0469    1.5690 O   0  0  0  0  0  0  0  0  0  0  0  0
    4.0617   -1.3128    1.3803 C   0  0  2  0  0  0  0  0  0  0  0  0
    3.0840   -0.3607    1.0282 O   0  0  0  0  0  0  0  0  0  0  0  0
    3.5710   -2.7269    1.6275 C   0  0  2  0  0  0  0  0  0  0  0  0
    2.1774   -2.7189    1.7617 O   0  0  0  0  0  0  0  0  0  0  0  0
    4.1555   -2.5850    3.0746 C   0  0  1  0  0  0  0  0  0  0  0  0
    5.1079   -3.5221    3.7881 C   0  0  0  0  0  0  0  0  0  0  0  0
    5.1324   -4.8594    3.8166 C   0  0  0  0  0  0  0  0  0  0  0  0
    6.0924   -5.6476    4.6893 C   0  0  0  0  0  0  0  0  0  0  0  0
    4.2086   -5.6796    3.0161 C   0  0  0  0  0  0  0  0  0  0  0  0
    3.1978   -6.1848    3.5041 O   0  0  0  0  0  0  0  0  0  0  0  0
    4.5114   -5.9080    1.5138 C   0  0  2  0  0  0  0  0  0  0  0  0
    4.2506   -7.2705    1.2326 O   0  0  0  0  0  0  0  0  0  0  0  0
    6.0057   -5.6803    1.1173 C   0  0  0  0  0  0  0  0  0  0  0  0
    6.4049   -4.2188    0.8043 C   0  0  0  0  0  0  0  0  0  0  0  0
    5.3220   -3.7113   -0.1422 C   0  0  2  0  0  0  0  0  0  0  0  0
    5.5405   -2.4785   -1.0042 C   0  0  0  0  0  0  0  0  0  0  0  0
    6.6060   -1.8979   -1.1799 O   0  0  0  0  0  0  0  0  0  0  0  0
    4.1911   -2.0650   -1.5793 C   0  0  1  0  0  0  0  0  0  0  0  0
    4.1869   -2.0689   -3.1078 C   0  0  0  0  0  0  0  0  0  0  0  0
    3.2165   -3.0821   -0.9061 C   0  0  0  0  0  0  0  0  0  0  0  0
    3.8935   -3.6588    0.3973 C   0  0  2  0  0  0  0  0  0  0  0  0
    3.4975   -5.1396    0.6279 C   0  0  0  0  0  0  0  0  0  0  0  0
    1.8090    1.0059    4.4538 H   0  0  0  0  0  0  0  0  0  0  0  0
    2.1574   -0.6481    3.9204 H   0  0  0  0  0  0  0  0  0  0  0  0
    2.4081    0.7634    2.7884 H   0  0  0  0  0  0  0  0  0  0  0  0
    2.7650   -0.5159    0.1356 H   0  0  0  0  0  0  0  0  0  0  0  0
    1.8877   -1.9073    1.3616 H   0  0  0  0  0  0  0  0  0  0  0  0
    3.3672   -2.4884    3.8329 H   0  0  0  0  0  0  0  0  0  0  0  0
    5.8046   -3.0018    4.4169 H   0  0  0  0  0  0  0  0  0  0  0  0
    6.6983   -6.3594    4.1110 H   0  0  0  0  0  0  0  0  0  0  0  0
    5.5217   -6.2232    5.4257 H   0  0  0  0  0  0  0  0  0  0  0  0
    6.7767   -4.9948    5.2385 H   0  0  0  0  0  0  0  0  0  0  0  0
    3.3811   -7.4550    1.5607 H   0  0  0  0  0  0  0  0  0  0  0  0
    6.6715   -6.1117    1.8624 H   0  0  0  0  0  0  0  0  0  0  0  0
    6.1734   -6.2530    0.2084 H   0  0  0  0  0  0  0  0  0  0  0  0
    6.5229   -3.6010    1.6964 H   0  0  0  0  0  0  0  0  0  0  0  0
    7.3741   -4.1969    0.2964 H   0  0  0  0  0  0  0  0  0  0  0  0
    5.2996   -4.4651   -0.9216 H   0  0  0  0  0  0  0  0  0  0  0  0
    4.0072   -1.0446   -1.2642 H   0  0  0  0  0  0  0  0  0  0  0  0
    4.8913   -1.3341   -3.4988 H   0  0  0  0  0  0  0  0  0  0  0  0
    3.2028   -1.8086   -3.4994 H   0  0  0  0  0  0  0  0  0  0  0  0
    4.4697   -3.0428   -3.5064 H   0  0  0  0  0  0  0  0  0  0  0  0
    2.2227   -2.6615   -0.7313 H   0  0  0  0  0  0  0  0  0  0  0  0
    3.0417   -3.8746   -1.6438 H   0  0  0  0  0  0  0  0  0  0  0  0
    3.4689   -5.6503   -0.3417 H   0  0  0  0  0  0  0  0  0  0  0  0
    2.4818   -5.2206    1.0234 H   0  0  0  0  0  0  0  0  0  0  0  0
  1  2  1  0
  1 29  1  0
  1 30  1  0
  1 31  1  0
  2  3  1  0
  3  4  2  0
  5  3  1  1
  5  7  1  0
  5 11  1  0
  5  6  1  0
  6  7  1  0
  7  8  1  1
  7  9  1  0
  8 32  1  0
  9 27  1  0
  9 10  1  1
  9 11  1  0
 10 33  1  0
 11 12  1  0
 11 34  1  1
 12 13  2  3
 12 35  1  0
 13 14  1  0
 13 15  1  0
 14 36  1  0
 14 37  1  0
 14 38  1  0
 15 16  2  0
 15 17  1  0
 17 28  1  0
 17 18  1  6
 17 19  1  0
 18 39  1  0
 19 20  1  0
 19 40  1  0
 19 41  1  0
 20 21  1  0
 20 42  1  0
 20 43  1  0
 21 27  1  0
 21 22  1  0
 21 44  1  6
 22 23  2  0
 22 24  1  0
 24 25  1  0
 24 26  1  0
 24 45  1  1
 25 46  1  0
 25 47  1  0
 25 48  1  0
 27 26  1  6
 26 49  1  0
 26 50  1  0
 27 28  1  0
 28 51  1  0
 28 52  1  0
M  END
>  <i_m_ct_stereo_status>  (49) 
1

>  <s_m_source_file>  (49) 
/var/tmp/pbs.5076255.sched01/tmpgr0kyu9k/0plolsrat.sdf

>  <i_m_source_file_index>  (49) 
23

>  <i_lp_mmshare_version>  (49) 
48012

>  <i_f3d_flags>  (49) 
0

>  <s_epik_input>  (49) 
W0NIM11PQyg9TylbQ0BdKE8xKShbQ0BdMShbT0hdKVtDQF0yKFtDQF0zNDUpW09IXSlbQ0BASF0yL1tDSF09QygvW0NIM10pQyg9TylbQ0BAXShbT0hdKShbQ0gyXTUpW0NIMl1bQ0gyXVtDQEBIXTNDKD1PKVtDQEBIXShbQ0gzXSlbQ0gyXTQ=

>  <s_epik_cmdline>  (49) 
J2VwaWtfcHl0aG9uJywgJy1waHQnLCAnMi4wJywgJy1waCcsICc3LjAnLCAnLXRuJywgJzgnLCAnLW1hJywgJzIwMCcsICctaW1hZScsICc8aW5maWxlLm1hZT4nLCAnLW9tYWUnLCAnPG91dGZpbGUubWFlPic=

>  <r_lp_tautomer_probability>  (49) 
1

>  <r_epik_Ionization_Penalty>  (49) 
0.000254995

>  <r_epik_Ionization_Penalty_Charging>  (49) 
0

>  <r_epik_Ionization_Penalty_Neutral>  (49) 
0.000254995

>  <r_epik_State_Penalty>  (49) 
-0

>  <r_epik_Charging_Adjusted_Penalty>  (49) 
0

>  <i_epik_Tot_Q>  (49) 
0

>  <i_epik_Tot_abs_Q>  (49) 
0

>  <s_epik_Chemistry_Notes>  (49) 
This compound has an ester and may undergo hydrolysis at high or low pH.

>  <s_lp_Force_Field>  (49) 
OPLS3e

>  <r_lp_Energy>  (49) 
48.5265

>  <b_lp_Chiralities_Consistent>  (49) 
1

>  <s_lp_Variant>  (49) 
16:0-1

>  <s_i_glide_gridfile>  (49) 
pfpi4k_grid

>  <i_i_glide_lignum>  (49) 
23

>  <i_i_glide_rotatable_bonds>  (49) 
5

>  <r_i_docking_score>  (49) 
-3.64428

>  <r_i_glide_ligand_efficiency>  (49) 
-0.130153

>  <r_i_glide_ligand_efficiency_sa>  (49) 
-0.395221

>  <r_i_glide_ligand_efficiency_ln>  (49) 
-0.841208

>  <r_i_glide_gscore>  (49) 
-3.64428

>  <r_i_glide_lipo>  (49) 
-0.526321

>  <r_i_glide_hbond>  (49) 
-0.16

>  <r_i_glide_metal>  (49) 
-0

>  <r_i_glide_rewards>  (49) 
-0.84294

>  <r_i_glide_evdw>  (49) 
-27.8327

>  <r_i_glide_ecoul>  (49) 
-5.51306

>  <r_i_glide_erotb>  (49) 
0.1268

>  <r_i_glide_esite>  (49) 
-0.0232292

>  <r_i_glide_emodel>  (49) 
-34.2926

>  <r_i_glide_energy>  (49) 
-33.3458

>  <r_i_glide_einternal>  (49) 
9.93559

>  <r_i_glide_intrahb_reward>  (49) 
-0

>  <i_i_glide_confnum>  (49) 
2

>  <i_i_glide_posenum>  (49) 
4

>  <r_i_glide_eff_state_penalty>  (49) 
0

>  <ligand_id>  (49) 
16

>  <original_smiles>  (49) 
COC(=O)C12OC1(O)C1(O)C2C=C(C)C(=O)C2(O)CCC3C(=O)C(C)CC31C2

>  <smiles>  (49) 
[H]OC12OC1(C(=O)OC([H])([H])[H])C1([H])C([H])=C(C([H])([H])[H])C(=O)C3(O[H])C([H])([H])C([H])([H])C4([H])C(=O)C([H])(C([H])([H])[H])C([H])([H])C4(C3([H])[H])C21O[H]

$$$$
16:0:2
     RDKit          3D

 52 56  0  0  1  0  0  0  0  0999 V2000
   11.1000   -2.2774    1.2819 C   0  0  0  0  0  0  0  0  0  0  0  0
    9.7047   -2.3552    0.8920 O   0  0  0  0  0  0  0  0  0  0  0  0
    8.9523   -3.5148    1.0153 C   0  0  0  0  0  0  0  0  0  0  0  0
    9.3623   -4.5938    1.4394 O   0  0  0  0  0  0  0  0  0  0  0  0
    7.4487   -3.2851    0.7840 C   0  0  2  0  0  0  0  0  0  0  0  0
    7.1357   -3.1525   -0.5976 O   0  0  0  0  0  0  0  0  0  0  0  0
    6.5805   -2.1542    0.2791 C   0  0  2  0  0  0  0  0  0  0  0  0
    7.0311   -0.8182    0.1900 O   0  0  0  0  0  0  0  0  0  0  0  0
    5.4122   -2.5054    1.1899 C   0  0  2  0  0  0  0  0  0  0  0  0
    5.1660   -1.4491    2.1144 O   0  0  0  0  0  0  0  0  0  0  0  0
    6.3589   -3.5766    1.8334 C   0  0  1  0  0  0  0  0  0  0  0  0
    6.1301   -5.0330    2.1549 C   0  0  0  0  0  0  0  0  0  0  0  0
    5.0109   -5.6420    2.6252 C   0  0  0  0  0  0  0  0  0  0  0  0
    4.9744   -7.1073    2.9965 C   0  0  0  0  0  0  0  0  0  0  0  0
    3.7693   -4.9143    2.8124 C   0  0  0  0  0  0  0  0  0  0  0  0
    3.3922   -4.5377    3.9357 O   0  0  0  0  0  0  0  0  0  0  0  0
    2.8601   -4.6476    1.6068 C   0  0  2  0  0  0  0  0  0  0  0  0
    1.5728   -5.0495    2.0520 O   0  0  0  0  0  0  0  0  0  0  0  0
    3.1866   -5.5337    0.3579 C   0  0  0  0  0  0  0  0  0  0  0  0
    4.3952   -5.0252   -0.4980 C   0  0  0  0  0  0  0  0  0  0  0  0
    4.0722   -3.5851   -0.8305 C   0  0  2  0  0  0  0  0  0  0  0  0
    4.7032   -2.8709   -2.0053 C   0  0  0  0  0  0  0  0  0  0  0  0
    5.2818   -3.3975   -2.9470 O   0  0  0  0  0  0  0  0  0  0  0  0
    4.5140   -1.3800   -1.8081 C   0  0  1  0  0  0  0  0  0  0  0  0
    3.7373   -0.7559   -2.9730 C   0  0  0  0  0  0  0  0  0  0  0  0
    3.8089   -1.3139   -0.4227 C   0  0  0  0  0  0  0  0  0  0  0  0
    4.0747   -2.6456    0.3651 C   0  0  2  0  0  0  0  0  0  0  0  0
    2.8474   -3.1161    1.2292 C   0  0  0  0  0  0  0  0  0  0  0  0
   11.5153   -1.3426    0.9587 H   0  0  0  0  0  0  0  0  0  0  0  0
   11.7360   -3.0265    0.8010 H   0  0  0  0  0  0  0  0  0  0  0  0
   11.2694   -2.3637    2.3412 H   0  0  0  0  0  0  0  0  0  0  0  0
    7.3214   -0.5031    1.0393 H   0  0  0  0  0  0  0  0  0  0  0  0
    4.4155   -1.6921    2.6430 H   0  0  0  0  0  0  0  0  0  0  0  0
    6.5433   -3.1901    2.8675 H   0  0  0  0  0  0  0  0  0  0  0  0
    6.9935   -5.6490    2.0599 H   0  0  0  0  0  0  0  0  0  0  0  0
    4.2072   -7.6516    2.4282 H   0  0  0  0  0  0  0  0  0  0  0  0
    4.7428   -7.2080    4.0632 H   0  0  0  0  0  0  0  0  0  0  0  0
    5.9380   -7.5842    2.8068 H   0  0  0  0  0  0  0  0  0  0  0  0
    1.4092   -4.5236    2.8231 H   0  0  0  0  0  0  0  0  0  0  0  0
    3.3224   -6.5745    0.6436 H   0  0  0  0  0  0  0  0  0  0  0  0
    2.2845   -5.5466   -0.2666 H   0  0  0  0  0  0  0  0  0  0  0  0
    5.3643   -5.1894   -0.0552 H   0  0  0  0  0  0  0  0  0  0  0  0
    4.5459   -5.5298   -1.4400 H   0  0  0  0  0  0  0  0  0  0  0  0
    3.0481   -3.6035   -1.1985 H   0  0  0  0  0  0  0  0  0  0  0  0
    5.4952   -0.9100   -1.7633 H   0  0  0  0  0  0  0  0  0  0  0  0
    4.2874   -0.8347   -3.9136 H   0  0  0  0  0  0  0  0  0  0  0  0
    3.5674    0.3036   -2.7948 H   0  0  0  0  0  0  0  0  0  0  0  0
    2.7645   -1.2299   -3.1119 H   0  0  0  0  0  0  0  0  0  0  0  0
    4.0789   -0.4069    0.1215 H   0  0  0  0  0  0  0  0  0  0  0  0
    2.7417   -1.2384   -0.6070 H   0  0  0  0  0  0  0  0  0  0  0  0
    1.9346   -2.9136    0.6520 H   0  0  0  0  0  0  0  0  0  0  0  0
    2.7471   -2.4967    2.1251 H   0  0  0  0  0  0  0  0  0  0  0  0
  1  2  1  0
  1 29  1  0
  1 30  1  0
  1 31  1  0
  2  3  1  0
  3  4  2  0
  5  3  1  6
  5  7  1  0
  5 11  1  0
  5  6  1  0
  6  7  1  0
  7  8  1  6
  7  9  1  0
  8 32  1  0
  9 27  1  0
  9 10  1  1
  9 11  1  0
 10 33  1  0
 11 12  1  0
 11 34  1  1
 12 13  2  3
 12 35  1  0
 13 14  1  0
 13 15  1  0
 14 36  1  0
 14 37  1  0
 14 38  1  0
 15 16  2  0
 15 17  1  0
 17 28  1  0
 17 18  1  1
 17 19  1  0
 18 39  1  0
 19 20  1  0
 19 40  1  0
 19 41  1  0
 20 21  1  0
 20 42  1  0
 20 43  1  0
 21 27  1  0
 21 22  1  0
 21 44  1  6
 22 23  2  0
 22 24  1  0
 24 25  1  0
 24 26  1  0
 24 45  1  1
 25 46  1  0
 25 47  1  0
 25 48  1  0
 27 26  1  6
 26 49  1  0
 26 50  1  0
 27 28  1  0
 28 51  1  0
 28 52  1  0
M  END
>  <i_m_ct_stereo_status>  (50) 
1

>  <s_m_source_file>  (50) 
/var/tmp/pbs.5076255.sched01/tmpgr0kyu9k/0plolsrat.sdf

>  <i_m_source_file_index>  (50) 
23

>  <i_lp_mmshare_version>  (50) 
48012

>  <i_f3d_flags>  (50) 
0

>  <s_epik_input>  (50) 
W0NIM11PQyg9TylbQ0BdKE8xKShbQ0BdMShbT0hdKVtDQF0yKFtDQF0zNDUpW09IXSlbQ0BASF0yL1tDSF09QygvW0NIM10pQyg9TylbQ0BAXShbT0hdKShbQ0gyXTUpW0NIMl1bQ0gyXVtDQEBIXTNDKD1PKVtDQEBIXShbQ0gzXSlbQ0gyXTQ=

>  <s_epik_cmdline>  (50) 
J2VwaWtfcHl0aG9uJywgJy1waHQnLCAnMi4wJywgJy1waCcsICc3LjAnLCAnLXRuJywgJzgnLCAnLW1hJywgJzIwMCcsICctaW1hZScsICc8aW5maWxlLm1hZT4nLCAnLW9tYWUnLCAnPG91dGZpbGUubWFlPic=

>  <r_lp_tautomer_probability>  (50) 
1

>  <r_epik_Ionization_Penalty>  (50) 
0.000254995

>  <r_epik_Ionization_Penalty_Charging>  (50) 
0

>  <r_epik_Ionization_Penalty_Neutral>  (50) 
0.000254995

>  <r_epik_State_Penalty>  (50) 
-0

>  <r_epik_Charging_Adjusted_Penalty>  (50) 
0

>  <i_epik_Tot_Q>  (50) 
0

>  <i_epik_Tot_abs_Q>  (50) 
0

>  <s_epik_Chemistry_Notes>  (50) 
This compound has an ester and may undergo hydrolysis at high or low pH.

>  <s_lp_Force_Field>  (50) 
OPLS3e

>  <r_lp_Energy>  (50) 
48.5265

>  <b_lp_Chiralities_Consistent>  (50) 
1

>  <s_lp_Variant>  (50) 
16:0-1

>  <s_i_glide_gridfile>  (50) 
pfpi4k_grid

>  <i_i_glide_lignum>  (50) 
23

>  <i_i_glide_rotatable_bonds>  (50) 
5

>  <r_i_docking_score>  (50) 
-1.44827

>  <r_i_glide_ligand_efficiency>  (50) 
-0.051724

>  <r_i_glide_ligand_efficiency_sa>  (50) 
-0.157065

>  <r_i_glide_ligand_efficiency_ln>  (50) 
-0.334304

>  <r_i_glide_gscore>  (50) 
-1.44827

>  <r_i_glide_lipo>  (50) 
-0.325942

>  <r_i_glide_hbond>  (50) 
-0.00102073

>  <r_i_glide_metal>  (50) 
-0

>  <r_i_glide_rewards>  (50) 
-0.89557

>  <r_i_glide_evdw>  (50) 
2.22172

>  <r_i_glide_ecoul>  (50) 
-5.23086

>  <r_i_glide_erotb>  (50) 
0.1268

>  <r_i_glide_esite>  (50) 
0

>  <r_i_glide_emodel>  (50) 
0.51961

>  <r_i_glide_energy>  (50) 
-3.00914

>  <r_i_glide_einternal>  (50) 
4.68391

>  <r_i_glide_intrahb_reward>  (50) 
-0

>  <i_i_glide_confnum>  (50) 
5

>  <i_i_glide_posenum>  (50) 
15

>  <r_i_glide_eff_state_penalty>  (50) 
0

>  <ligand_id>  (50) 
16

>  <original_smiles>  (50) 
COC(=O)C12OC1(O)C1(O)C2C=C(C)C(=O)C2(O)CCC3C(=O)C(C)CC31C2

>  <smiles>  (50) 
[H]OC12OC1(C(=O)OC([H])([H])[H])C1([H])C([H])=C(C([H])([H])[H])C(=O)C3(O[H])C([H])([H])C([H])([H])C4([H])C(=O)C([H])(C([H])([H])[H])C([H])([H])C4(C3([H])[H])C21O[H]

$$$$
16:1:0
     RDKit          3D

 52 56  0  0  1  0  0  0  0  0999 V2000
    2.9399   -0.6482    5.0155 C   0  0  0  0  0  0  0  0  0  0  0  0
    4.2182   -0.0959    4.9739 O   0  0  0  0  0  0  0  0  0  0  0  0
    5.1316   -0.3442    3.9969 C   0  0  0  0  0  0  0  0  0  0  0  0
    6.2189    0.2399    4.0123 O   0  0  0  0  0  0  0  0  0  0  0  0
    4.7678   -1.3305    2.8569 C   0  0  2  0  0  0  0  0  0  0  0  0
    5.7158   -1.2534    1.7689 O   0  0  0  0  0  0  0  0  0  0  0  0
    4.3241   -1.2004    1.4297 C   0  0  2  0  0  0  0  0  0  0  0  0
    3.6893   -0.0139    1.0020 O   0  0  0  0  0  0  0  0  0  0  0  0
    3.4824   -2.4756    1.4933 C   0  0  2  0  0  0  0  0  0  0  0  0
    2.0732   -2.2318    1.4562 O   0  0  0  0  0  0  0  0  0  0  0  0
    3.8596   -2.5614    2.9976 C   0  0  1  0  0  0  0  0  0  0  0  0
    4.4757   -3.8676    3.4422 C   0  0  0  0  0  0  0  0  0  0  0  0
    3.7109   -4.9561    3.6570 C   0  0  0  0  0  0  0  0  0  0  0  0
    2.2011   -4.9933    3.9214 C   0  0  0  0  0  0  0  0  0  0  0  0
    4.2309   -6.1235    2.9724 C   0  0  0  0  0  0  0  0  0  0  0  0
    4.4139   -7.1856    3.5731 O   0  0  0  0  0  0  0  0  0  0  0  0
    4.4780   -5.9690    1.4380 C   0  0  2  0  0  0  0  0  0  0  0  0
    4.2387   -7.2513    0.8859 O   0  0  0  0  0  0  0  0  0  0  0  0
    5.9848   -5.6601    1.1266 C   0  0  0  0  0  0  0  0  0  0  0  0
    6.3676   -4.2040    0.7673 C   0  0  0  0  0  0  0  0  0  0  0  0
    5.2922   -3.6490   -0.1594 C   0  0  2  0  0  0  0  0  0  0  0  0
    5.5298   -2.4391   -1.0344 C   0  0  0  0  0  0  0  0  0  0  0  0
    6.6039   -1.8763   -1.2072 O   0  0  0  0  0  0  0  0  0  0  0  0
    4.1915   -2.0242   -1.6329 C   0  0  1  0  0  0  0  0  0  0  0  0
    4.2305   -2.0447   -3.1659 C   0  0  0  0  0  0  0  0  0  0  0  0
    3.2187   -3.0533   -0.9906 C   0  0  0  0  0  0  0  0  0  0  0  0
    3.8358   -3.5485    0.3630 C   0  0  2  0  0  0  0  0  0  0  0  0
    3.4282   -5.0356    0.6818 C   0  0  0  0  0  0  0  0  0  0  0  0
    2.3155   -0.2262    5.7881 H   0  0  0  0  0  0  0  0  0  0  0  0
    3.0702   -1.7172    5.1780 H   0  0  0  0  0  0  0  0  0  0  0  0
    2.4919   -0.4793    4.0532 H   0  0  0  0  0  0  0  0  0  0  0  0
    3.3918   -0.1492    0.1118 H   0  0  0  0  0  0  0  0  0  0  0  0
    1.8520   -1.6615    0.7288 H   0  0  0  0  0  0  0  0  0  0  0  0
    2.9661   -2.4487    3.6068 H   0  0  0  0  0  0  0  0  0  0  0  0
    5.5289   -3.9827    3.2618 H   0  0  0  0  0  0  0  0  0  0  0  0
    1.7018   -5.7426    3.3096 H   0  0  0  0  0  0  0  0  0  0  0  0
    1.6643   -4.0576    3.7362 H   0  0  0  0  0  0  0  0  0  0  0  0
    2.0314   -5.2566    4.9642 H   0  0  0  0  0  0  0  0  0  0  0  0
    3.3756   -7.5276    1.1444 H   0  0  0  0  0  0  0  0  0  0  0  0
    6.6271   -6.0155    1.9396 H   0  0  0  0  0  0  0  0  0  0  0  0
    6.2736   -6.2584    0.2680 H   0  0  0  0  0  0  0  0  0  0  0  0
    6.5543   -3.5620    1.6187 H   0  0  0  0  0  0  0  0  0  0  0  0
    7.3155   -4.2255    0.2409 H   0  0  0  0  0  0  0  0  0  0  0  0
    5.2536   -4.4140   -0.9330 H   0  0  0  0  0  0  0  0  0  0  0  0
    3.9729   -1.0081   -1.3031 H   0  0  0  0  0  0  0  0  0  0  0  0
    4.9465   -1.3163   -3.5475 H   0  0  0  0  0  0  0  0  0  0  0  0
    3.2528   -1.7975   -3.5739 H   0  0  0  0  0  0  0  0  0  0  0  0
    4.5218   -3.0261   -3.5420 H   0  0  0  0  0  0  0  0  0  0  0  0
    2.2151   -2.6458   -0.9120 H   0  0  0  0  0  0  0  0  0  0  0  0
    3.1150   -3.8759   -1.6953 H   0  0  0  0  0  0  0  0  0  0  0  0
    3.2409   -5.5071   -0.2843 H   0  0  0  0  0  0  0  0  0  0  0  0
    2.4548   -5.0372    1.1742 H   0  0  0  0  0  0  0  0  0  0  0  0
  1  2  1  0
  1 29  1  0
  1 30  1  0
  1 31  1  0
  2  3  1  0
  3  4  2  0
  5  3  1  1
  5  7  1  0
  5 11  1  0
  5  6  1  0
  6  7  1  0
  7  8  1  1
  7  9  1  0
  8 32  1  0
  9 27  1  0
  9 10  1  1
  9 11  1  0
 10 33  1  0
 11 12  1  0
 11 34  1  1
 12 13  2  3
 12 35  1  0
 13 14  1  0
 13 15  1  0
 14 36  1  0
 14 37  1  0
 14 38  1  0
 15 16  2  0
 15 17  1  0
 17 28  1  0
 17 18  1  6
 17 19  1  0
 18 39  1  0
 19 20  1  0
 19 40  1  0
 19 41  1  0
 20 21  1  0
 20 42  1  0
 20 43  1  0
 21 27  1  0
 21 22  1  0
 21 44  1  6
 22 23  2  0
 22 24  1  0
 24 25  1  0
 24 26  1  0
 24 45  1  6
 25 46  1  0
 25 47  1  0
 25 48  1  0
 27 26  1  6
 26 49  1  0
 26 50  1  0
 27 28  1  0
 28 51  1  0
 28 52  1  0
M  END
>  <i_m_ct_stereo_status>  (51) 
1

>  <s_m_source_file>  (51) 
/var/tmp/pbs.5076255.sched01/tmpgr0kyu9k/0plolsrat.sdf

>  <i_m_source_file_index>  (51) 
24

>  <i_lp_mmshare_version>  (51) 
48012

>  <i_f3d_flags>  (51) 
0

>  <s_epik_input>  (51) 
W0NIM11PQyg9TylbQ0BdKE8xKShbQ0BdMShbT0hdKVtDQF0yKFtDQF0zNDUpW09IXSlbQ0BASF0yL1tDSF09QygvW0NIM10pQyg9TylbQ0BAXShbT0hdKShbQ0gyXTUpW0NIMl1bQ0gyXVtDQEBIXTNDKD1PKVtDQEBIXShbQ0gzXSlbQ0gyXTQ=

>  <s_epik_cmdline>  (51) 
J2VwaWtfcHl0aG9uJywgJy1waHQnLCAnMi4wJywgJy1waCcsICc3LjAnLCAnLXRuJywgJzgnLCAnLW1hJywgJzIwMCcsICctaW1hZScsICc8aW5maWxlLm1hZT4nLCAnLW9tYWUnLCAnPG91dGZpbGUubWFlPic=

>  <r_lp_tautomer_probability>  (51) 
1

>  <r_epik_Ionization_Penalty>  (51) 
0.000254995

>  <r_epik_Ionization_Penalty_Charging>  (51) 
0

>  <r_epik_Ionization_Penalty_Neutral>  (51) 
0.000254995

>  <r_epik_State_Penalty>  (51) 
-0

>  <r_epik_Charging_Adjusted_Penalty>  (51) 
0

>  <i_epik_Tot_Q>  (51) 
0

>  <i_epik_Tot_abs_Q>  (51) 
0

>  <s_epik_Chemistry_Notes>  (51) 
This compound has an ester and may undergo hydrolysis at high or low pH.

>  <s_lp_Force_Field>  (51) 
OPLS3e

>  <r_lp_Energy>  (51) 
65.1279

>  <b_lp_Chiralities_Consistent>  (51) 
1

>  <s_lp_Variant>  (51) 
16:0-2

>  <s_i_glide_gridfile>  (51) 
pfpi4k_grid

>  <i_i_glide_lignum>  (51) 
24

>  <i_i_glide_rotatable_bonds>  (51) 
5

>  <r_i_docking_score>  (51) 
-3.69546

>  <r_i_glide_ligand_efficiency>  (51) 
-0.131981

>  <r_i_glide_ligand_efficiency_sa>  (51) 
-0.400771

>  <r_i_glide_ligand_efficiency_ln>  (51) 
-0.85302

>  <r_i_glide_gscore>  (51) 
-3.69546

>  <r_i_glide_lipo>  (51) 
-0.497323

>  <r_i_glide_hbond>  (51) 
-0.16

>  <r_i_glide_metal>  (51) 
-0

>  <r_i_glide_rewards>  (51) 
-0.912599

>  <r_i_glide_evdw>  (51) 
-27.5949

>  <r_i_glide_ecoul>  (51) 
-5.43822

>  <r_i_glide_erotb>  (51) 
0.0887601

>  <r_i_glide_esite>  (51) 
-0.0188183

>  <r_i_glide_emodel>  (51) 
-34.7932

>  <r_i_glide_energy>  (51) 
-33.0331

>  <r_i_glide_einternal>  (51) 
9.47052

>  <r_i_glide_intrahb_reward>  (51) 
-0

>  <i_i_glide_confnum>  (51) 
2

>  <i_i_glide_posenum>  (51) 
7

>  <r_i_glide_eff_state_penalty>  (51) 
0

>  <ligand_id>  (51) 
16

>  <original_smiles>  (51) 
COC(=O)C12OC1(O)C1(O)C2C=C(C)C(=O)C2(O)CCC3C(=O)C(C)CC31C2

>  <smiles>  (51) 
[H]OC12OC1(C(=O)OC([H])([H])[H])C1([H])C([H])=C(C([H])([H])[H])C(=O)C3(O[H])C([H])([H])C([H])([H])C4([H])C(=O)C([H])(C([H])([H])[H])C([H])([H])C4(C3([H])[H])C21O[H]

$$$$
16:1:1
     RDKit          3D

 52 56  0  0  1  0  0  0  0  0999 V2000
    2.6844   -0.4011    4.8498 C   0  0  0  0  0  0  0  0  0  0  0  0
    4.0036    0.0512    4.9084 O   0  0  0  0  0  0  0  0  0  0  0  0
    4.9869   -0.3070    4.0265 C   0  0  0  0  0  0  0  0  0  0  0  0
    6.1257    0.1686    4.1236 O   0  0  0  0  0  0  0  0  0  0  0  0
    4.6303   -1.2802    2.9056 C   0  0  2  0  0  0  0  0  0  0  0  0
    5.6161   -1.2242    1.8197 O   0  0  0  0  0  0  0  0  0  0  0  0
    4.2225   -1.1773    1.4646 C   0  0  2  0  0  0  0  0  0  0  0  0
    3.6157    0.0208    0.9867 O   0  0  0  0  0  0  0  0  0  0  0  0
    3.3902   -2.4356    1.5188 C   0  0  2  0  0  0  0  0  0  0  0  0
    1.9833   -2.2027    1.4355 O   0  0  0  0  0  0  0  0  0  0  0  0
    3.7284   -2.5179    3.0207 C   0  0  1  0  0  0  0  0  0  0  0  0
    4.3200   -3.8113    3.5053 C   0  0  0  0  0  0  0  0  0  0  0  0
    3.5562   -4.8924    3.6997 C   0  0  0  0  0  0  0  0  0  0  0  0
    2.0334   -4.9247    3.9249 C   0  0  0  0  0  0  0  0  0  0  0  0
    4.0950   -6.0711    3.0476 C   0  0  0  0  0  0  0  0  0  0  0  0
    4.2663   -7.1173    3.6794 O   0  0  0  0  0  0  0  0  0  0  0  0
    4.3849   -5.9436    1.5277 C   0  0  2  0  0  0  0  0  0  0  0  0
    4.1548   -7.2393    0.9813 O   0  0  0  0  0  0  0  0  0  0  0  0
    5.9044   -5.6376    1.2517 C   0  0  0  0  0  0  0  0  0  0  0  0
    6.2962   -4.1834    0.8882 C   0  0  0  0  0  0  0  0  0  0  0  0
    5.2536   -3.6336   -0.0762 C   0  0  2  0  0  0  0  0  0  0  0  0
    5.5136   -2.4387   -0.9578 C   0  0  0  0  0  0  0  0  0  0  0  0
    6.6080   -1.8738   -1.1244 O   0  0  0  0  0  0  0  0  0  0  0  0
    4.1998   -2.0273   -1.6038 C   0  0  1  0  0  0  0  0  0  0  0  0
    4.2816   -2.0711   -3.1322 C   0  0  0  0  0  0  0  0  0  0  0  0
    3.2095   -3.0514   -0.9762 C   0  0  0  0  0  0  0  0  0  0  0  0
    3.7853   -3.5372    0.4009 C   0  0  2  0  0  0  0  0  0  0  0  0
    3.3637   -5.0127    0.7249 C   0  0  0  0  0  0  0  0  0  0  0  0
    2.0360    0.0970    5.5544 H   0  0  0  0  0  0  0  0  0  0  0  0
    2.6999   -1.4473    5.0847 H   0  0  0  0  0  0  0  0  0  0  0  0
    2.3325   -0.2305    3.8458 H   0  0  0  0  0  0  0  0  0  0  0  0
    3.3276   -0.1327    0.1046 H   0  0  0  0  0  0  0  0  0  0  0  0
    1.7800   -1.6421    0.7035 H   0  0  0  0  0  0  0  0  0  0  0  0
    2.8260   -2.3884    3.5974 H   0  0  0  0  0  0  0  0  0  0  0  0
    5.3920   -3.9305    3.3531 H   0  0  0  0  0  0  0  0  0  0  0  0
    1.5524   -5.6830    3.3090 H   0  0  0  0  0  0  0  0  0  0  0  0
    1.5057   -3.9929    3.7115 H   0  0  0  0  0  0  0  0  0  0  0  0
    1.8335   -5.1756    4.9656 H   0  0  0  0  0  0  0  0  0  0  0  0
    4.3135   -7.2129    0.0832 H   0  0  0  0  0  0  0  0  0  0  0  0
    6.5179   -5.9752    2.0933 H   0  0  0  0  0  0  0  0  0  0  0  0
    6.2249   -6.2549    0.4169 H   0  0  0  0  0  0  0  0  0  0  0  0
    6.4574   -3.5287    1.7355 H   0  0  0  0  0  0  0  0  0  0  0  0
    7.2626   -4.2091    0.3898 H   0  0  0  0  0  0  0  0  0  0  0  0
    5.2342   -4.4078   -0.8414 H   0  0  0  0  0  0  0  0  0  0  0  0
    3.9676   -1.0109   -1.2917 H   0  0  0  0  0  0  0  0  0  0  0  0
    5.0106   -1.3468   -3.5037 H   0  0  0  0  0  0  0  0  0  0  0  0
    3.3169   -1.8271   -3.5733 H   0  0  0  0  0  0  0  0  0  0  0  0
    4.5821   -3.0568   -3.4891 H   0  0  0  0  0  0  0  0  0  0  0  0
    2.2117   -2.6367   -0.9328 H   0  0  0  0  0  0  0  0  0  0  0  0
    3.1228   -3.8835   -1.6725 H   0  0  0  0  0  0  0  0  0  0  0  0
    3.1957   -5.4930   -0.2387 H   0  0  0  0  0  0  0  0  0  0  0  0
    2.3743   -5.0083    1.1888 H   0  0  0  0  0  0  0  0  0  0  0  0
  1  2  1  0
  1 29  1  0
  1 30  1  0
  1 31  1  0
  2  3  1  0
  3  4  2  0
  5  3  1  1
  5  7  1  0
  5 11  1  0
  5  6  1  0
  6  7  1  0
  7  8  1  1
  7  9  1  0
  8 32  1  0
  9 27  1  0
  9 10  1  1
  9 11  1  0
 10 33  1  0
 11 12  1  0
 11 34  1  1
 12 13  2  3
 12 35  1  0
 13 14  1  0
 13 15  1  0
 14 36  1  0
 14 37  1  0
 14 38  1  0
 15 16  2  0
 15 17  1  0
 17 28  1  0
 17 18  1  6
 17 19  1  0
 18 39  1  0
 19 20  1  0
 19 40  1  0
 19 41  1  0
 20 21  1  0
 20 42  1  0
 20 43  1  0
 21 27  1  0
 21 22  1  0
 21 44  1  6
 22 23  2  0
 22 24  1  0
 24 25  1  0
 24 26  1  0
 24 45  1  6
 25 46  1  0
 25 47  1  0
 25 48  1  0
 27 26  1  6
 26 49  1  0
 26 50  1  0
 27 28  1  0
 28 51  1  0
 28 52  1  0
M  END
>  <i_m_ct_stereo_status>  (52) 
1

>  <s_m_source_file>  (52) 
/var/tmp/pbs.5076255.sched01/tmpgr0kyu9k/0plolsrat.sdf

>  <i_m_source_file_index>  (52) 
24

>  <i_lp_mmshare_version>  (52) 
48012

>  <i_f3d_flags>  (52) 
0

>  <s_epik_input>  (52) 
W0NIM11PQyg9TylbQ0BdKE8xKShbQ0BdMShbT0hdKVtDQF0yKFtDQF0zNDUpW09IXSlbQ0BASF0yL1tDSF09QygvW0NIM10pQyg9TylbQ0BAXShbT0hdKShbQ0gyXTUpW0NIMl1bQ0gyXVtDQEBIXTNDKD1PKVtDQEBIXShbQ0gzXSlbQ0gyXTQ=

>  <s_epik_cmdline>  (52) 
J2VwaWtfcHl0aG9uJywgJy1waHQnLCAnMi4wJywgJy1waCcsICc3LjAnLCAnLXRuJywgJzgnLCAnLW1hJywgJzIwMCcsICctaW1hZScsICc8aW5maWxlLm1hZT4nLCAnLW9tYWUnLCAnPG91dGZpbGUubWFlPic=

>  <r_lp_tautomer_probability>  (52) 
1

>  <r_epik_Ionization_Penalty>  (52) 
0.000254995

>  <r_epik_Ionization_Penalty_Charging>  (52) 
0

>  <r_epik_Ionization_Penalty_Neutral>  (52) 
0.000254995

>  <r_epik_State_Penalty>  (52) 
-0

>  <r_epik_Charging_Adjusted_Penalty>  (52) 
0

>  <i_epik_Tot_Q>  (52) 
0

>  <i_epik_Tot_abs_Q>  (52) 
0

>  <s_epik_Chemistry_Notes>  (52) 
This compound has an ester and may undergo hydrolysis at high or low pH.

>  <s_lp_Force_Field>  (52) 
OPLS3e

>  <r_lp_Energy>  (52) 
65.1279

>  <b_lp_Chiralities_Consistent>  (52) 
1

>  <s_lp_Variant>  (52) 
16:0-2

>  <s_i_glide_gridfile>  (52) 
pfpi4k_grid

>  <i_i_glide_lignum>  (52) 
24

>  <i_i_glide_rotatable_bonds>  (52) 
5

>  <r_i_docking_score>  (52) 
-3.6295

>  <r_i_glide_ligand_efficiency>  (52) 
-0.129625

>  <r_i_glide_ligand_efficiency_sa>  (52) 
-0.393618

>  <r_i_glide_ligand_efficiency_ln>  (52) 
-0.837796

>  <r_i_glide_gscore>  (52) 
-3.6295

>  <r_i_glide_lipo>  (52) 
-0.451077

>  <r_i_glide_hbond>  (52) 
-0.16

>  <r_i_glide_metal>  (52) 
-0

>  <r_i_glide_rewards>  (52) 
-0.881846

>  <r_i_glide_evdw>  (52) 
-26.9972

>  <r_i_glide_ecoul>  (52) 
-5.71843

>  <r_i_glide_erotb>  (52) 
0.0887601

>  <r_i_glide_esite>  (52) 
-0.0177121

>  <r_i_glide_emodel>  (52) 
-34.9145

>  <r_i_glide_energy>  (52) 
-32.7157

>  <r_i_glide_einternal>  (52) 
7.80802

>  <r_i_glide_intrahb_reward>  (52) 
-0

>  <i_i_glide_confnum>  (52) 
3

>  <i_i_glide_posenum>  (52) 
39

>  <r_i_glide_eff_state_penalty>  (52) 
0

>  <ligand_id>  (52) 
16

>  <original_smiles>  (52) 
COC(=O)C12OC1(O)C1(O)C2C=C(C)C(=O)C2(O)CCC3C(=O)C(C)CC31C2

>  <smiles>  (52) 
[H]OC12OC1(C(=O)OC([H])([H])[H])C1([H])C([H])=C(C([H])([H])[H])C(=O)C3(O[H])C([H])([H])C([H])([H])C4([H])C(=O)C([H])(C([H])([H])[H])C([H])([H])C4(C3([H])[H])C21O[H]

$$$$
16:1:2
     RDKit          3D

 52 56  0  0  1  0  0  0  0  0999 V2000
    2.7150   -0.2969    4.8371 C   0  0  0  0  0  0  0  0  0  0  0  0
    4.0450    0.1301    4.8793 O   0  0  0  0  0  0  0  0  0  0  0  0
    5.0236   -0.2707    4.0193 C   0  0  0  0  0  0  0  0  0  0  0  0
    6.1775    0.1433    4.1348 O   0  0  0  0  0  0  0  0  0  0  0  0
    4.6706   -1.2713    2.9005 C   0  0  2  0  0  0  0  0  0  0  0  0
    5.6450   -1.1965    1.8260 O   0  0  0  0  0  0  0  0  0  0  0  0
    4.2655   -1.1773    1.4658 C   0  0  2  0  0  0  0  0  0  0  0  0
    3.6261    0.0191    1.0281 O   0  0  0  0  0  0  0  0  0  0  0  0
    3.4225   -2.4355    1.5476 C   0  0  2  0  0  0  0  0  0  0  0  0
    2.0302   -2.1961    1.4836 O   0  0  0  0  0  0  0  0  0  0  0  0
    3.8034   -2.4969    3.0459 C   0  0  1  0  0  0  0  0  0  0  0  0
    4.3883   -3.7761    3.5344 C   0  0  0  0  0  0  0  0  0  0  0  0
    3.6165   -4.8678    3.7516 C   0  0  0  0  0  0  0  0  0  0  0  0
    2.1090   -4.8978    3.9914 C   0  0  0  0  0  0  0  0  0  0  0  0
    4.1600   -6.0519    3.1054 C   0  0  0  0  0  0  0  0  0  0  0  0
    4.3526   -7.0941    3.7247 O   0  0  0  0  0  0  0  0  0  0  0  0
    4.4401   -5.9226    1.5791 C   0  0  2  0  0  0  0  0  0  0  0  0
    4.2248   -7.2195    1.0457 O   0  0  0  0  0  0  0  0  0  0  0  0
    5.9530   -5.6184    1.2868 C   0  0  0  0  0  0  0  0  0  0  0  0
    6.3312   -4.1658    0.9018 C   0  0  0  0  0  0  0  0  0  0  0  0
    5.2713   -3.6371   -0.0518 C   0  0  2  0  0  0  0  0  0  0  0  0
    5.5328   -2.4411   -0.9515 C   0  0  0  0  0  0  0  0  0  0  0  0
    6.6073   -1.8797   -1.1208 O   0  0  0  0  0  0  0  0  0  0  0  0
    4.2031   -2.0431   -1.5833 C   0  0  1  0  0  0  0  0  0  0  0  0
    4.2661   -2.0991   -3.1136 C   0  0  0  0  0  0  0  0  0  0  0  0
    3.2142   -3.0633   -0.9400 C   0  0  0  0  0  0  0  0  0  0  0  0
    3.8086   -3.5316    0.4378 C   0  0  2  0  0  0  0  0  0  0  0  0
    3.4050   -5.0151    0.7753 C   0  0  0  0  0  0  0  0  0  0  0  0
    2.0688    0.2416    5.5073 H   0  0  0  0  0  0  0  0  0  0  0  0
    2.7120   -1.3365    5.1503 H   0  0  0  0  0  0  0  0  0  0  0  0
    2.3758   -0.1908    3.8139 H   0  0  0  0  0  0  0  0  0  0  0  0
    3.3627   -0.1177    0.1303 H   0  0  0  0  0  0  0  0  0  0  0  0
    1.8143   -1.6505    0.7366 H   0  0  0  0  0  0  0  0  0  0  0  0
    2.8883   -2.3819    3.6236 H   0  0  0  0  0  0  0  0  0  0  0  0
    5.4469   -3.9001    3.3755 H   0  0  0  0  0  0  0  0  0  0  0  0
    1.6202   -5.6636    3.3857 H   0  0  0  0  0  0  0  0  0  0  0  0
    1.5668   -3.9750    3.7764 H   0  0  0  0  0  0  0  0  0  0  0  0
    1.9142   -5.1422    5.0355 H   0  0  0  0  0  0  0  0  0  0  0  0
    4.7809   -7.8116    1.5207 H   0  0  0  0  0  0  0  0  0  0  0  0
    6.5764   -5.9480    2.1233 H   0  0  0  0  0  0  0  0  0  0  0  0
    6.2591   -6.2425    0.4495 H   0  0  0  0  0  0  0  0  0  0  0  0
    6.4972   -3.5050    1.7444 H   0  0  0  0  0  0  0  0  0  0  0  0
    7.2936   -4.1913    0.3957 H   0  0  0  0  0  0  0  0  0  0  0  0
    5.2482   -4.4153   -0.8099 H   0  0  0  0  0  0  0  0  0  0  0  0
    3.9701   -1.0242   -1.2810 H   0  0  0  0  0  0  0  0  0  0  0  0
    4.9883   -1.3751   -3.4995 H   0  0  0  0  0  0  0  0  0  0  0  0
    3.2949   -1.8631   -3.5476 H   0  0  0  0  0  0  0  0  0  0  0  0
    4.5674   -3.0877   -3.4643 H   0  0  0  0  0  0  0  0  0  0  0  0
    2.2078   -2.6580   -0.8876 H   0  0  0  0  0  0  0  0  0  0  0  0
    3.1314   -3.9027   -1.6252 H   0  0  0  0  0  0  0  0  0  0  0  0
    3.2293   -5.5104   -0.1784 H   0  0  0  0  0  0  0  0  0  0  0  0
    2.4203   -5.0112    1.2524 H   0  0  0  0  0  0  0  0  0  0  0  0
  1  2  1  0
  1 29  1  0
  1 30  1  0
  1 31  1  0
  2  3  1  0
  3  4  2  0
  5  3  1  1
  5  7  1  0
  5 11  1  0
  5  6  1  0
  6  7  1  0
  7  8  1  1
  7  9  1  0
  8 32  1  0
  9 27  1  0
  9 10  1  1
  9 11  1  0
 10 33  1  0
 11 12  1  0
 11 34  1  1
 12 13  2  3
 12 35  1  0
 13 14  1  0
 13 15  1  0
 14 36  1  0
 14 37  1  0
 14 38  1  0
 15 16  2  0
 15 17  1  0
 17 28  1  0
 17 18  1  6
 17 19  1  0
 18 39  1  0
 19 20  1  0
 19 40  1  0
 19 41  1  0
 20 21  1  0
 20 42  1  0
 20 43  1  0
 21 27  1  0
 21 22  1  0
 21 44  1  6
 22 23  2  0
 22 24  1  0
 24 25  1  0
 24 26  1  0
 24 45  1  6
 25 46  1  0
 25 47  1  0
 25 48  1  0
 27 26  1  6
 26 49  1  0
 26 50  1  0
 27 28  1  0
 28 51  1  0
 28 52  1  0
M  END
>  <i_m_ct_stereo_status>  (53) 
1

>  <s_m_source_file>  (53) 
/var/tmp/pbs.5076255.sched01/tmpgr0kyu9k/0plolsrat.sdf

>  <i_m_source_file_index>  (53) 
24

>  <i_lp_mmshare_version>  (53) 
48012

>  <i_f3d_flags>  (53) 
0

>  <s_epik_input>  (53) 
W0NIM11PQyg9TylbQ0BdKE8xKShbQ0BdMShbT0hdKVtDQF0yKFtDQF0zNDUpW09IXSlbQ0BASF0yL1tDSF09QygvW0NIM10pQyg9TylbQ0BAXShbT0hdKShbQ0gyXTUpW0NIMl1bQ0gyXVtDQEBIXTNDKD1PKVtDQEBIXShbQ0gzXSlbQ0gyXTQ=

>  <s_epik_cmdline>  (53) 
J2VwaWtfcHl0aG9uJywgJy1waHQnLCAnMi4wJywgJy1waCcsICc3LjAnLCAnLXRuJywgJzgnLCAnLW1hJywgJzIwMCcsICctaW1hZScsICc8aW5maWxlLm1hZT4nLCAnLW9tYWUnLCAnPG91dGZpbGUubWFlPic=

>  <r_lp_tautomer_probability>  (53) 
1

>  <r_epik_Ionization_Penalty>  (53) 
0.000254995

>  <r_epik_Ionization_Penalty_Charging>  (53) 
0

>  <r_epik_Ionization_Penalty_Neutral>  (53) 
0.000254995

>  <r_epik_State_Penalty>  (53) 
-0

>  <r_epik_Charging_Adjusted_Penalty>  (53) 
0

>  <i_epik_Tot_Q>  (53) 
0

>  <i_epik_Tot_abs_Q>  (53) 
0

>  <s_epik_Chemistry_Notes>  (53) 
This compound has an ester and may undergo hydrolysis at high or low pH.

>  <s_lp_Force_Field>  (53) 
OPLS3e

>  <r_lp_Energy>  (53) 
65.1279

>  <b_lp_Chiralities_Consistent>  (53) 
1

>  <s_lp_Variant>  (53) 
16:0-2

>  <s_i_glide_gridfile>  (53) 
pfpi4k_grid

>  <i_i_glide_lignum>  (53) 
24

>  <i_i_glide_rotatable_bonds>  (53) 
5

>  <r_i_docking_score>  (53) 
-3.60898

>  <r_i_glide_ligand_efficiency>  (53) 
-0.128892

>  <r_i_glide_ligand_efficiency_sa>  (53) 
-0.391392

>  <r_i_glide_ligand_efficiency_ln>  (53) 
-0.833058

>  <r_i_glide_gscore>  (53) 
-3.60898

>  <r_i_glide_lipo>  (53) 
-0.460327

>  <r_i_glide_hbond>  (53) 
-0.16

>  <r_i_glide_metal>  (53) 
-0

>  <r_i_glide_rewards>  (53) 
-0.891359

>  <r_i_glide_evdw>  (53) 
-27.507

>  <r_i_glide_ecoul>  (53) 
-5.28614

>  <r_i_glide_erotb>  (53) 
0.0887601

>  <r_i_glide_esite>  (53) 
-0.0177808

>  <r_i_glide_emodel>  (53) 
-34.792

>  <r_i_glide_energy>  (53) 
-32.7931

>  <r_i_glide_einternal>  (53) 
9.42648

>  <r_i_glide_intrahb_reward>  (53) 
-0

>  <i_i_glide_confnum>  (53) 
1

>  <i_i_glide_posenum>  (53) 
1

>  <r_i_glide_eff_state_penalty>  (53) 
0

>  <ligand_id>  (53) 
16

>  <original_smiles>  (53) 
COC(=O)C12OC1(O)C1(O)C2C=C(C)C(=O)C2(O)CCC3C(=O)C(C)CC31C2

>  <smiles>  (53) 
[H]OC12OC1(C(=O)OC([H])([H])[H])C1([H])C([H])=C(C([H])([H])[H])C(=O)C3(O[H])C([H])([H])C([H])([H])C4([H])C(=O)C([H])(C([H])([H])[H])C([H])([H])C4(C3([H])[H])C21O[H]

$$$$
17:0:0
     RDKit          3D

 44 46  0  0  1  0  0  0  0  0999 V2000
   -0.8451   -2.0135    5.3692 C   0  0  0  0  0  0  0  0  0  0  0  0
   -0.7911   -0.6055    5.4460 O   0  0  0  0  0  0  0  0  0  0  0  0
    0.4360   -0.0513    4.9792 C   0  0  0  0  0  0  0  0  0  0  0  0
    0.2926    1.4917    4.8565 C   0  0  2  0  0  0  0  0  0  0  0  0
    1.5966    2.1336    4.3034 C   0  0  0  0  0  0  0  0  0  0  0  0
    1.1495    3.3979    3.5468 C   0  0  0  0  0  0  0  0  0  0  0  0
   -0.3845    3.4254    3.7213 C   0  0  2  0  0  0  0  0  0  0  0  0
   -0.7507    4.2162    4.9906 C   0  0  0  0  0  0  0  0  0  0  0  0
   -0.1667    3.5971    6.2104 N   0  0  0  0  0  0  0  0  0  0  0  0
   -0.0482    4.5028    7.6597 S   0  0  0  0  0  0  0  0  0  0  0  0
    1.1395    4.0329    8.3839 O   0  0  0  0  0  0  0  0  0  0  0  0
   -0.2392    5.9111    7.3372 O   0  0  0  0  0  0  0  0  0  0  0  0
   -1.4541    4.0199    8.6438 C   0  0  0  0  0  0  0  0  0  0  0  0
   -2.7038    3.7299    8.1847 C   0  0  0  0  0  0  0  0  0  0  0  0
   -3.5976    3.3454    9.2347 C   0  0  0  0  0  0  0  0  0  0  0  0
   -2.9994    3.3436   10.4578 C   0  0  0  0  0  0  0  0  0  0  0  0
   -1.3334    3.8398   10.3761 S   0  0  0  0  0  0  0  0  0  0  0  0
    0.0122    2.1223    6.2522 C   0  0  0  0  0  0  0  0  0  0  0  0
   -0.7906    1.9360    3.8255 C   0  0  0  0  0  0  0  0  0  0  0  0
   -0.6542    1.2194    2.4516 C   0  0  0  0  0  0  0  0  0  0  0  0
   -2.2610    1.7575    4.2848 C   0  0  0  0  0  0  0  0  0  0  0  0
   -1.8311   -2.3430    5.6875 H   0  0  0  0  0  0  0  0  0  0  0  0
   -0.1038   -2.4531    6.0280 H   0  0  0  0  0  0  0  0  0  0  0  0
   -0.6845   -2.3742    4.3524 H   0  0  0  0  0  0  0  0  0  0  0  0
    1.2443   -0.3216    5.6678 H   0  0  0  0  0  0  0  0  0  0  0  0
    0.7065   -0.4994    4.0229 H   0  0  0  0  0  0  0  0  0  0  0  0
    2.3218    2.3658    5.0911 H   0  0  0  0  0  0  0  0  0  0  0  0
    2.1036    1.4668    3.6048 H   0  0  0  0  0  0  0  0  0  0  0  0
    1.6332    4.3079    3.9135 H   0  0  0  0  0  0  0  0  0  0  0  0
    1.4072    3.3132    2.4922 H   0  0  0  0  0  0  0  0  0  0  0  0
   -0.8685    3.9074    2.8742 H   0  0  0  0  0  0  0  0  0  0  0  0
   -0.3927    5.2393    4.9026 H   0  0  0  0  0  0  0  0  0  0  0  0
   -1.8258    4.2955    5.1091 H   0  0  0  0  0  0  0  0  0  0  0  0
   -3.0066    3.7819    7.1553 H   0  0  0  0  0  0  0  0  0  0  0  0
   -4.6301    3.0780    9.0420 H   0  0  0  0  0  0  0  0  0  0  0  0
   -3.4414    3.0812   11.4218 H   0  0  0  0  0  0  0  0  0  0  0  0
   -0.8778    1.7013    6.7092 H   0  0  0  0  0  0  0  0  0  0  0  0
    0.8204    1.8971    6.9438 H   0  0  0  0  0  0  0  0  0  0  0  0
   -1.2822    1.6749    1.6812 H   0  0  0  0  0  0  0  0  0  0  0  0
   -0.9573    0.1799    2.5239 H   0  0  0  0  0  0  0  0  0  0  0  0
    0.3600    1.2169    2.0504 H   0  0  0  0  0  0  0  0  0  0  0  0
   -2.9609    2.1883    3.5608 H   0  0  0  0  0  0  0  0  0  0  0  0
   -2.5012    2.1993    5.2487 H   0  0  0  0  0  0  0  0  0  0  0  0
   -2.5383    0.7082    4.3815 H   0  0  0  0  0  0  0  0  0  0  0  0
  1  2  1  0
  1 22  1  0
  1 23  1  0
  1 24  1  0
  2  3  1  0
  4  3  1  1
  3 25  1  0
  3 26  1  0
  4 18  1  0
  4 19  1  0
  4  5  1  0
  5  6  1  0
  5 27  1  0
  5 28  1  0
  6  7  1  0
  6 29  1  0
  6 30  1  0
  7  8  1  0
  7 19  1  0
  7 31  1  6
  8  9  1  0
  8 32  1  0
  8 33  1  0
  9 10  1  0
  9 18  1  0
 10 11  2  0
 10 12  2  0
 10 13  1  0
 13 17  1  0
 13 14  2  0
 14 15  1  0
 14 34  1  0
 15 16  2  0
 15 35  1  0
 16 17  1  0
 16 36  1  0
 18 37  1  0
 18 38  1  0
 19 20  1  0
 19 21  1  0
 20 39  1  0
 20 40  1  0
 20 41  1  0
 21 42  1  0
 21 43  1  0
 21 44  1  0
M  END
>  <i_m_ct_stereo_status>  (54) 
1

>  <s_m_source_file>  (54) 
/var/tmp/pbs.5076255.sched01/tmpgr0kyu9k/0plolsrat.sdf

>  <i_m_source_file_index>  (54) 
25

>  <i_lp_mmshare_version>  (54) 
48012

>  <i_f3d_flags>  (54) 
0

>  <s_epik_input>  (54) 
W0NIM11PW0NIMl1bQ0BdMTJbQ0gyXVtDSDJdW0NAQEhdKEMyKFtDSDNdKVtDSDNdKVtDSDJdTihbQ0gyXTEpUyg9TykoPU8pYzNbY0hdW2NIXVtjSF1zMw==

>  <s_epik_cmdline>  (54) 
J2VwaWtfcHl0aG9uJywgJy1waHQnLCAnMi4wJywgJy1waCcsICc3LjAnLCAnLXRuJywgJzgnLCAnLW1hJywgJzIwMCcsICctaW1hZScsICc8aW5maWxlLm1hZT4nLCAnLW9tYWUnLCAnPG91dGZpbGUubWFlPic=

>  <r_lp_tautomer_probability>  (54) 
1

>  <r_epik_Ionization_Penalty>  (54) 
9.61883e-11

>  <r_epik_Ionization_Penalty_Charging>  (54) 
0

>  <r_epik_Ionization_Penalty_Neutral>  (54) 
9.61883e-11

>  <r_epik_State_Penalty>  (54) 
-0

>  <r_epik_Charging_Adjusted_Penalty>  (54) 
0

>  <i_epik_Tot_Q>  (54) 
0

>  <i_epik_Tot_abs_Q>  (54) 
0

>  <s_lp_Force_Field>  (54) 
OPLS3e

>  <r_lp_Energy>  (54) 
35.0094

>  <b_lp_Chiralities_Consistent>  (54) 
1

>  <s_lp_Variant>  (54) 
17:0-1

>  <s_i_glide_gridfile>  (54) 
pfpi4k_grid

>  <i_i_glide_lignum>  (54) 
25

>  <i_i_glide_rotatable_bonds>  (54) 
4

>  <r_i_docking_score>  (54) 
-2.14277

>  <r_i_glide_ligand_efficiency>  (54) 
-0.102037

>  <r_i_glide_ligand_efficiency_sa>  (54) 
-0.281512

>  <r_i_glide_ligand_efficiency_ln>  (54) 
-0.529796

>  <r_i_glide_gscore>  (54) 
-2.14277

>  <r_i_glide_lipo>  (54) 
-0.16384

>  <r_i_glide_hbond>  (54) 
0

>  <r_i_glide_metal>  (54) 
-0

>  <r_i_glide_rewards>  (54) 
-1.16264

>  <r_i_glide_evdw>  (54) 
-19.4312

>  <r_i_glide_ecoul>  (54) 
-2.37364

>  <r_i_glide_erotb>  (54) 
0.519416

>  <r_i_glide_esite>  (54) 
-0.00810551

>  <r_i_glide_emodel>  (54) 
-24.1777

>  <r_i_glide_energy>  (54) 
-21.8049

>  <r_i_glide_einternal>  (54) 
1.08804

>  <r_i_glide_intrahb_reward>  (54) 
-0

>  <i_i_glide_confnum>  (54) 
3

>  <i_i_glide_posenum>  (54) 
15

>  <r_i_glide_eff_state_penalty>  (54) 
0

>  <ligand_id>  (54) 
17

>  <original_smiles>  (54) 
COCC12CCC(CN(S(=O)(=O)c3cccs3)C1)C2(C)C

>  <smiles>  (54) 
[H]c1sc(S(=O)(=O)N2C([H])([H])C3([H])C([H])([H])C([H])([H])C(C([H])([H])OC([H])([H])[H])(C2([H])[H])C3(C([H])([H])[H])C([H])([H])[H])c([H])c1[H]

$$$$
17:0:1
     RDKit          3D

 44 46  0  0  1  0  0  0  0  0999 V2000
    0.8916   -3.2413    4.2650 C   0  0  0  0  0  0  0  0  0  0  0  0
    1.1782   -1.9008    4.6082 O   0  0  0  0  0  0  0  0  0  0  0  0
    0.5637   -0.9953    3.7064 C   0  0  0  0  0  0  0  0  0  0  0  0
    0.9348    0.4693    4.0501 C   0  0  2  0  0  0  0  0  0  0  0  0
    2.4581    0.7286    3.8842 C   0  0  0  0  0  0  0  0  0  0  0  0
    2.5783    2.2087    3.4849 C   0  0  0  0  0  0  0  0  0  0  0  0
    1.1234    2.7237    3.4595 C   0  0  2  0  0  0  0  0  0  0  0  0
    0.7449    3.2648    4.8534 C   0  0  0  0  0  0  0  0  0  0  0  0
    0.8374    2.2117    5.8980 N   0  0  0  0  0  0  0  0  0  0  0  0
    0.8759    2.6598    7.5584 S   0  0  0  0  0  0  0  0  0  0  0  0
    1.4387    1.5254    8.3128 O   0  0  0  0  0  0  0  0  0  0  0  0
    1.4505    3.9907    7.6625 O   0  0  0  0  0  0  0  0  0  0  0  0
   -0.8211    2.8027    8.0847 C   0  0  0  0  0  0  0  0  0  0  0  0
   -1.9259    2.8351    7.2867 C   0  0  0  0  0  0  0  0  0  0  0  0
   -3.1425    2.9418    8.0257 C   0  0  0  0  0  0  0  0  0  0  0  0
   -2.9468    2.9892    9.3804 C   0  0  0  0  0  0  0  0  0  0  0  0
   -1.2489    2.9066    9.7777 S   0  0  0  0  0  0  0  0  0  0  0  0
    0.5406    0.8080    5.5180 C   0  0  0  0  0  0  0  0  0  0  0  0
    0.2797    1.4854    3.0678 C   0  0  0  0  0  0  0  0  0  0  0  0
    0.4970    1.1147    1.5751 C   0  0  0  0  0  0  0  0  0  0  0  0
   -1.2483    1.6832    3.2458 C   0  0  0  0  0  0  0  0  0  0  0  0
    1.3938   -3.9025    4.9658 H   0  0  0  0  0  0  0  0  0  0  0  0
    1.2349   -3.4879    3.2607 H   0  0  0  0  0  0  0  0  0  0  0  0
   -0.1812   -3.4294    4.3209 H   0  0  0  0  0  0  0  0  0  0  0  0
    0.8917   -1.2610    2.6987 H   0  0  0  0  0  0  0  0  0  0  0  0
   -0.5186   -1.1314    3.7368 H   0  0  0  0  0  0  0  0  0  0  0  0
    3.0233    0.4994    4.7928 H   0  0  0  0  0  0  0  0  0  0  0  0
    2.8804    0.1090    3.0935 H   0  0  0  0  0  0  0  0  0  0  0  0
    3.2176    2.7796    4.1628 H   0  0  0  0  0  0  0  0  0  0  0  0
    3.0124    2.2964    2.4910 H   0  0  0  0  0  0  0  0  0  0  0  0
    1.0153    3.5250    2.7274 H   0  0  0  0  0  0  0  0  0  0  0  0
    1.3951    4.0984    5.1145 H   0  0  0  0  0  0  0  0  0  0  0  0
   -0.2571    3.6811    4.8483 H   0  0  0  0  0  0  0  0  0  0  0  0
   -1.9115    2.7820    6.2142 H   0  0  0  0  0  0  0  0  0  0  0  0
   -4.1021    2.9465    7.5244 H   0  0  0  0  0  0  0  0  0  0  0  0
   -3.6901    3.0498   10.1720 H   0  0  0  0  0  0  0  0  0  0  0  0
   -0.5139    0.6234    5.6986 H   0  0  0  0  0  0  0  0  0  0  0  0
    1.0632    0.1493    6.2087 H   0  0  0  0  0  0  0  0  0  0  0  0
    0.2057    1.9277    0.9077 H   0  0  0  0  0  0  0  0  0  0  0  0
   -0.1115    0.2617    1.2864 H   0  0  0  0  0  0  0  0  0  0  0  0
    1.5256    0.8555    1.3252 H   0  0  0  0  0  0  0  0  0  0  0  0
   -1.6274    2.4659    2.5843 H   0  0  0  0  0  0  0  0  0  0  0  0
   -1.5623    1.9560    4.2460 H   0  0  0  0  0  0  0  0  0  0  0  0
   -1.7822    0.7671    3.0126 H   0  0  0  0  0  0  0  0  0  0  0  0
  1  2  1  0
  1 22  1  0
  1 23  1  0
  1 24  1  0
  2  3  1  0
  4  3  1  6
  3 25  1  0
  3 26  1  0
  4 18  1  0
  4 19  1  0
  4  5  1  0
  5  6  1  0
  5 27  1  0
  5 28  1  0
  6  7  1  0
  6 29  1  0
  6 30  1  0
  7  8  1  0
  7 19  1  0
  7 31  1  6
  8  9  1  0
  8 32  1  0
  8 33  1  0
  9 10  1  0
  9 18  1  0
 10 11  2  0
 10 12  2  0
 10 13  1  0
 13 17  1  0
 13 14  2  0
 14 15  1  0
 14 34  1  0
 15 16  2  0
 15 35  1  0
 16 17  1  0
 16 36  1  0
 18 37  1  0
 18 38  1  0
 19 20  1  0
 19 21  1  0
 20 39  1  0
 20 40  1  0
 20 41  1  0
 21 42  1  0
 21 43  1  0
 21 44  1  0
M  END
>  <i_m_ct_stereo_status>  (55) 
1

>  <s_m_source_file>  (55) 
/var/tmp/pbs.5076255.sched01/tmpgr0kyu9k/0plolsrat.sdf

>  <i_m_source_file_index>  (55) 
25

>  <i_lp_mmshare_version>  (55) 
48012

>  <i_f3d_flags>  (55) 
0

>  <s_epik_input>  (55) 
W0NIM11PW0NIMl1bQ0BdMTJbQ0gyXVtDSDJdW0NAQEhdKEMyKFtDSDNdKVtDSDNdKVtDSDJdTihbQ0gyXTEpUyg9TykoPU8pYzNbY0hdW2NIXVtjSF1zMw==

>  <s_epik_cmdline>  (55) 
J2VwaWtfcHl0aG9uJywgJy1waHQnLCAnMi4wJywgJy1waCcsICc3LjAnLCAnLXRuJywgJzgnLCAnLW1hJywgJzIwMCcsICctaW1hZScsICc8aW5maWxlLm1hZT4nLCAnLW9tYWUnLCAnPG91dGZpbGUubWFlPic=

>  <r_lp_tautomer_probability>  (55) 
1

>  <r_epik_Ionization_Penalty>  (55) 
9.61883e-11

>  <r_epik_Ionization_Penalty_Charging>  (55) 
0

>  <r_epik_Ionization_Penalty_Neutral>  (55) 
9.61883e-11

>  <r_epik_State_Penalty>  (55) 
-0

>  <r_epik_Charging_Adjusted_Penalty>  (55) 
0

>  <i_epik_Tot_Q>  (55) 
0

>  <i_epik_Tot_abs_Q>  (55) 
0

>  <s_lp_Force_Field>  (55) 
OPLS3e

>  <r_lp_Energy>  (55) 
35.0094

>  <b_lp_Chiralities_Consistent>  (55) 
1

>  <s_lp_Variant>  (55) 
17:0-1

>  <s_i_glide_gridfile>  (55) 
pfpi4k_grid

>  <i_i_glide_lignum>  (55) 
25

>  <i_i_glide_rotatable_bonds>  (55) 
4

>  <r_i_docking_score>  (55) 
-2.01024

>  <r_i_glide_ligand_efficiency>  (55) 
-0.0957259

>  <r_i_glide_ligand_efficiency_sa>  (55) 
-0.2641

>  <r_i_glide_ligand_efficiency_ln>  (55) 
-0.497029

>  <r_i_glide_gscore>  (55) 
-2.01024

>  <r_i_glide_lipo>  (55) 
-0.172125

>  <r_i_glide_hbond>  (55) 
0

>  <r_i_glide_metal>  (55) 
-0

>  <r_i_glide_rewards>  (55) 
-1.16264

>  <r_i_glide_evdw>  (55) 
-18.4818

>  <r_i_glide_ecoul>  (55) 
-1.80325

>  <r_i_glide_erotb>  (55) 
0.519416

>  <r_i_glide_esite>  (55) 
-0.000318855

>  <r_i_glide_emodel>  (55) 
-22.9012

>  <r_i_glide_energy>  (55) 
-20.2851

>  <r_i_glide_einternal>  (55) 
0.398261

>  <r_i_glide_intrahb_reward>  (55) 
-0

>  <i_i_glide_confnum>  (55) 
3

>  <i_i_glide_posenum>  (55) 
1

>  <r_i_glide_eff_state_penalty>  (55) 
0

>  <ligand_id>  (55) 
17

>  <original_smiles>  (55) 
COCC12CCC(CN(S(=O)(=O)c3cccs3)C1)C2(C)C

>  <smiles>  (55) 
[H]c1sc(S(=O)(=O)N2C([H])([H])C3([H])C([H])([H])C([H])([H])C(C([H])([H])OC([H])([H])[H])(C2([H])[H])C3(C([H])([H])[H])C([H])([H])[H])c([H])c1[H]

$$$$
18:0:0
     RDKit          3D

 52 56  0  0  1  0  0  0  0  0999 V2000
    2.5880  -11.1966    3.8715 C   0  0  0  0  0  0  0  0  0  0  0  0
    3.0001   -9.7608    4.2409 C   0  0  0  0  0  0  0  0  0  0  0  0
    2.8965   -9.4296    5.7412 C   0  0  0  0  0  0  0  0  0  0  0  0
    2.2613   -8.7661    3.4262 C   0  0  0  0  0  0  0  0  0  0  0  0
    2.8317   -7.9309    2.5444 N   0  0  0  0  0  0  0  0  0  0  0  0
    1.8244   -7.1772    1.9607 C   0  0  0  0  0  0  0  0  0  0  0  0
    1.9956   -6.1670    0.8716 C   0  0  0  0  0  0  0  0  0  0  0  0
    1.0958   -5.8552    0.0951 O   0  0  0  0  0  0  0  0  0  0  0  0
    3.2323   -5.6332    0.8778 N   0  0  0  0  0  0  0  0  0  0  0  0
    3.7886   -4.5330    0.0705 C   0  0  2  0  0  0  0  0  0  0  0  0
    5.3502   -4.5146    0.0970 C   0  0  2  0  0  0  0  0  0  0  0  0
    5.8860   -4.2389    1.5255 C   0  0  0  0  0  0  0  0  0  0  0  0
    5.3417   -2.8850    2.0330 C   0  0  2  0  0  0  0  0  0  0  0  0
    3.7944   -2.9008    2.0258 C   0  0  0  0  0  0  0  0  0  0  0  0
    3.2856   -3.1630    0.5852 C   0  0  1  0  0  0  0  0  0  0  0  0
    3.7890   -2.0422   -0.3454 C   0  0  0  0  0  0  0  0  0  0  0  0
    5.3290   -2.0422   -0.3211 C   0  0  1  0  0  0  0  0  0  0  0  0
    5.8091   -1.0420   -1.1780 O   0  0  0  0  0  0  0  0  0  0  0  0
    5.8370   -1.7609    1.1094 C   0  0  0  0  0  0  0  0  0  0  0  0
    5.8594   -3.3914   -0.8338 C   0  0  0  0  0  0  0  0  0  0  0  0
    0.6398   -7.5404    2.5334 C   0  0  0  0  0  0  0  0  0  0  0  0
   -0.6603   -7.0593    2.3050 C   0  0  0  0  0  0  0  0  0  0  0  0
   -1.6592   -7.5493    3.0281 N   0  0  0  0  0  0  0  0  0  0  0  0
   -1.3622   -8.5414    3.9124 C   0  0  0  0  0  0  0  0  0  0  0  0
   -0.1175   -9.1343    4.1989 C   0  0  0  0  0  0  0  0  0  0  0  0
    0.9212   -8.5519    3.4671 N   0  0  0  0  0  0  0  0  0  0  0  0
    2.7520  -11.3765    2.8045 H   0  0  0  0  0  0  0  0  0  0  0  0
    1.5345  -11.3966    4.0673 H   0  0  0  0  0  0  0  0  0  0  0  0
    3.1713  -11.9200    4.4436 H   0  0  0  0  0  0  0  0  0  0  0  0
    4.0428   -9.6317    3.9438 H   0  0  0  0  0  0  0  0  0  0  0  0
    3.2515   -8.4113    5.9250 H   0  0  0  0  0  0  0  0  0  0  0  0
    3.4876  -10.1337    6.3287 H   0  0  0  0  0  0  0  0  0  0  0  0
    1.8773   -9.4780    6.1235 H   0  0  0  0  0  0  0  0  0  0  0  0
    3.8138   -6.0359    1.5924 H   0  0  0  0  0  0  0  0  0  0  0  0
    3.4819   -4.6312   -0.9731 H   0  0  0  0  0  0  0  0  0  0  0  0
    5.7531   -5.4585   -0.2711 H   0  0  0  0  0  0  0  0  0  0  0  0
    5.5937   -5.0353    2.2050 H   0  0  0  0  0  0  0  0  0  0  0  0
    6.9794   -4.2330    1.5345 H   0  0  0  0  0  0  0  0  0  0  0  0
    5.7081   -2.7063    3.0440 H   0  0  0  0  0  0  0  0  0  0  0  0
    3.4256   -3.6626    2.7118 H   0  0  0  0  0  0  0  0  0  0  0  0
    3.3958   -1.9532    2.3934 H   0  0  0  0  0  0  0  0  0  0  0  0
    2.1985   -3.1417    0.5656 H   0  0  0  0  0  0  0  0  0  0  0  0
    3.4191   -2.1900   -1.3621 H   0  0  0  0  0  0  0  0  0  0  0  0
    3.3905   -1.0808   -0.0169 H   0  0  0  0  0  0  0  0  0  0  0  0
    5.3923   -0.2233   -0.9175 H   0  0  0  0  0  0  0  0  0  0  0  0
    5.4673   -0.7988    1.4668 H   0  0  0  0  0  0  0  0  0  0  0  0
    6.9269   -1.7090    1.1367 H   0  0  0  0  0  0  0  0  0  0  0  0
    6.9515   -3.3675   -0.8720 H   0  0  0  0  0  0  0  0  0  0  0  0
    5.5190   -3.5604   -1.8571 H   0  0  0  0  0  0  0  0  0  0  0  0
   -0.8834   -6.3236    1.5524 H   0  0  0  0  0  0  0  0  0  0  0  0
   -2.1989   -8.9478    4.4444 H   0  0  0  0  0  0  0  0  0  0  0  0
    0.0280   -9.9389    4.9250 H   0  0  0  0  0  0  0  0  0  0  0  0
  1  2  1  0
  1 27  1  0
  1 28  1  0
  1 29  1  0
  2  3  1  0
  2  4  1  0
  2 30  1  0
  3 31  1  0
  3 32  1  0
  3 33  1  0
  4 26  1  0
  4  5  2  0
  5  6  1  0
  6  7  1  0
  6 21  2  0
  7  8  2  0
  7  9  1  0
  9 10  1  0
  9 34  1  0
 10 15  1  0
 10 11  1  0
 10 35  1  6
 11 20  1  0
 11 12  1  0
 11 36  1  6
 12 13  1  0
 12 37  1  0
 12 38  1  0
 13 19  1  0
 13 14  1  0
 13 39  1  1
 14 15  1  0
 14 40  1  0
 14 41  1  0
 15 16  1  0
 15 42  1  1
 16 17  1  0
 16 43  1  0
 16 44  1  0
 17 18  1  6
 17 19  1  0
 17 20  1  0
 18 45  1  0
 19 46  1  0
 19 47  1  0
 20 48  1  0
 20 49  1  0
 21 26  1  0
 21 22  1  0
 22 23  2  0
 22 50  1  0
 23 24  1  0
 24 25  2  0
 24 51  1  0
 25 26  1  0
 25 52  1  0
M  END
>  <i_m_ct_stereo_status>  (56) 
1

>  <s_m_source_file>  (56) 
/var/tmp/pbs.5076255.sched01/tmpgr0kyu9k/0plolsrat.sdf

>  <i_m_source_file_index>  (56) 
26

>  <i_lp_mmshare_version>  (56) 
48012

>  <i_f3d_flags>  (56) 
0

>  <s_epik_input>  (56) 
W2NIXTFuW2NIXVtjSF1uKGMxMiljKFtDSF0oW0NIM10pW0NIM10pbmMyQyg9TylbTkhdW0NASF0oW0NAQEhdKFtDSDJdMylbQ0gyXVtDQEhdKFtDSDJdNClbQ0gyXTUpW0NAQEhdNFtDSDJdW0NAXTM1W09IXQ==

>  <s_epik_cmdline>  (56) 
J2VwaWtfcHl0aG9uJywgJy1waHQnLCAnMi4wJywgJy1waCcsICc3LjAnLCAnLXRuJywgJzgnLCAnLW1hJywgJzIwMCcsICctaW1hZScsICc8aW5maWxlLm1hZT4nLCAnLW9tYWUnLCAnPG91dGZpbGUubWFlPic=

>  <r_epik_Ionization_Penalty>  (56) 
0.0152943

>  <r_epik_Ionization_Penalty_Charging>  (56) 
0

>  <r_epik_Ionization_Penalty_Neutral>  (56) 
0.0152943

>  <r_epik_State_Penalty>  (56) 
0.0119887

>  <r_epik_Charging_Adjusted_Penalty>  (56) 
0.0119887

>  <i_epik_Tot_Q>  (56) 
0

>  <i_epik_Tot_abs_Q>  (56) 
0

>  <s_lp_Force_Field>  (56) 
OPLS3e

>  <r_lp_Energy>  (56) 
5.382

>  <b_lp_Chiralities_Consistent>  (56) 
1

>  <s_lp_Variant>  (56) 
18:0-1

>  <s_i_glide_gridfile>  (56) 
pfpi4k_grid

>  <i_i_glide_lignum>  (56) 
26

>  <i_i_glide_rotatable_bonds>  (56) 
5

>  <r_i_docking_score>  (56) 
-4.31802

>  <r_i_glide_ligand_efficiency>  (56) 
-0.166078

>  <r_i_glide_ligand_efficiency_sa>  (56) 
-0.492004

>  <r_i_glide_ligand_efficiency_ln>  (56) 
-1.01407

>  <r_i_glide_gscore>  (56) 
-4.31802

>  <r_i_glide_lipo>  (56) 
-0.395301

>  <r_i_glide_hbond>  (56) 
-0.557612

>  <r_i_glide_metal>  (56) 
-0

>  <r_i_glide_rewards>  (56) 
-0.992413

>  <r_i_glide_evdw>  (56) 
-24.2009

>  <r_i_glide_ecoul>  (56) 
-10.3067

>  <r_i_glide_erotb>  (56) 
0.456305

>  <r_i_glide_esite>  (56) 
-0.0729498

>  <r_i_glide_emodel>  (56) 
-43.8237

>  <r_i_glide_energy>  (56) 
-34.5076

>  <r_i_glide_einternal>  (56) 
3.34698

>  <r_i_glide_intrahb_reward>  (56) 
-0

>  <i_i_glide_confnum>  (56) 
2

>  <i_i_glide_posenum>  (56) 
15

>  <r_i_glide_eff_state_penalty>  (56) 
0

>  <ligand_id>  (56) 
18

>  <original_smiles>  (56) 
CC(C)c1nc(C(=O)NC2C3CC4CC2CC(O)(C4)C3)c2cnccn12

>  <smiles>  (56) 
[H]OC12C([H])([H])C3([H])C([H])([H])C([H])(C1([H])[H])C([H])(N([H])C(=O)c1nc(C([H])(C([H])([H])[H])C([H])([H])[H])n4c([H])c([H])nc([H])c14)C([H])(C3([H])[H])C2([H])[H]

$$$$
18:0:1
     RDKit          3D

 52 56  0  0  1  0  0  0  0  0999 V2000
    1.4124   -9.8883    5.4121 C   0  0  0  0  0  0  0  0  0  0  0  0
    0.8937   -9.9799    3.9706 C   0  0  0  0  0  0  0  0  0  0  0  0
    0.7540  -11.4220    3.4518 C   0  0  0  0  0  0  0  0  0  0  0  0
    1.7120   -9.1365    3.0610 C   0  0  0  0  0  0  0  0  0  0  0  0
    1.2829   -8.0098    2.4855 N   0  0  0  0  0  0  0  0  0  0  0  0
    2.3331   -7.4844    1.7173 C   0  0  0  0  0  0  0  0  0  0  0  0
    2.2030   -6.2608    0.8776 C   0  0  0  0  0  0  0  0  0  0  0  0
    1.1187   -5.8607    0.4573 O   0  0  0  0  0  0  0  0  0  0  0  0
    3.3364   -5.6133    0.6275 N   0  0  0  0  0  0  0  0  0  0  0  0
    3.4683   -4.4447   -0.2363 C   0  0  2  0  0  0  0  0  0  0  0  0
    4.8782   -4.4492   -0.8693 C   0  0  2  0  0  0  0  0  0  0  0  0
    5.9572   -4.3538    0.2361 C   0  0  0  0  0  0  0  0  0  0  0  0
    5.7526   -3.0493    1.0369 C   0  0  2  0  0  0  0  0  0  0  0  0
    4.3455   -3.0307    1.6762 C   0  0  0  0  0  0  0  0  0  0  0  0
    3.2775   -3.1282    0.5594 C   0  0  1  0  0  0  0  0  0  0  0  0
    3.4225   -1.9240   -0.4004 C   0  0  0  0  0  0  0  0  0  0  0  0
    4.8327   -1.9410   -1.0305 C   0  0  1  0  0  0  0  0  0  0  0  0
    4.9870   -0.8432   -1.9059 O   0  0  0  0  0  0  0  0  0  0  0  0
    5.8947   -1.8435    0.0876 C   0  0  0  0  0  0  0  0  0  0  0  0
    5.0124   -3.2512   -1.8297 C   0  0  0  0  0  0  0  0  0  0  0  0
    3.4066   -8.3485    1.8440 C   0  0  0  0  0  0  0  0  0  0  0  0
    4.7034   -8.3177    1.2850 C   0  0  0  0  0  0  0  0  0  0  0  0
    5.5876   -9.2742    1.5977 N   0  0  0  0  0  0  0  0  0  0  0  0
    5.1757  -10.2517    2.4503 C   0  0  0  0  0  0  0  0  0  0  0  0
    3.9073  -10.3909    3.0576 C   0  0  0  0  0  0  0  0  0  0  0  0
    3.0130   -9.3730    2.7121 N   0  0  0  0  0  0  0  0  0  0  0  0
    1.4201   -8.8523    5.7574 H   0  0  0  0  0  0  0  0  0  0  0  0
    2.4336  -10.2644    5.4983 H   0  0  0  0  0  0  0  0  0  0  0  0
    0.7864  -10.4705    6.0857 H   0  0  0  0  0  0  0  0  0  0  0  0
   -0.1113   -9.5429    3.9633 H   0  0  0  0  0  0  0  0  0  0  0  0
    0.3231  -11.4188    2.4491 H   0  0  0  0  0  0  0  0  0  0  0  0
    0.1259  -12.0120    4.1163 H   0  0  0  0  0  0  0  0  0  0  0  0
    1.7025  -11.9536    3.3835 H   0  0  0  0  0  0  0  0  0  0  0  0
    4.1780   -5.9529    1.0802 H   0  0  0  0  0  0  0  0  0  0  0  0
    2.7203   -4.4732   -1.0367 H   0  0  0  0  0  0  0  0  0  0  0  0
    5.0162   -5.3742   -1.4312 H   0  0  0  0  0  0  0  0  0  0  0  0
    5.9140   -5.2124    0.9056 H   0  0  0  0  0  0  0  0  0  0  0  0
    6.9535   -4.3812   -0.2056 H   0  0  0  0  0  0  0  0  0  0  0  0
    6.5096   -2.9881    1.8181 H   0  0  0  0  0  0  0  0  0  0  0  0
    4.2444   -3.8540    2.3834 H   0  0  0  0  0  0  0  0  0  0  0  0
    4.2010   -2.1205    2.2610 H   0  0  0  0  0  0  0  0  0  0  0  0
    2.2793   -3.1014    1.0037 H   0  0  0  0  0  0  0  0  0  0  0  0
    2.6615   -1.9749   -1.1821 H   0  0  0  0  0  0  0  0  0  0  0  0
    3.2500   -0.9917    0.1424 H   0  0  0  0  0  0  0  0  0  0  0  0
    4.7002   -0.0621   -1.4580 H   0  0  0  0  0  0  0  0  0  0  0  0
    5.7653   -0.9174    0.6501 H   0  0  0  0  0  0  0  0  0  0  0  0
    6.8998   -1.8219   -0.3318 H   0  0  0  0  0  0  0  0  0  0  0  0
    5.9819   -3.2758   -2.3297 H   0  0  0  0  0  0  0  0  0  0  0  0
    4.2537   -3.3257   -2.6118 H   0  0  0  0  0  0  0  0  0  0  0  0
    5.0537   -7.5572    0.5978 H   0  0  0  0  0  0  0  0  0  0  0  0
    5.9007  -11.0106    2.6661 H   0  0  0  0  0  0  0  0  0  0  0  0
    3.6501  -11.1841    3.7460 H   0  0  0  0  0  0  0  0  0  0  0  0
  1  2  1  0
  1 27  1  0
  1 28  1  0
  1 29  1  0
  2  3  1  0
  2  4  1  0
  2 30  1  0
  3 31  1  0
  3 32  1  0
  3 33  1  0
  4 26  1  0
  4  5  2  0
  5  6  1  0
  6  7  1  0
  6 21  2  0
  7  8  2  0
  7  9  1  0
  9 10  1  0
  9 34  1  0
 10 15  1  0
 10 11  1  0
 10 35  1  6
 11 20  1  0
 11 12  1  0
 11 36  1  6
 12 13  1  0
 12 37  1  0
 12 38  1  0
 13 19  1  0
 13 14  1  0
 13 39  1  1
 14 15  1  0
 14 40  1  0
 14 41  1  0
 15 16  1  0
 15 42  1  1
 16 17  1  0
 16 43  1  0
 16 44  1  0
 17 18  1  6
 17 19  1  0
 17 20  1  0
 18 45  1  0
 19 46  1  0
 19 47  1  0
 20 48  1  0
 20 49  1  0
 21 26  1  0
 21 22  1  0
 22 23  2  0
 22 50  1  0
 23 24  1  0
 24 25  2  0
 24 51  1  0
 25 26  1  0
 25 52  1  0
M  END
>  <i_m_ct_stereo_status>  (57) 
1

>  <s_m_source_file>  (57) 
/var/tmp/pbs.5076255.sched01/tmpgr0kyu9k/0plolsrat.sdf

>  <i_m_source_file_index>  (57) 
26

>  <i_lp_mmshare_version>  (57) 
48012

>  <i_f3d_flags>  (57) 
0

>  <s_epik_input>  (57) 
W2NIXTFuW2NIXVtjSF1uKGMxMiljKFtDSF0oW0NIM10pW0NIM10pbmMyQyg9TylbTkhdW0NASF0oW0NAQEhdKFtDSDJdMylbQ0gyXVtDQEhdKFtDSDJdNClbQ0gyXTUpW0NAQEhdNFtDSDJdW0NAXTM1W09IXQ==

>  <s_epik_cmdline>  (57) 
J2VwaWtfcHl0aG9uJywgJy1waHQnLCAnMi4wJywgJy1waCcsICc3LjAnLCAnLXRuJywgJzgnLCAnLW1hJywgJzIwMCcsICctaW1hZScsICc8aW5maWxlLm1hZT4nLCAnLW9tYWUnLCAnPG91dGZpbGUubWFlPic=

>  <r_epik_Ionization_Penalty>  (57) 
0.0152943

>  <r_epik_Ionization_Penalty_Charging>  (57) 
0

>  <r_epik_Ionization_Penalty_Neutral>  (57) 
0.0152943

>  <r_epik_State_Penalty>  (57) 
0.0119887

>  <r_epik_Charging_Adjusted_Penalty>  (57) 
0.0119887

>  <i_epik_Tot_Q>  (57) 
0

>  <i_epik_Tot_abs_Q>  (57) 
0

>  <s_lp_Force_Field>  (57) 
OPLS3e

>  <r_lp_Energy>  (57) 
5.382

>  <b_lp_Chiralities_Consistent>  (57) 
1

>  <s_lp_Variant>  (57) 
18:0-1

>  <s_i_glide_gridfile>  (57) 
pfpi4k_grid

>  <i_i_glide_lignum>  (57) 
26

>  <i_i_glide_rotatable_bonds>  (57) 
5

>  <r_i_docking_score>  (57) 
-3.99952

>  <r_i_glide_ligand_efficiency>  (57) 
-0.153828

>  <r_i_glide_ligand_efficiency_sa>  (57) 
-0.455714

>  <r_i_glide_ligand_efficiency_ln>  (57) 
-0.939275

>  <r_i_glide_gscore>  (57) 
-3.99952

>  <r_i_glide_lipo>  (57) 
-0.410868

>  <r_i_glide_hbond>  (57) 
-0.274948

>  <r_i_glide_metal>  (57) 
-0

>  <r_i_glide_rewards>  (57) 
-0.992413

>  <r_i_glide_evdw>  (57) 
-27.6953

>  <r_i_glide_ecoul>  (57) 
-8.90073

>  <r_i_glide_erotb>  (57) 
0.456305

>  <r_i_glide_esite>  (57) 
-0.0577239

>  <r_i_glide_emodel>  (57) 
-45.7059

>  <r_i_glide_energy>  (57) 
-36.596

>  <r_i_glide_einternal>  (57) 
2.09625

>  <r_i_glide_intrahb_reward>  (57) 
-0

>  <i_i_glide_confnum>  (57) 
2

>  <i_i_glide_posenum>  (57) 
12

>  <r_i_glide_eff_state_penalty>  (57) 
0

>  <ligand_id>  (57) 
18

>  <original_smiles>  (57) 
CC(C)c1nc(C(=O)NC2C3CC4CC2CC(O)(C4)C3)c2cnccn12

>  <smiles>  (57) 
[H]OC12C([H])([H])C3([H])C([H])([H])C([H])(C1([H])[H])C([H])(N([H])C(=O)c1nc(C([H])(C([H])([H])[H])C([H])([H])[H])n4c([H])c([H])nc([H])c14)C([H])(C3([H])[H])C2([H])[H]

$$$$
18:0:2
     RDKit          3D

 52 56  0  0  1  0  0  0  0  0999 V2000
    2.3550  -11.3032    3.8335 C   0  0  0  0  0  0  0  0  0  0  0  0
    2.8751   -9.8874    4.1434 C   0  0  0  0  0  0  0  0  0  0  0  0
    2.8918   -9.5298    5.6360 C   0  0  0  0  0  0  0  0  0  0  0  0
    2.1550   -8.8514    3.3674 C   0  0  0  0  0  0  0  0  0  0  0  0
    2.7189   -8.0118    2.4828 N   0  0  0  0  0  0  0  0  0  0  0  0
    1.7073   -7.2177    1.9469 C   0  0  0  0  0  0  0  0  0  0  0  0
    1.8822   -6.1919    0.8710 C   0  0  0  0  0  0  0  0  0  0  0  0
    0.9976   -5.8632    0.0883 O   0  0  0  0  0  0  0  0  0  0  0  0
    3.1246   -5.6646    0.8950 N   0  0  0  0  0  0  0  0  0  0  0  0
    3.6857   -4.5639    0.0924 C   0  0  2  0  0  0  0  0  0  0  0  0
    5.2449   -4.6129    0.0437 C   0  0  2  0  0  0  0  0  0  0  0  0
    5.8586   -4.4016    1.4510 C   0  0  0  0  0  0  0  0  0  0  0  0
    5.4022   -3.0374    2.0121 C   0  0  2  0  0  0  0  0  0  0  0  0
    3.8593   -2.9847    2.0826 C   0  0  0  0  0  0  0  0  0  0  0  0
    3.2731   -3.1858    0.6640 C   0  0  1  0  0  0  0  0  0  0  0  0
    3.7852   -2.0613   -0.2650 C   0  0  0  0  0  0  0  0  0  0  0  0
    5.3261   -2.1214   -0.3254 C   0  0  1  0  0  0  0  0  0  0  0  0
    5.8037   -1.1018   -1.1709 O   0  0  0  0  0  0  0  0  0  0  0  0
    5.9092   -1.9131    1.0896 C   0  0  0  0  0  0  0  0  0  0  0  0
    5.7617   -3.4898   -0.8909 C   0  0  0  0  0  0  0  0  0  0  0  0
    0.5350   -7.5632    2.5557 C   0  0  0  0  0  0  0  0  0  0  0  0
   -0.7602   -7.0542    2.3751 C   0  0  0  0  0  0  0  0  0  0  0  0
   -1.7599   -7.5362    3.1236 N   0  0  0  0  0  0  0  0  0  0  0  0
   -1.4421   -8.5430    3.9854 C   0  0  0  0  0  0  0  0  0  0  0  0
   -0.1927   -9.1466    4.2404 C   0  0  0  0  0  0  0  0  0  0  0  0
    0.8325   -8.5895    3.4643 N   0  0  0  0  0  0  0  0  0  0  0  0
    2.4203  -11.5043    2.7618 H   0  0  0  0  0  0  0  0  0  0  0  0
    1.3138  -11.4566    4.1151 H   0  0  0  0  0  0  0  0  0  0  0  0
    2.9349  -12.0504    4.3742 H   0  0  0  0  0  0  0  0  0  0  0  0
    3.9008   -9.8301    3.7753 H   0  0  0  0  0  0  0  0  0  0  0  0
    3.3294   -8.5400    5.7875 H   0  0  0  0  0  0  0  0  0  0  0  0
    3.4707  -10.2624    6.1954 H   0  0  0  0  0  0  0  0  0  0  0  0
    1.8906   -9.5051    6.0675 H   0  0  0  0  0  0  0  0  0  0  0  0
    3.7100   -6.0650    1.6058 H   0  0  0  0  0  0  0  0  0  0  0  0
    3.3178   -4.6274   -0.9309 H   0  0  0  0  0  0  0  0  0  0  0  0
    5.5808   -5.5703   -0.3557 H   0  0  0  0  0  0  0  0  0  0  0  0
    5.5588   -5.2015    2.1249 H   0  0  0  0  0  0  0  0  0  0  0  0
    6.9494   -4.4488    1.4104 H   0  0  0  0  0  0  0  0  0  0  0  0
    5.8177   -2.9010    3.0098 H   0  0  0  0  0  0  0  0  0  0  0  0
    3.4881   -3.7481    2.7662 H   0  0  0  0  0  0  0  0  0  0  0  0
    3.5230   -2.0315    2.4936 H   0  0  0  0  0  0  0  0  0  0  0  0
    2.1889   -3.1203    0.6999 H   0  0  0  0  0  0  0  0  0  0  0  0
    3.3512   -2.1692   -1.2611 H   0  0  0  0  0  0  0  0  0  0  0  0
    3.4523   -1.0901    0.1050 H   0  0  0  0  0  0  0  0  0  0  0  0
    5.2616   -1.1021   -1.9445 H   0  0  0  0  0  0  0  0  0  0  0  0
    5.5977   -0.9448    1.4844 H   0  0  0  0  0  0  0  0  0  0  0  0
    7.0000   -1.9079    1.0701 H   0  0  0  0  0  0  0  0  0  0  0  0
    6.8499   -3.5231   -0.9829 H   0  0  0  0  0  0  0  0  0  0  0  0
    5.3595   -3.6293   -1.8963 H   0  0  0  0  0  0  0  0  0  0  0  0
   -1.0026   -6.3036    1.6449 H   0  0  0  0  0  0  0  0  0  0  0  0
   -2.2670   -8.9570    4.5223 H   0  0  0  0  0  0  0  0  0  0  0  0
   -0.0365   -9.9488    4.9607 H   0  0  0  0  0  0  0  0  0  0  0  0
  1  2  1  0
  1 27  1  0
  1 28  1  0
  1 29  1  0
  2  3  1  0
  2  4  1  0
  2 30  1  0
  3 31  1  0
  3 32  1  0
  3 33  1  0
  4 26  1  0
  4  5  2  0
  5  6  1  0
  6  7  1  0
  6 21  2  0
  7  8  2  0
  7  9  1  0
  9 10  1  0
  9 34  1  0
 10 15  1  0
 10 11  1  0
 10 35  1  6
 11 20  1  0
 11 12  1  0
 11 36  1  6
 12 13  1  0
 12 37  1  0
 12 38  1  0
 13 19  1  0
 13 14  1  0
 13 39  1  1
 14 15  1  0
 14 40  1  0
 14 41  1  0
 15 16  1  0
 15 42  1  1
 16 17  1  0
 16 43  1  0
 16 44  1  0
 17 18  1  6
 17 19  1  0
 17 20  1  0
 18 45  1  0
 19 46  1  0
 19 47  1  0
 20 48  1  0
 20 49  1  0
 21 26  1  0
 21 22  1  0
 22 23  2  0
 22 50  1  0
 23 24  1  0
 24 25  2  0
 24 51  1  0
 25 26  1  0
 25 52  1  0
M  END
>  <i_m_ct_stereo_status>  (58) 
1

>  <s_m_source_file>  (58) 
/var/tmp/pbs.5076255.sched01/tmpgr0kyu9k/0plolsrat.sdf

>  <i_m_source_file_index>  (58) 
26

>  <i_lp_mmshare_version>  (58) 
48012

>  <i_f3d_flags>  (58) 
0

>  <s_epik_input>  (58) 
W2NIXTFuW2NIXVtjSF1uKGMxMiljKFtDSF0oW0NIM10pW0NIM10pbmMyQyg9TylbTkhdW0NASF0oW0NAQEhdKFtDSDJdMylbQ0gyXVtDQEhdKFtDSDJdNClbQ0gyXTUpW0NAQEhdNFtDSDJdW0NAXTM1W09IXQ==

>  <s_epik_cmdline>  (58) 
J2VwaWtfcHl0aG9uJywgJy1waHQnLCAnMi4wJywgJy1waCcsICc3LjAnLCAnLXRuJywgJzgnLCAnLW1hJywgJzIwMCcsICctaW1hZScsICc8aW5maWxlLm1hZT4nLCAnLW9tYWUnLCAnPG91dGZpbGUubWFlPic=

>  <r_epik_Ionization_Penalty>  (58) 
0.0152943

>  <r_epik_Ionization_Penalty_Charging>  (58) 
0

>  <r_epik_Ionization_Penalty_Neutral>  (58) 
0.0152943

>  <r_epik_State_Penalty>  (58) 
0.0119887

>  <r_epik_Charging_Adjusted_Penalty>  (58) 
0.0119887

>  <i_epik_Tot_Q>  (58) 
0

>  <i_epik_Tot_abs_Q>  (58) 
0

>  <s_lp_Force_Field>  (58) 
OPLS3e

>  <r_lp_Energy>  (58) 
5.382

>  <b_lp_Chiralities_Consistent>  (58) 
1

>  <s_lp_Variant>  (58) 
18:0-1

>  <s_i_glide_gridfile>  (58) 
pfpi4k_grid

>  <i_i_glide_lignum>  (58) 
26

>  <i_i_glide_rotatable_bonds>  (58) 
5

>  <r_i_docking_score>  (58) 
-3.93297

>  <r_i_glide_ligand_efficiency>  (58) 
-0.151268

>  <r_i_glide_ligand_efficiency_sa>  (58) 
-0.448131

>  <r_i_glide_ligand_efficiency_ln>  (58) 
-0.923644

>  <r_i_glide_gscore>  (58) 
-3.93297

>  <r_i_glide_lipo>  (58) 
-0.374086

>  <r_i_glide_hbond>  (58) 
-0.441191

>  <r_i_glide_metal>  (58) 
-0

>  <r_i_glide_rewards>  (58) 
-0.992413

>  <r_i_glide_evdw>  (58) 
-23.7452

>  <r_i_glide_ecoul>  (58) 
-8.73645

>  <r_i_glide_erotb>  (58) 
0.456305

>  <r_i_glide_esite>  (58) 
-0.0838532

>  <r_i_glide_emodel>  (58) 
-40.6451

>  <r_i_glide_energy>  (58) 
-32.4816

>  <r_i_glide_einternal>  (58) 
3.45096

>  <r_i_glide_intrahb_reward>  (58) 
-0

>  <i_i_glide_confnum>  (58) 
2

>  <i_i_glide_posenum>  (58) 
33

>  <r_i_glide_eff_state_penalty>  (58) 
0

>  <ligand_id>  (58) 
18

>  <original_smiles>  (58) 
CC(C)c1nc(C(=O)NC2C3CC4CC2CC(O)(C4)C3)c2cnccn12

>  <smiles>  (58) 
[H]OC12C([H])([H])C3([H])C([H])([H])C([H])(C1([H])[H])C([H])(N([H])C(=O)c1nc(C([H])(C([H])([H])[H])C([H])([H])[H])n4c([H])c([H])nc([H])c14)C([H])(C3([H])[H])C2([H])[H]

$$$$
18:1:0
     RDKit          3D

 53 57  0  0  1  0  0  0  0  0999 V2000
    8.1098   -7.8519    2.0533 C   0  0  0  0  0  0  0  0  0  0  0  0
    7.7208   -6.4502    2.5517 C   0  0  0  0  0  0  0  0  0  0  0  0
    7.3876   -6.4722    4.0544 C   0  0  0  0  0  0  0  0  0  0  0  0
    6.6076   -5.8633    1.7361 C   0  0  0  0  0  0  0  0  0  0  0  0
    5.3476   -6.2806    1.8501 N   0  0  0  0  0  0  0  0  0  0  0  0
    4.5314   -5.6015    0.9759 C   0  0  0  0  0  0  0  0  0  0  0  0
    3.0562   -5.8160    0.8847 C   0  0  0  0  0  0  0  0  0  0  0  0
    2.3054   -5.0276    0.3113 O   0  0  0  0  0  0  0  0  0  0  0  0
    2.6252   -6.9192    1.5143 N   0  0  0  0  0  0  0  0  0  0  0  0
    1.2505   -7.2831    1.8594 C   0  0  2  0  0  0  0  0  0  0  0  0
    0.7187   -6.4273    3.0445 C   0  0  2  0  0  0  0  0  0  0  0  0
    1.5655   -6.6618    4.3232 C   0  0  0  0  0  0  0  0  0  0  0  0
    1.5083   -8.1548    4.7155 C   0  0  2  0  0  0  0  0  0  0  0  0
    2.0492   -9.0212    3.5562 C   0  0  0  0  0  0  0  0  0  0  0  0
    1.1928   -8.7758    2.2851 C   0  0  1  0  0  0  0  0  0  0  0  0
   -0.2704   -9.1762    2.5800 C   0  0  0  0  0  0  0  0  0  0  0  0
   -0.8062   -8.3165    3.7430 C   0  0  1  0  0  0  0  0  0  0  0  0
   -2.1426   -8.6517    4.0149 O   0  0  0  0  0  0  0  0  0  0  0  0
    0.0492   -8.5531    5.0063 C   0  0  0  0  0  0  0  0  0  0  0  0
   -0.7441   -6.8276    3.3299 C   0  0  0  0  0  0  0  0  0  0  0  0
    5.3136   -4.6969    0.2732 C   0  0  0  0  0  0  0  0  0  0  0  0
    5.2033   -3.6942   -0.7383 C   0  0  0  0  0  0  0  0  0  0  0  0
    6.2560   -2.9782   -1.2141 N   0  0  0  0  0  0  0  0  0  0  0  0
    7.4807   -3.2353   -0.6979 C   0  0  0  0  0  0  0  0  0  0  0  0
    7.6731   -4.1962    0.3082 C   0  0  0  0  0  0  0  0  0  0  0  0
    6.5890   -4.9196    0.7880 N   0  0  0  0  0  0  0  0  0  0  0  0
    8.4129   -7.8269    1.0066 H   0  0  0  0  0  0  0  0  0  0  0  0
    7.2916   -8.5677    2.1512 H   0  0  0  0  0  0  0  0  0  0  0  0
    8.9565   -8.2410    2.6223 H   0  0  0  0  0  0  0  0  0  0  0  0
    8.5648   -5.7849    2.4075 H   0  0  0  0  0  0  0  0  0  0  0  0
    7.1682   -5.4693    4.4203 H   0  0  0  0  0  0  0  0  0  0  0  0
    8.2310   -6.8525    4.6341 H   0  0  0  0  0  0  0  0  0  0  0  0
    6.5285   -7.1082    4.2750 H   0  0  0  0  0  0  0  0  0  0  0  0
    3.3200   -7.5349    1.9089 H   0  0  0  0  0  0  0  0  0  0  0  0
    0.6207   -7.1405    0.9757 H   0  0  0  0  0  0  0  0  0  0  0  0
    0.7537   -5.3671    2.7889 H   0  0  0  0  0  0  0  0  0  0  0  0
    2.5986   -6.3590    4.1655 H   0  0  0  0  0  0  0  0  0  0  0  0
    1.2030   -6.0387    5.1444 H   0  0  0  0  0  0  0  0  0  0  0  0
    2.1114   -8.3205    5.6090 H   0  0  0  0  0  0  0  0  0  0  0  0
    3.0984   -8.7932    3.3766 H   0  0  0  0  0  0  0  0  0  0  0  0
    2.0263  -10.0786    3.8314 H   0  0  0  0  0  0  0  0  0  0  0  0
    1.5681   -9.4038    1.4780 H   0  0  0  0  0  0  0  0  0  0  0  0
   -0.8948   -9.0382    1.6952 H   0  0  0  0  0  0  0  0  0  0  0  0
   -0.3352  -10.2346    2.8409 H   0  0  0  0  0  0  0  0  0  0  0  0
   -2.1785   -9.5564    4.3802 H   0  0  0  0  0  0  0  0  0  0  0  0
    0.0003   -9.6040    5.2945 H   0  0  0  0  0  0  0  0  0  0  0  0
   -0.3334   -7.9803    5.8525 H   0  0  0  0  0  0  0  0  0  0  0  0
   -1.1634   -6.2063    4.1224 H   0  0  0  0  0  0  0  0  0  0  0  0
   -1.3493   -6.6719    2.4362 H   0  0  0  0  0  0  0  0  0  0  0  0
    4.2382   -3.4808   -1.1706 H   0  0  0  0  0  0  0  0  0  0  0  0
    8.3271   -2.6822   -1.0959 H   0  0  0  0  0  0  0  0  0  0  0  0
    8.6432   -4.4067    0.7171 H   0  0  0  0  0  0  0  0  0  0  0  0
    5.0596   -6.9776    2.5215 H   0  0  0  0  0  0  0  0  0  0  0  0
  1  2  1  0
  1 27  1  0
  1 28  1  0
  1 29  1  0
  2  3  1  0
  2  4  1  0
  2 30  1  0
  3 31  1  0
  3 32  1  0
  3 33  1  0
  4 26  1  0
  4  5  2  0
  5  6  1  0
  5 53  1  0
  6  7  1  0
  6 21  2  0
  7  8  2  0
  7  9  1  0
  9 10  1  0
  9 34  1  0
 10 15  1  0
 10 11  1  0
 10 35  1  6
 11 20  1  0
 11 12  1  0
 11 36  1  6
 12 13  1  0
 12 37  1  0
 12 38  1  0
 13 19  1  0
 13 14  1  0
 13 39  1  1
 14 15  1  0
 14 40  1  0
 14 41  1  0
 15 16  1  0
 15 42  1  6
 16 17  1  0
 16 43  1  0
 16 44  1  0
 17 18  1  1
 17 19  1  0
 17 20  1  0
 18 45  1  0
 19 46  1  0
 19 47  1  0
 20 48  1  0
 20 49  1  0
 21 26  1  0
 21 22  1  0
 22 23  2  0
 22 50  1  0
 23 24  1  0
 24 25  2  0
 24 51  1  0
 25 26  1  0
 25 52  1  0
M  CHG  1   5   1
M  END
>  <i_m_ct_stereo_status>  (59) 
1

>  <s_m_source_file>  (59) 
/var/tmp/pbs.5076255.sched01/tmpgr0kyu9k/0plolsrat.sdf

>  <i_m_source_file_index>  (59) 
27

>  <i_lp_mmshare_version>  (59) 
48012

>  <i_f3d_flags>  (59) 
0

>  <s_epik_input>  (59) 
W2NIXTFuW2NIXVtjSF1uKGMxMiljKFtDSF0oW0NIM10pW0NIM10pbmMyQyg9TylbTkhdW0NASF0oW0NAQEhdKFtDSDJdMylbQ0gyXVtDQEhdKFtDSDJdNClbQ0gyXTUpW0NAQEhdNFtDSDJdW0NAXTM1W09IXQ==

>  <s_epik_cmdline>  (59) 
J2VwaWtfcHl0aG9uJywgJy1waHQnLCAnMi4wJywgJy1waCcsICc3LjAnLCAnLXRuJywgJzgnLCAnLW1hJywgJzIwMCcsICctaW1hZScsICc8aW5maWxlLm1hZT4nLCAnLW9tYWUnLCAnPG91dGZpbGUubWFlPic=

>  <r_epik_Ionization_Penalty>  (59) 
2.17529

>  <r_epik_Ionization_Penalty_Charging>  (59) 
2.17528

>  <r_epik_Ionization_Penalty_Neutral>  (59) 
5.40768e-06

>  <r_epik_State_Penalty>  (59) 
2.3169

>  <r_epik_Charging_Adjusted_Penalty>  (59) 
4.49218

>  <i_epik_Tot_Q>  (59) 
1

>  <i_epik_Tot_abs_Q>  (59) 
1

>  <s_lp_Force_Field>  (59) 
OPLS3e

>  <r_lp_Energy>  (59) 
6.92647

>  <b_lp_Chiralities_Consistent>  (59) 
1

>  <s_lp_Variant>  (59) 
18:0-2

>  <s_i_glide_gridfile>  (59) 
pfpi4k_grid

>  <i_i_glide_lignum>  (59) 
27

>  <i_i_glide_rotatable_bonds>  (59) 
5

>  <r_i_docking_score>  (59) 
-3.82122

>  <r_i_glide_ligand_efficiency>  (59) 
-0.14697

>  <r_i_glide_ligand_efficiency_sa>  (59) 
-0.435398

>  <r_i_glide_ligand_efficiency_ln>  (59) 
-0.897401

>  <r_i_glide_gscore>  (59) 
-3.82122

>  <r_i_glide_lipo>  (59) 
-0.493098

>  <r_i_glide_hbond>  (59) 
-0.161551

>  <r_i_glide_metal>  (59) 
-0

>  <r_i_glide_rewards>  (59) 
-1.22939

>  <r_i_glide_evdw>  (59) 
-25.8996

>  <r_i_glide_ecoul>  (59) 
-7.23753

>  <r_i_glide_erotb>  (59) 
0.454004

>  <r_i_glide_esite>  (59) 
-0.0105734

>  <r_i_glide_emodel>  (59) 
-40.9946

>  <r_i_glide_energy>  (59) 
-33.1372

>  <r_i_glide_einternal>  (59) 
2.19528

>  <r_i_glide_intrahb_reward>  (59) 
-0

>  <i_i_glide_confnum>  (59) 
4

>  <i_i_glide_posenum>  (59) 
10

>  <r_i_glide_eff_state_penalty>  (59) 
0

>  <ligand_id>  (59) 
18

>  <original_smiles>  (59) 
CC(C)c1nc(C(=O)NC2C3CC4CC2CC(O)(C4)C3)c2cnccn12

>  <smiles>  (59) 
[H]OC12C([H])([H])C3([H])C([H])([H])C([H])(C1([H])[H])C([H])(N([H])C(=O)c1c4c([H])nc([H])c([H])n4c(C([H])(C([H])([H])[H])C([H])([H])[H])[n+]1[H])C([H])(C3([H])[H])C2([H])[H]

$$$$
18:1:1
     RDKit          3D

 53 57  0  0  1  0  0  0  0  0999 V2000
    6.6141   -1.0480    0.5821 C   0  0  0  0  0  0  0  0  0  0  0  0
    6.6753   -2.5231    0.1714 C   0  0  0  0  0  0  0  0  0  0  0  0
    7.7267   -2.7923   -0.9170 C   0  0  0  0  0  0  0  0  0  0  0  0
    5.3219   -3.0444   -0.2051 C   0  0  0  0  0  0  0  0  0  0  0  0
    4.6966   -3.9983    0.4976 N   0  0  0  0  0  0  0  0  0  0  0  0
    3.4698   -4.2711   -0.0744 C   0  0  0  0  0  0  0  0  0  0  0  0
    2.5366   -5.3147    0.4578 C   0  0  0  0  0  0  0  0  0  0  0  0
    1.4392   -5.5329   -0.0821 O   0  0  0  0  0  0  0  0  0  0  0  0
    2.9688   -5.9465    1.5560 N   0  0  0  0  0  0  0  0  0  0  0  0
    2.2677   -6.9301    2.3633 C   0  0  2  0  0  0  0  0  0  0  0  0
    1.1554   -6.2710    3.2302 C   0  0  2  0  0  0  0  0  0  0  0  0
    1.7641   -5.2370    4.2128 C   0  0  0  0  0  0  0  0  0  0  0  0
    2.7779   -5.9416    5.1413 C   0  0  2  0  0  0  0  0  0  0  0  0
    3.9014   -6.5894    4.3014 C   0  0  0  0  0  0  0  0  0  0  0  0
    3.2794   -7.6219    3.3230 C   0  0  1  0  0  0  0  0  0  0  0  0
    2.5540   -8.7176    4.1385 C   0  0  0  0  0  0  0  0  0  0  0  0
    1.4355   -8.0642    4.9788 C   0  0  1  0  0  0  0  0  0  0  0  0
    0.7521   -9.0500    5.7244 O   0  0  0  0  0  0  0  0  0  0  0  0
    2.0543   -7.0349    5.9531 C   0  0  0  0  0  0  0  0  0  0  0  0
    0.4295   -7.3689    4.0339 C   0  0  0  0  0  0  0  0  0  0  0  0
    3.3151   -3.4581   -1.1767 C   0  0  0  0  0  0  0  0  0  0  0  0
    2.3908   -3.1742   -2.2297 C   0  0  0  0  0  0  0  0  0  0  0  0
    2.6074   -2.2833   -3.2303 N   0  0  0  0  0  0  0  0  0  0  0  0
    3.7530   -1.5713   -3.1984 C   0  0  0  0  0  0  0  0  0  0  0  0
    4.7098   -1.7743   -2.1988 C   0  0  0  0  0  0  0  0  0  0  0  0
    4.4944   -2.7224   -1.2040 N   0  0  0  0  0  0  0  0  0  0  0  0
    5.9320   -0.8993    1.4221 H   0  0  0  0  0  0  0  0  0  0  0  0
    6.2524   -0.4142   -0.2259 H   0  0  0  0  0  0  0  0  0  0  0  0
    7.5971   -0.6911    0.8801 H   0  0  0  0  0  0  0  0  0  0  0  0
    6.9482   -3.1040    1.0527 H   0  0  0  0  0  0  0  0  0  0  0  0
    7.8028   -3.8536   -1.1249 H   0  0  0  0  0  0  0  0  0  0  0  0
    8.7118   -2.4399   -0.6117 H   0  0  0  0  0  0  0  0  0  0  0  0
    7.4850   -2.3013   -1.8597 H   0  0  0  0  0  0  0  0  0  0  0  0
    3.8519   -5.6576    1.9391 H   0  0  0  0  0  0  0  0  0  0  0  0
    1.8260   -7.6860    1.7022 H   0  0  0  0  0  0  0  0  0  0  0  0
    0.4342   -5.7730    2.5846 H   0  0  0  0  0  0  0  0  0  0  0  0
    2.2574   -4.4303    3.6717 H   0  0  0  0  0  0  0  0  0  0  0  0
    0.9801   -4.7559    4.7981 H   0  0  0  0  0  0  0  0  0  0  0  0
    3.2080   -5.2104    5.8284 H   0  0  0  0  0  0  0  0  0  0  0  0
    4.4598   -5.8198    3.7682 H   0  0  0  0  0  0  0  0  0  0  0  0
    4.6308   -7.0747    4.9547 H   0  0  0  0  0  0  0  0  0  0  0  0
    4.0740   -8.0909    2.7416 H   0  0  0  0  0  0  0  0  0  0  0  0
    2.1361   -9.4733    3.4697 H   0  0  0  0  0  0  0  0  0  0  0  0
    3.2599   -9.2351    4.7869 H   0  0  0  0  0  0  0  0  0  0  0  0
    1.3730   -9.6344    6.1298 H   0  0  0  0  0  0  0  0  0  0  0  0
    2.7619   -7.5268    6.6229 H   0  0  0  0  0  0  0  0  0  0  0  0
    1.2854   -6.5889    6.5849 H   0  0  0  0  0  0  0  0  0  0  0  0
   -0.4031   -6.9460    4.5989 H   0  0  0  0  0  0  0  0  0  0  0  0
   -0.0000   -8.1009    3.3485 H   0  0  0  0  0  0  0  0  0  0  0  0
    1.4539   -3.7067   -2.2845 H   0  0  0  0  0  0  0  0  0  0  0  0
    3.9204   -0.8308   -3.9605 H   0  0  0  0  0  0  0  0  0  0  0  0
    5.6132   -1.2220   -2.1710 H   0  0  0  0  0  0  0  0  0  0  0  0
    5.0947   -4.4311    1.3168 H   0  0  0  0  0  0  0  0  0  0  0  0
  1  2  1  0
  1 27  1  0
  1 28  1  0
  1 29  1  0
  2  3  1  0
  2  4  1  0
  2 30  1  0
  3 31  1  0
  3 32  1  0
  3 33  1  0
  4 26  1  0
  4  5  2  0
  5  6  1  0
  5 53  1  0
  6  7  1  0
  6 21  2  0
  7  8  2  0
  7  9  1  0
  9 10  1  0
  9 34  1  0
 10 15  1  0
 10 11  1  0
 10 35  1  6
 11 20  1  0
 11 12  1  0
 11 36  1  6
 12 13  1  0
 12 37  1  0
 12 38  1  0
 13 19  1  0
 13 14  1  0
 13 39  1  1
 14 15  1  0
 14 40  1  0
 14 41  1  0
 15 16  1  0
 15 42  1  6
 16 17  1  0
 16 43  1  0
 16 44  1  0
 17 18  1  1
 17 19  1  0
 17 20  1  0
 18 45  1  0
 19 46  1  0
 19 47  1  0
 20 48  1  0
 20 49  1  0
 21 26  1  0
 21 22  1  0
 22 23  2  0
 22 50  1  0
 23 24  1  0
 24 25  2  0
 24 51  1  0
 25 26  1  0
 25 52  1  0
M  CHG  1   5   1
M  END
>  <i_m_ct_stereo_status>  (60) 
1

>  <s_m_source_file>  (60) 
/var/tmp/pbs.5076255.sched01/tmpgr0kyu9k/0plolsrat.sdf

>  <i_m_source_file_index>  (60) 
27

>  <i_lp_mmshare_version>  (60) 
48012

>  <i_f3d_flags>  (60) 
0

>  <s_epik_input>  (60) 
W2NIXTFuW2NIXVtjSF1uKGMxMiljKFtDSF0oW0NIM10pW0NIM10pbmMyQyg9TylbTkhdW0NASF0oW0NAQEhdKFtDSDJdMylbQ0gyXVtDQEhdKFtDSDJdNClbQ0gyXTUpW0NAQEhdNFtDSDJdW0NAXTM1W09IXQ==

>  <s_epik_cmdline>  (60) 
J2VwaWtfcHl0aG9uJywgJy1waHQnLCAnMi4wJywgJy1waCcsICc3LjAnLCAnLXRuJywgJzgnLCAnLW1hJywgJzIwMCcsICctaW1hZScsICc8aW5maWxlLm1hZT4nLCAnLW9tYWUnLCAnPG91dGZpbGUubWFlPic=

>  <r_epik_Ionization_Penalty>  (60) 
2.17529

>  <r_epik_Ionization_Penalty_Charging>  (60) 
2.17528

>  <r_epik_Ionization_Penalty_Neutral>  (60) 
5.40768e-06

>  <r_epik_State_Penalty>  (60) 
2.3169

>  <r_epik_Charging_Adjusted_Penalty>  (60) 
4.49218

>  <i_epik_Tot_Q>  (60) 
1

>  <i_epik_Tot_abs_Q>  (60) 
1

>  <s_lp_Force_Field>  (60) 
OPLS3e

>  <r_lp_Energy>  (60) 
6.92647

>  <b_lp_Chiralities_Consistent>  (60) 
1

>  <s_lp_Variant>  (60) 
18:0-2

>  <s_i_glide_gridfile>  (60) 
pfpi4k_grid

>  <i_i_glide_lignum>  (60) 
27

>  <i_i_glide_rotatable_bonds>  (60) 
5

>  <r_i_docking_score>  (60) 
-3.12328

>  <r_i_glide_ligand_efficiency>  (60) 
-0.120126

>  <r_i_glide_ligand_efficiency_sa>  (60) 
-0.355873

>  <r_i_glide_ligand_efficiency_ln>  (60) 
-0.733492

>  <r_i_glide_gscore>  (60) 
-3.12328

>  <r_i_glide_lipo>  (60) 
-0.303905

>  <r_i_glide_hbond>  (60) 
-0.173749

>  <r_i_glide_metal>  (60) 
-0

>  <r_i_glide_rewards>  (60) 
-1.02792

>  <r_i_glide_evdw>  (60) 
-25.6312

>  <r_i_glide_ecoul>  (60) 
-4.8672

>  <r_i_glide_erotb>  (60) 
0.454004

>  <r_i_glide_esite>  (60) 
-0.0600619

>  <r_i_glide_emodel>  (60) 
-36.7996

>  <r_i_glide_energy>  (60) 
-30.4984

>  <r_i_glide_einternal>  (60) 
1.70899

>  <r_i_glide_intrahb_reward>  (60) 
-0

>  <i_i_glide_confnum>  (60) 
6

>  <i_i_glide_posenum>  (60) 
7

>  <r_i_glide_eff_state_penalty>  (60) 
0

>  <ligand_id>  (60) 
18

>  <original_smiles>  (60) 
CC(C)c1nc(C(=O)NC2C3CC4CC2CC(O)(C4)C3)c2cnccn12

>  <smiles>  (60) 
[H]OC12C([H])([H])C3([H])C([H])([H])C([H])(C1([H])[H])C([H])(N([H])C(=O)c1c4c([H])nc([H])c([H])n4c(C([H])(C([H])([H])[H])C([H])([H])[H])[n+]1[H])C([H])(C3([H])[H])C2([H])[H]

$$$$
18:1:2
     RDKit          3D

 53 57  0  0  1  0  0  0  0  0999 V2000
    5.8895   -3.0707   -2.2148 C   0  0  0  0  0  0  0  0  0  0  0  0
    4.4953   -3.6594   -1.9459 C   0  0  0  0  0  0  0  0  0  0  0  0
    3.5322   -3.3707   -3.1096 C   0  0  0  0  0  0  0  0  0  0  0  0
    3.9337   -3.1938   -0.6303 C   0  0  0  0  0  0  0  0  0  0  0  0
    3.8722   -1.9050   -0.2714 N   0  0  0  0  0  0  0  0  0  0  0  0
    3.2919   -1.7842    0.9624 C   0  0  0  0  0  0  0  0  0  0  0  0
    3.1279   -0.4631    1.6459 C   0  0  0  0  0  0  0  0  0  0  0  0
    3.7956    0.4975    1.2745 O   0  0  0  0  0  0  0  0  0  0  0  0
    2.1917   -0.3984    2.5997 N   0  0  0  0  0  0  0  0  0  0  0  0
    1.7931    0.8044    3.3334 C   0  0  2  0  0  0  0  0  0  0  0  0
    1.2736    0.3966    4.7328 C   0  0  2  0  0  0  0  0  0  0  0  0
    0.0221   -0.5063    4.5993 C   0  0  0  0  0  0  0  0  0  0  0  0
   -1.0843    0.2646    3.8488 C   0  0  2  0  0  0  0  0  0  0  0  0
   -0.5787    0.6805    2.4478 C   0  0  0  0  0  0  0  0  0  0  0  0
    0.6677    1.5798    2.5954 C   0  0  1  0  0  0  0  0  0  0  0  0
    0.2881    2.8437    3.4008 C   0  0  0  0  0  0  0  0  0  0  0  0
   -0.2163    2.4287    4.7985 C   0  0  1  0  0  0  0  0  0  0  0  0
   -0.5638    3.5836    5.5344 O   0  0  0  0  0  0  0  0  0  0  0  0
   -1.4657    1.5299    4.6457 C   0  0  0  0  0  0  0  0  0  0  0  0
    0.9102    1.6659    5.5336 C   0  0  0  0  0  0  0  0  0  0  0  0
    2.9856   -3.0432    1.4275 C   0  0  0  0  0  0  0  0  0  0  0  0
    2.4119   -3.6811    2.5690 C   0  0  0  0  0  0  0  0  0  0  0  0
    2.2308   -5.0190    2.6801 N   0  0  0  0  0  0  0  0  0  0  0  0
    2.6422   -5.8008    1.6552 C   0  0  0  0  0  0  0  0  0  0  0  0
    3.2300   -5.2602    0.4957 C   0  0  0  0  0  0  0  0  0  0  0  0
    3.3926   -3.8785    0.3926 N   0  0  0  0  0  0  0  0  0  0  0  0
    6.5839   -3.3354   -1.4166 H   0  0  0  0  0  0  0  0  0  0  0  0
    5.8570   -1.9837   -2.2918 H   0  0  0  0  0  0  0  0  0  0  0  0
    6.3052   -3.4556   -3.1471 H   0  0  0  0  0  0  0  0  0  0  0  0
    4.6164   -4.7365   -1.8622 H   0  0  0  0  0  0  0  0  0  0  0  0
    2.5630   -3.8463   -2.9485 H   0  0  0  0  0  0  0  0  0  0  0  0
    3.9274   -3.7586   -4.0498 H   0  0  0  0  0  0  0  0  0  0  0  0
    3.3596   -2.3004   -3.2353 H   0  0  0  0  0  0  0  0  0  0  0  0
    1.6384   -1.2226    2.7745 H   0  0  0  0  0  0  0  0  0  0  0  0
    2.6613    1.4574    3.4495 H   0  0  0  0  0  0  0  0  0  0  0  0
    2.0572   -0.1455    5.2625 H   0  0  0  0  0  0  0  0  0  0  0  0
    0.2585   -1.4273    4.0669 H   0  0  0  0  0  0  0  0  0  0  0  0
   -0.3284   -0.8189    5.5832 H   0  0  0  0  0  0  0  0  0  0  0  0
   -1.9587   -0.3763    3.7466 H   0  0  0  0  0  0  0  0  0  0  0  0
   -0.3130   -0.1918    1.8546 H   0  0  0  0  0  0  0  0  0  0  0  0
   -1.3652    1.1975    1.8940 H   0  0  0  0  0  0  0  0  0  0  0  0
    1.0098    1.8854    1.6052 H   0  0  0  0  0  0  0  0  0  0  0  0
    1.1495    3.5081    3.4817 H   0  0  0  0  0  0  0  0  0  0  0  0
   -0.4858    3.4096    2.8792 H   0  0  0  0  0  0  0  0  0  0  0  0
    0.1962    4.1448    5.5774 H   0  0  0  0  0  0  0  0  0  0  0  0
   -2.2560    2.0693    4.1204 H   0  0  0  0  0  0  0  0  0  0  0  0
   -1.8738    1.2600    5.6203 H   0  0  0  0  0  0  0  0  0  0  0  0
    0.6057    1.4025    6.5473 H   0  0  0  0  0  0  0  0  0  0  0  0
    1.7917    2.3017    5.6326 H   0  0  0  0  0  0  0  0  0  0  0  0
    2.0799   -3.0967    3.4103 H   0  0  0  0  0  0  0  0  0  0  0  0
    2.5071   -6.8696    1.7661 H   0  0  0  0  0  0  0  0  0  0  0  0
    3.5650   -5.8892   -0.3148 H   0  0  0  0  0  0  0  0  0  0  0  0
    4.1850   -1.1210   -0.8286 H   0  0  0  0  0  0  0  0  0  0  0  0
  1  2  1  0
  1 27  1  0
  1 28  1  0
  1 29  1  0
  2  3  1  0
  2  4  1  0
  2 30  1  0
  3 31  1  0
  3 32  1  0
  3 33  1  0
  4 26  1  0
  4  5  2  0
  5  6  1  0
  5 53  1  0
  6  7  1  0
  6 21  2  0
  7  8  2  0
  7  9  1  0
  9 10  1  0
  9 34  1  0
 10 15  1  0
 10 11  1  0
 10 35  1  1
 11 20  1  0
 11 12  1  0
 11 36  1  1
 12 13  1  0
 12 37  1  0
 12 38  1  0
 13 19  1  0
 13 14  1  0
 13 39  1  6
 14 15  1  0
 14 40  1  0
 14 41  1  0
 15 16  1  0
 15 42  1  6
 16 17  1  0
 16 43  1  0
 16 44  1  0
 17 18  1  1
 17 19  1  0
 17 20  1  0
 18 45  1  0
 19 46  1  0
 19 47  1  0
 20 48  1  0
 20 49  1  0
 21 26  1  0
 21 22  1  0
 22 23  2  0
 22 50  1  0
 23 24  1  0
 24 25  2  0
 24 51  1  0
 25 26  1  0
 25 52  1  0
M  CHG  1   5   1
M  END
>  <i_m_ct_stereo_status>  (61) 
1

>  <s_m_source_file>  (61) 
/var/tmp/pbs.5076255.sched01/tmpgr0kyu9k/0plolsrat.sdf

>  <i_m_source_file_index>  (61) 
27

>  <i_lp_mmshare_version>  (61) 
48012

>  <i_f3d_flags>  (61) 
0

>  <s_epik_input>  (61) 
W2NIXTFuW2NIXVtjSF1uKGMxMiljKFtDSF0oW0NIM10pW0NIM10pbmMyQyg9TylbTkhdW0NASF0oW0NAQEhdKFtDSDJdMylbQ0gyXVtDQEhdKFtDSDJdNClbQ0gyXTUpW0NAQEhdNFtDSDJdW0NAXTM1W09IXQ==

>  <s_epik_cmdline>  (61) 
J2VwaWtfcHl0aG9uJywgJy1waHQnLCAnMi4wJywgJy1waCcsICc3LjAnLCAnLXRuJywgJzgnLCAnLW1hJywgJzIwMCcsICctaW1hZScsICc8aW5maWxlLm1hZT4nLCAnLW9tYWUnLCAnPG91dGZpbGUubWFlPic=

>  <r_epik_Ionization_Penalty>  (61) 
2.17529

>  <r_epik_Ionization_Penalty_Charging>  (61) 
2.17528

>  <r_epik_Ionization_Penalty_Neutral>  (61) 
5.40768e-06

>  <r_epik_State_Penalty>  (61) 
2.3169

>  <r_epik_Charging_Adjusted_Penalty>  (61) 
4.49218

>  <i_epik_Tot_Q>  (61) 
1

>  <i_epik_Tot_abs_Q>  (61) 
1

>  <s_lp_Force_Field>  (61) 
OPLS3e

>  <r_lp_Energy>  (61) 
6.92647

>  <b_lp_Chiralities_Consistent>  (61) 
1

>  <s_lp_Variant>  (61) 
18:0-2

>  <s_i_glide_gridfile>  (61) 
pfpi4k_grid

>  <i_i_glide_lignum>  (61) 
27

>  <i_i_glide_rotatable_bonds>  (61) 
5

>  <r_i_docking_score>  (61) 
-2.80943

>  <r_i_glide_ligand_efficiency>  (61) 
-0.108055

>  <r_i_glide_ligand_efficiency_sa>  (61) 
-0.320113

>  <r_i_glide_ligand_efficiency_ln>  (61) 
-0.659785

>  <r_i_glide_gscore>  (61) 
-2.80943

>  <r_i_glide_lipo>  (61) 
-0.199445

>  <r_i_glide_hbond>  (61) 
0

>  <r_i_glide_metal>  (61) 
-0

>  <r_i_glide_rewards>  (61) 
-1.02487

>  <r_i_glide_evdw>  (61) 
-25.1734

>  <r_i_glide_ecoul>  (61) 
-4.5419

>  <r_i_glide_erotb>  (61) 
0.454004

>  <r_i_glide_esite>  (61) 
-0.0991667

>  <r_i_glide_emodel>  (61) 
-36.005

>  <r_i_glide_energy>  (61) 
-29.7153

>  <r_i_glide_einternal>  (61) 
0.396686

>  <r_i_glide_intrahb_reward>  (61) 
-0

>  <i_i_glide_confnum>  (61) 
1

>  <i_i_glide_posenum>  (61) 
4

>  <r_i_glide_eff_state_penalty>  (61) 
0

>  <ligand_id>  (61) 
18

>  <original_smiles>  (61) 
CC(C)c1nc(C(=O)NC2C3CC4CC2CC(O)(C4)C3)c2cnccn12

>  <smiles>  (61) 
[H]OC12C([H])([H])C3([H])C([H])([H])C([H])(C1([H])[H])C([H])(N([H])C(=O)c1c4c([H])nc([H])c([H])n4c(C([H])(C([H])([H])[H])C([H])([H])[H])[n+]1[H])C([H])(C3([H])[H])C2([H])[H]

$$$$
19:0:0
     RDKit          3D

 31 33  0  0  1  0  0  0  0  0999 V2000
    2.5772   -4.0497   -0.0547 C   0  0  0  0  0  0  0  0  0  0  0  0
    3.9375   -3.7587    0.5763 C   0  0  1  0  0  0  0  0  0  0  0  0
    4.3448   -4.9255    1.3687 C   0  0  0  0  0  0  0  0  0  0  0  0
    4.6690   -5.8459    1.9973 N   0  0  0  0  0  0  0  0  0  0  0  0
    5.0761   -3.4094   -0.4129 C   0  0  1  0  0  0  0  0  0  0  0  0
    4.6525   -2.6481   -1.6885 C   0  0  0  0  0  0  0  0  0  0  0  0
    4.5215   -1.2349   -1.7696 C   0  0  0  0  0  0  0  0  0  0  0  0
    4.1346   -0.6422   -2.9866 C   0  0  0  0  0  0  0  0  0  0  0  0
    3.8634   -1.4901   -4.0771 C   0  0  0  0  0  0  0  0  0  0  0  0
    3.9832   -2.8752   -3.8911 C   0  0  0  0  0  0  0  0  0  0  0  0
    4.3967   -3.4497   -2.7438 N   0  0  0  0  0  0  0  0  0  0  0  0
    5.9778   -2.5247    0.4049 C   0  0  0  0  0  0  0  0  0  0  0  0
    7.5866   -2.2862    0.0829 S   0  0  0  0  0  0  0  0  0  0  0  0
    5.1993   -1.9485    1.3736 N   0  0  0  0  0  0  0  0  0  0  0  0
    5.5530   -1.2972    2.5909 C   0  0  0  0  0  0  0  0  0  0  0  0
    4.7811   -1.9186    3.5775 O   0  0  0  0  0  0  0  0  0  0  0  0
    3.6399   -2.5498    2.9741 C   0  0  0  0  0  0  0  0  0  0  0  0
    3.8906   -2.4859    1.4531 C   0  0  2  0  0  0  0  0  0  0  0  0
    2.1761   -3.2010   -0.6065 H   0  0  0  0  0  0  0  0  0  0  0  0
    1.8608   -4.3166    0.7199 H   0  0  0  0  0  0  0  0  0  0  0  0
    2.6353   -4.9002   -0.7227 H   0  0  0  0  0  0  0  0  0  0  0  0
    5.6082   -4.3200   -0.6960 H   0  0  0  0  0  0  0  0  0  0  0  0
    4.7116   -0.5682   -0.9323 H   0  0  0  0  0  0  0  0  0  0  0  0
    4.0686    0.4304   -3.0740 H   0  0  0  0  0  0  0  0  0  0  0  0
    3.5541   -1.0645   -5.0276 H   0  0  0  0  0  0  0  0  0  0  0  0
    3.7808   -3.5615   -4.6972 H   0  0  0  0  0  0  0  0  0  0  0  0
    6.6110   -1.4089    2.8031 H   0  0  0  0  0  0  0  0  0  0  0  0
    5.2817   -0.2443    2.5010 H   0  0  0  0  0  0  0  0  0  0  0  0
    3.5225   -3.5567    3.3830 H   0  0  0  0  0  0  0  0  0  0  0  0
    2.7320   -2.0065    3.2385 H   0  0  0  0  0  0  0  0  0  0  0  0
    3.2351   -1.7284    1.0080 H   0  0  0  0  0  0  0  0  0  0  0  0
  1  2  1  0
  1 19  1  0
  1 20  1  0
  1 21  1  0
  2 18  1  0
  2  3  1  1
  2  5  1  0
  3  4  3  0
  5  6  1  0
  5 12  1  0
  5 22  1  6
  6 11  1  0
  6  7  2  0
  7  8  1  0
  7 23  1  0
  8  9  2  0
  8 24  1  0
  9 10  1  0
  9 25  1  0
 10 11  2  0
 10 26  1  0
 12 13  2  0
 12 14  1  0
 14 18  1  0
 14 15  1  0
 15 16  1  0
 15 27  1  0
 15 28  1  0
 16 17  1  0
 17 18  1  0
 17 29  1  0
 17 30  1  0
 18 31  1  6
M  END
>  <i_m_ct_stereo_status>  (62) 
1

>  <s_m_source_file>  (62) 
/var/tmp/pbs.5076255.sched01/tmpgr0kyu9k/0plolsrat.sdf

>  <i_m_source_file_index>  (62) 
28

>  <i_lp_mmshare_version>  (62) 
48012

>  <i_f3d_flags>  (62) 
0

>  <s_epik_input>  (62) 
W0NIMl0xT1tDSDJdW0NAQEhdKE4xMilbQ0BdKFtDSDNdKShDI04pW0NASF0oQzI9UyljM1tjSF1bY0hdW2NIXVtjSF1uMw==

>  <s_epik_cmdline>  (62) 
J2VwaWtfcHl0aG9uJywgJy1waHQnLCAnMi4wJywgJy1waCcsICc3LjAnLCAnLXRuJywgJzgnLCAnLW1hJywgJzIwMCcsICctaW1hZScsICc8aW5maWxlLm1hZT4nLCAnLW9tYWUnLCAnPG91dGZpbGUubWFlPic=

>  <r_epik_Ionization_Penalty>  (62) 
0.00362387

>  <r_epik_Ionization_Penalty_Charging>  (62) 
0

>  <r_epik_Ionization_Penalty_Neutral>  (62) 
0.00362387

>  <r_epik_State_Penalty>  (62) 
0.00257729

>  <r_epik_Charging_Adjusted_Penalty>  (62) 
0.00257729

>  <i_epik_Tot_Q>  (62) 
0

>  <i_epik_Tot_abs_Q>  (62) 
0

>  <s_epik_Chemistry_Notes>  (62) 
This compound contains an acetal/aminal-like group ( X-CH(R)-Y where X, Y are N, S, or O) that may be acid/base labile, releasing an aldehyde.

>  <s_lp_Force_Field>  (62) 
OPLS3e

>  <r_lp_Energy>  (62) 
19.3153

>  <b_lp_Chiralities_Consistent>  (62) 
1

>  <s_lp_Variant>  (62) 
19:0-1

>  <s_i_glide_gridfile>  (62) 
pfpi4k_grid

>  <i_i_glide_lignum>  (62) 
28

>  <i_i_glide_rotatable_bonds>  (62) 
2

>  <r_i_docking_score>  (62) 
-3.46899

>  <r_i_glide_ligand_efficiency>  (62) 
-0.192722

>  <r_i_glide_ligand_efficiency_sa>  (62) 
-0.505074

>  <r_i_glide_ligand_efficiency_ln>  (62) 
-0.891686

>  <r_i_glide_gscore>  (62) 
-3.46899

>  <r_i_glide_lipo>  (62) 
-0.30265

>  <r_i_glide_hbond>  (62) 
0

>  <r_i_glide_metal>  (62) 
-0

>  <r_i_glide_rewards>  (62) 
-2.06823

>  <r_i_glide_evdw>  (62) 
-25.7455

>  <r_i_glide_ecoul>  (62) 
-0.491702

>  <r_i_glide_erotb>  (62) 
0.262922

>  <r_i_glide_esite>  (62) 
0

>  <r_i_glide_emodel>  (62) 
-29.7212

>  <r_i_glide_energy>  (62) 
-26.2372

>  <r_i_glide_einternal>  (62) 
2.3667

>  <r_i_glide_intrahb_reward>  (62) 
-0

>  <i_i_glide_confnum>  (62) 
4

>  <i_i_glide_posenum>  (62) 
11

>  <r_i_glide_eff_state_penalty>  (62) 
0

>  <ligand_id>  (62) 
19

>  <original_smiles>  (62) 
CC1(C#N)C(c2ccccn2)C(=S)N2COCC21

>  <smiles>  (62) 
[H]c1nc(C2([H])C(=S)N3C([H])([H])OC([H])([H])C3([H])C2(C#N)C([H])([H])[H])c([H])c([H])c1[H]

$$$$
19:0:1
     RDKit          3D

 31 33  0  0  1  0  0  0  0  0999 V2000
    4.0599   -5.9375    0.4870 C   0  0  0  0  0  0  0  0  0  0  0  0
    4.1895   -4.6443    1.3159 C   0  0  1  0  0  0  0  0  0  0  0  0
    5.1036   -4.9059    2.4397 C   0  0  0  0  0  0  0  0  0  0  0  0
    5.8181   -5.1101    3.3274 N   0  0  0  0  0  0  0  0  0  0  0  0
    4.6962   -3.3856    0.5520 C   0  0  1  0  0  0  0  0  0  0  0  0
    4.3232   -3.3115   -0.9378 C   0  0  0  0  0  0  0  0  0  0  0  0
    2.9988   -3.0542   -1.3729 C   0  0  0  0  0  0  0  0  0  0  0  0
    2.7192   -2.9751   -2.7458 C   0  0  0  0  0  0  0  0  0  0  0  0
    3.7744   -3.1676   -3.6498 C   0  0  0  0  0  0  0  0  0  0  0  0
    5.0551   -3.4439   -3.1294 C   0  0  0  0  0  0  0  0  0  0  0  0
    5.3349   -3.5092   -1.8115 N   0  0  0  0  0  0  0  0  0  0  0  0
    4.0420   -2.2425    1.3007 C   0  0  0  0  0  0  0  0  0  0  0  0
    4.6180   -0.6801    1.3609 S   0  0  0  0  0  0  0  0  0  0  0  0
    2.9471   -2.7505    1.9120 N   0  0  0  0  0  0  0  0  0  0  0  0
    2.1702   -2.2210    2.9859 C   0  0  0  0  0  0  0  0  0  0  0  0
    2.0372   -3.2825    3.8844 O   0  0  0  0  0  0  0  0  0  0  0  0
    2.2829   -4.5328    3.2234 C   0  0  0  0  0  0  0  0  0  0  0  0
    2.8111   -4.1676    1.8251 C   0  0  2  0  0  0  0  0  0  0  0  0
    3.3348   -5.8398   -0.3182 H   0  0  0  0  0  0  0  0  0  0  0  0
    3.7277   -6.7646    1.1147 H   0  0  0  0  0  0  0  0  0  0  0  0
    5.0167   -6.2290    0.0506 H   0  0  0  0  0  0  0  0  0  0  0  0
    5.7832   -3.3117    0.6468 H   0  0  0  0  0  0  0  0  0  0  0  0
    2.1911   -2.8775   -0.6844 H   0  0  0  0  0  0  0  0  0  0  0  0
    1.7159   -2.7733   -3.0975 H   0  0  0  0  0  0  0  0  0  0  0  0
    3.5911   -3.1269   -4.7137 H   0  0  0  0  0  0  0  0  0  0  0  0
    5.8847   -3.6108   -3.7934 H   0  0  0  0  0  0  0  0  0  0  0  0
    2.6673   -1.3753    3.4611 H   0  0  0  0  0  0  0  0  0  0  0  0
    1.1901   -1.9267    2.5944 H   0  0  0  0  0  0  0  0  0  0  0  0
    2.9585   -5.1468    3.8255 H   0  0  0  0  0  0  0  0  0  0  0  0
    1.3505   -5.0922    3.1292 H   0  0  0  0  0  0  0  0  0  0  0  0
    2.0397   -4.3559    1.0752 H   0  0  0  0  0  0  0  0  0  0  0  0
  1  2  1  0
  1 19  1  0
  1 20  1  0
  1 21  1  0
  2 18  1  0
  2  3  1  1
  2  5  1  0
  3  4  3  0
  5  6  1  0
  5 12  1  0
  5 22  1  6
  6 11  1  0
  6  7  2  0
  7  8  1  0
  7 23  1  0
  8  9  2  0
  8 24  1  0
  9 10  1  0
  9 25  1  0
 10 11  2  0
 10 26  1  0
 12 13  2  0
 12 14  1  0
 14 18  1  0
 14 15  1  0
 15 16  1  0
 15 27  1  0
 15 28  1  0
 16 17  1  0
 17 18  1  0
 17 29  1  0
 17 30  1  0
 18 31  1  6
M  END
>  <i_m_ct_stereo_status>  (63) 
1

>  <s_m_source_file>  (63) 
/var/tmp/pbs.5076255.sched01/tmpgr0kyu9k/0plolsrat.sdf

>  <i_m_source_file_index>  (63) 
28

>  <i_lp_mmshare_version>  (63) 
48012

>  <i_f3d_flags>  (63) 
0

>  <s_epik_input>  (63) 
W0NIMl0xT1tDSDJdW0NAQEhdKE4xMilbQ0BdKFtDSDNdKShDI04pW0NASF0oQzI9UyljM1tjSF1bY0hdW2NIXVtjSF1uMw==

>  <s_epik_cmdline>  (63) 
J2VwaWtfcHl0aG9uJywgJy1waHQnLCAnMi4wJywgJy1waCcsICc3LjAnLCAnLXRuJywgJzgnLCAnLW1hJywgJzIwMCcsICctaW1hZScsICc8aW5maWxlLm1hZT4nLCAnLW9tYWUnLCAnPG91dGZpbGUubWFlPic=

>  <r_epik_Ionization_Penalty>  (63) 
0.00362387

>  <r_epik_Ionization_Penalty_Charging>  (63) 
0

>  <r_epik_Ionization_Penalty_Neutral>  (63) 
0.00362387

>  <r_epik_State_Penalty>  (63) 
0.00257729

>  <r_epik_Charging_Adjusted_Penalty>  (63) 
0.00257729

>  <i_epik_Tot_Q>  (63) 
0

>  <i_epik_Tot_abs_Q>  (63) 
0

>  <s_epik_Chemistry_Notes>  (63) 
This compound contains an acetal/aminal-like group ( X-CH(R)-Y where X, Y are N, S, or O) that may be acid/base labile, releasing an aldehyde.

>  <s_lp_Force_Field>  (63) 
OPLS3e

>  <r_lp_Energy>  (63) 
19.3153

>  <b_lp_Chiralities_Consistent>  (63) 
1

>  <s_lp_Variant>  (63) 
19:0-1

>  <s_i_glide_gridfile>  (63) 
pfpi4k_grid

>  <i_i_glide_lignum>  (63) 
28

>  <i_i_glide_rotatable_bonds>  (63) 
2

>  <r_i_docking_score>  (63) 
-3.42515

>  <r_i_glide_ligand_efficiency>  (63) 
-0.190286

>  <r_i_glide_ligand_efficiency_sa>  (63) 
-0.498691

>  <r_i_glide_ligand_efficiency_ln>  (63) 
-0.880418

>  <r_i_glide_gscore>  (63) 
-3.42515

>  <r_i_glide_lipo>  (63) 
-0.585757

>  <r_i_glide_hbond>  (63) 
0

>  <r_i_glide_metal>  (63) 
-0

>  <r_i_glide_rewards>  (63) 
-1.80821

>  <r_i_glide_evdw>  (63) 
-24.3915

>  <r_i_glide_ecoul>  (63) 
-0.396803

>  <r_i_glide_erotb>  (63) 
0.262922

>  <r_i_glide_esite>  (63) 
-0.0150161

>  <r_i_glide_emodel>  (63) 
-28.5116

>  <r_i_glide_energy>  (63) 
-24.7883

>  <r_i_glide_einternal>  (63) 
1.9693

>  <r_i_glide_intrahb_reward>  (63) 
-0

>  <i_i_glide_confnum>  (63) 
2

>  <i_i_glide_posenum>  (63) 
39

>  <r_i_glide_eff_state_penalty>  (63) 
0

>  <ligand_id>  (63) 
19

>  <original_smiles>  (63) 
CC1(C#N)C(c2ccccn2)C(=S)N2COCC21

>  <smiles>  (63) 
[H]c1nc(C2([H])C(=S)N3C([H])([H])OC([H])([H])C3([H])C2(C#N)C([H])([H])[H])c([H])c([H])c1[H]

$$$$
19:0:2
     RDKit          3D

 31 33  0  0  1  0  0  0  0  0999 V2000
    1.9406   -3.5789   -1.7360 C   0  0  0  0  0  0  0  0  0  0  0  0
    3.1990   -2.7403   -1.3927 C   0  0  1  0  0  0  0  0  0  0  0  0
    3.2169   -1.5949   -2.3231 C   0  0  0  0  0  0  0  0  0  0  0  0
    3.2594   -0.7051   -3.0710 N   0  0  0  0  0  0  0  0  0  0  0  0
    3.3516   -2.2462    0.0828 C   0  0  1  0  0  0  0  0  0  0  0  0
    2.8102   -3.1702    1.1967 C   0  0  0  0  0  0  0  0  0  0  0  0
    2.9070   -4.5790    1.1464 C   0  0  0  0  0  0  0  0  0  0  0  0
    2.3346   -5.3529    2.1694 C   0  0  0  0  0  0  0  0  0  0  0  0
    1.7379   -4.6924    3.2566 C   0  0  0  0  0  0  0  0  0  0  0  0
    1.7337   -3.2888    3.2670 C   0  0  0  0  0  0  0  0  0  0  0  0
    2.2324   -2.5427    2.2538 N   0  0  0  0  0  0  0  0  0  0  0  0
    4.8504   -2.1164    0.2565 C   0  0  0  0  0  0  0  0  0  0  0  0
    5.6250   -1.0757    1.2975 S   0  0  0  0  0  0  0  0  0  0  0  0
    5.4240   -2.9568   -0.6454 N   0  0  0  0  0  0  0  0  0  0  0  0
    6.7569   -2.9688   -1.1438 C   0  0  0  0  0  0  0  0  0  0  0  0
    6.6072   -2.9982   -2.5312 O   0  0  0  0  0  0  0  0  0  0  0  0
    5.3033   -3.4735   -2.8892 C   0  0  0  0  0  0  0  0  0  0  0  0
    4.5156   -3.5326   -1.5772 C   0  0  2  0  0  0  0  0  0  0  0  0
    1.8690   -4.5423   -1.2373 H   0  0  0  0  0  0  0  0  0  0  0  0
    1.9328   -3.7925   -2.8028 H   0  0  0  0  0  0  0  0  0  0  0  0
    1.0055   -3.0568   -1.5297 H   0  0  0  0  0  0  0  0  0  0  0  0
    2.9011   -1.2522    0.1865 H   0  0  0  0  0  0  0  0  0  0  0  0
    3.3846   -5.1175    0.3457 H   0  0  0  0  0  0  0  0  0  0  0  0
    2.3434   -6.4323    2.1008 H   0  0  0  0  0  0  0  0  0  0  0  0
    1.2936   -5.2610    4.0696 H   0  0  0  0  0  0  0  0  0  0  0  0
    1.2935   -2.7404    4.0888 H   0  0  0  0  0  0  0  0  0  0  0  0
    7.3141   -2.0847   -0.8415 H   0  0  0  0  0  0  0  0  0  0  0  0
    7.2565   -3.8737   -0.7802 H   0  0  0  0  0  0  0  0  0  0  0  0
    4.8671   -2.8737   -3.6941 H   0  0  0  0  0  0  0  0  0  0  0  0
    5.3675   -4.4888   -3.2790 H   0  0  0  0  0  0  0  0  0  0  0  0
    4.4304   -4.5837   -1.2978 H   0  0  0  0  0  0  0  0  0  0  0  0
  1  2  1  0
  1 19  1  0
  1 20  1  0
  1 21  1  0
  2 18  1  0
  2  3  1  6
  2  5  1  0
  3  4  3  0
  5  6  1  0
  5 12  1  0
  5 22  1  6
  6 11  1  0
  6  7  2  0
  7  8  1  0
  7 23  1  0
  8  9  2  0
  8 24  1  0
  9 10  1  0
  9 25  1  0
 10 11  2  0
 10 26  1  0
 12 13  2  0
 12 14  1  0
 14 18  1  0
 14 15  1  0
 15 16  1  0
 15 27  1  0
 15 28  1  0
 16 17  1  0
 17 18  1  0
 17 29  1  0
 17 30  1  0
 18 31  1  1
M  END
>  <i_m_ct_stereo_status>  (64) 
1

>  <s_m_source_file>  (64) 
/var/tmp/pbs.5076255.sched01/tmpgr0kyu9k/0plolsrat.sdf

>  <i_m_source_file_index>  (64) 
28

>  <i_lp_mmshare_version>  (64) 
48012

>  <i_f3d_flags>  (64) 
0

>  <s_epik_input>  (64) 
W0NIMl0xT1tDSDJdW0NAQEhdKE4xMilbQ0BdKFtDSDNdKShDI04pW0NASF0oQzI9UyljM1tjSF1bY0hdW2NIXVtjSF1uMw==

>  <s_epik_cmdline>  (64) 
J2VwaWtfcHl0aG9uJywgJy1waHQnLCAnMi4wJywgJy1waCcsICc3LjAnLCAnLXRuJywgJzgnLCAnLW1hJywgJzIwMCcsICctaW1hZScsICc8aW5maWxlLm1hZT4nLCAnLW9tYWUnLCAnPG91dGZpbGUubWFlPic=

>  <r_epik_Ionization_Penalty>  (64) 
0.00362387

>  <r_epik_Ionization_Penalty_Charging>  (64) 
0

>  <r_epik_Ionization_Penalty_Neutral>  (64) 
0.00362387

>  <r_epik_State_Penalty>  (64) 
0.00257729

>  <r_epik_Charging_Adjusted_Penalty>  (64) 
0.00257729

>  <i_epik_Tot_Q>  (64) 
0

>  <i_epik_Tot_abs_Q>  (64) 
0

>  <s_epik_Chemistry_Notes>  (64) 
This compound contains an acetal/aminal-like group ( X-CH(R)-Y where X, Y are N, S, or O) that may be acid/base labile, releasing an aldehyde.

>  <s_lp_Force_Field>  (64) 
OPLS3e

>  <r_lp_Energy>  (64) 
19.3153

>  <b_lp_Chiralities_Consistent>  (64) 
1

>  <s_lp_Variant>  (64) 
19:0-1

>  <s_i_glide_gridfile>  (64) 
pfpi4k_grid

>  <i_i_glide_lignum>  (64) 
28

>  <i_i_glide_rotatable_bonds>  (64) 
2

>  <r_i_docking_score>  (64) 
-3.16153

>  <r_i_glide_ligand_efficiency>  (64) 
-0.175641

>  <r_i_glide_ligand_efficiency_sa>  (64) 
-0.460309

>  <r_i_glide_ligand_efficiency_ln>  (64) 
-0.812656

>  <r_i_glide_gscore>  (64) 
-3.16153

>  <r_i_glide_lipo>  (64) 
-0.254882

>  <r_i_glide_hbond>  (64) 
0

>  <r_i_glide_metal>  (64) 
-0

>  <r_i_glide_rewards>  (64) 
-1.86945

>  <r_i_glide_evdw>  (64) 
-22.978

>  <r_i_glide_ecoul>  (64) 
-0.509525

>  <r_i_glide_erotb>  (64) 
0.262922

>  <r_i_glide_esite>  (64) 
-0.0747997

>  <r_i_glide_emodel>  (64) 
-25.7364

>  <r_i_glide_energy>  (64) 
-23.4875

>  <r_i_glide_einternal>  (64) 
2.9439

>  <r_i_glide_intrahb_reward>  (64) 
-0

>  <i_i_glide_confnum>  (64) 
2

>  <i_i_glide_posenum>  (64) 
37

>  <r_i_glide_eff_state_penalty>  (64) 
0

>  <ligand_id>  (64) 
19

>  <original_smiles>  (64) 
CC1(C#N)C(c2ccccn2)C(=S)N2COCC21

>  <smiles>  (64) 
[H]c1nc(C2([H])C(=S)N3C([H])([H])OC([H])([H])C3([H])C2(C#N)C([H])([H])[H])c([H])c([H])c1[H]

$$$$
20:0:0
     RDKit          3D

 36 39  0  0  1  0  0  0  0  0999 V2000
    6.8466   -2.2075    0.1623 C   0  0  0  0  0  0  0  0  0  0  0  0
    5.7494   -1.1383    0.4014 C   0  0  1  0  0  0  0  0  0  0  0  0
    4.7011   -0.9957   -0.7345 C   0  0  0  0  0  0  0  0  0  0  0  0
    4.3549   -2.2731   -1.5229 C   0  0  1  0  0  0  0  0  0  0  0  0
    5.6222   -3.0395   -1.8994 C   0  0  0  0  0  0  0  0  0  0  0  0
    6.4206   -3.4406   -0.6582 C   0  0  2  0  0  0  0  0  0  0  0  0
    5.7687   -4.6071    0.1191 C   0  0  0  0  0  0  0  0  0  0  0  0
    4.5929   -4.3265    1.0828 C   0  0  1  0  0  0  0  0  0  0  0  0
    4.9899   -3.6108    2.3791 C   0  0  0  0  0  0  0  0  0  0  0  0
    4.3026   -2.2467    2.3500 C   0  0  1  0  0  0  0  0  0  0  0  0
    5.1810   -1.0849    1.8337 C   0  0  0  0  0  0  0  0  0  0  0  0
    3.0170   -2.4881    1.5600 C   0  0  0  0  0  0  0  0  0  0  0  0
    3.3287   -3.6053    0.5581 C   0  0  1  0  0  0  0  0  0  0  0  0
    3.2562   -3.1762   -0.9242 C   0  0  0  0  0  0  0  0  0  0  0  0
    7.3095   -2.5159    1.0967 H   0  0  0  0  0  0  0  0  0  0  0  0
    7.6591   -1.7294   -0.3778 H   0  0  0  0  0  0  0  0  0  0  0  0
    6.2977   -0.1891    0.3680 H   0  0  0  0  0  0  0  0  0  0  0  0
    3.7934   -0.5239   -0.3647 H   0  0  0  0  0  0  0  0  0  0  0  0
    5.0960   -0.2779   -1.4498 H   0  0  0  0  0  0  0  0  0  0  0  0
    3.9215   -1.9317   -2.4662 H   0  0  0  0  0  0  0  0  0  0  0  0
    5.3745   -3.9189   -2.5017 H   0  0  0  0  0  0  0  0  0  0  0  0
    6.2454   -2.4053   -2.5259 H   0  0  0  0  0  0  0  0  0  0  0  0
    7.3574   -3.8470   -1.0410 H   0  0  0  0  0  0  0  0  0  0  0  0
    5.4387   -5.3604   -0.5994 H   0  0  0  0  0  0  0  0  0  0  0  0
    6.5490   -5.1014    0.7008 H   0  0  0  0  0  0  0  0  0  0  0  0
    4.2698   -5.3213    1.3938 H   0  0  0  0  0  0  0  0  0  0  0  0
    4.5849   -4.1733    3.2208 H   0  0  0  0  0  0  0  0  0  0  0  0
    6.0654   -3.5617    2.5452 H   0  0  0  0  0  0  0  0  0  0  0  0
    4.0335   -1.9743    3.3706 H   0  0  0  0  0  0  0  0  0  0  0  0
    6.0188   -0.9631    2.5189 H   0  0  0  0  0  0  0  0  0  0  0  0
    4.6078   -0.1636    1.9292 H   0  0  0  0  0  0  0  0  0  0  0  0
    2.2584   -2.8501    2.2540 H   0  0  0  0  0  0  0  0  0  0  0  0
    2.5958   -1.5885    1.1083 H   0  0  0  0  0  0  0  0  0  0  0  0
    2.5088   -4.3187    0.6596 H   0  0  0  0  0  0  0  0  0  0  0  0
    2.2977   -2.6740   -1.0686 H   0  0  0  0  0  0  0  0  0  0  0  0
    3.1890   -4.0796   -1.5290 H   0  0  0  0  0  0  0  0  0  0  0  0
  1  6  1  0
  1  2  1  0
  1 15  1  0
  1 16  1  0
  2 11  1  0
  2  3  1  0
  2 17  1  1
  3  4  1  0
  3 18  1  0
  3 19  1  0
  4 14  1  0
  4  5  1  0
  4 20  1  6
  5  6  1  0
  5 21  1  0
  5 22  1  0
  6  7  1  0
  6 23  1  6
  7  8  1  0
  7 24  1  0
  7 25  1  0
  8 13  1  0
  8  9  1  0
  8 26  1  1
  9 10  1  0
  9 27  1  0
  9 28  1  0
 10 11  1  0
 10 12  1  0
 10 29  1  1
 11 30  1  0
 11 31  1  0
 12 13  1  0
 12 32  1  0
 12 33  1  0
 13 14  1  0
 13 34  1  6
 14 35  1  0
 14 36  1  0
M  END
>  <i_m_ct_stereo_status>  (65) 
1

>  <s_m_source_file>  (65) 
/var/tmp/pbs.5076255.sched01/tmpgr0kyu9k/0plolsrat.sdf

>  <i_m_source_file_index>  (65) 
29

>  <i_lp_mmshare_version>  (65) 
48012

>  <i_f3d_flags>  (65) 
0

>  <s_epik_input>  (65) 
W0NASF0xMltDSDJdW0NAQEhdM1tDSDJdW0NASF0oW0NIMl0xKVtDSDJdW0NASF00W0NAQEhdKFtDSDJdMylbQ0gyXVtDQEBIXShbQ0gyXTIpW0NIMl00

>  <s_epik_cmdline>  (65) 
J2VwaWtfcHl0aG9uJywgJy1waHQnLCAnMi4wJywgJy1waCcsICc3LjAnLCAnLXRuJywgJzgnLCAnLW1hJywgJzIwMCcsICctaW1hZScsICc8aW5maWxlLm1hZT4nLCAnLW9tYWUnLCAnPG91dGZpbGUubWFlPic=

>  <r_lp_tautomer_probability>  (65) 
1

>  <r_epik_Ionization_Penalty>  (65) 
0

>  <r_epik_Ionization_Penalty_Charging>  (65) 
0

>  <r_epik_Ionization_Penalty_Neutral>  (65) 
0

>  <r_epik_State_Penalty>  (65) 
-0

>  <r_epik_Charging_Adjusted_Penalty>  (65) 
0

>  <i_epik_Tot_Q>  (65) 
0

>  <i_epik_Tot_abs_Q>  (65) 
0

>  <s_lp_Force_Field>  (65) 
OPLS3e

>  <r_lp_Energy>  (65) 
34.923

>  <b_lp_Chiralities_Consistent>  (65) 
1

>  <s_lp_Variant>  (65) 
20:0-1

>  <s_i_glide_gridfile>  (65) 
pfpi4k_grid

>  <i_i_glide_lignum>  (65) 
29

>  <i_i_glide_rotatable_bonds>  (65) 
0

>  <r_i_docking_score>  (65) 
-3.71884

>  <r_i_glide_ligand_efficiency>  (65) 
-0.265631

>  <r_i_glide_ligand_efficiency_sa>  (65) 
-0.640209

>  <r_i_glide_ligand_efficiency_ln>  (65) 
-1.02192

>  <r_i_glide_gscore>  (65) 
-3.71884

>  <r_i_glide_lipo>  (65) 
-0.63347

>  <r_i_glide_hbond>  (65) 
0

>  <r_i_glide_metal>  (65) 
-0

>  <r_i_glide_rewards>  (65) 
-2.11142

>  <r_i_glide_evdw>  (65) 
-18.6502

>  <r_i_glide_ecoul>  (65) 
-0.276221

>  <r_i_glide_erotb>  (65) 
0

>  <r_i_glide_esite>  (65) 
0

>  <r_i_glide_emodel>  (65) 
-23.2927

>  <r_i_glide_energy>  (65) 
-18.9264

>  <r_i_glide_einternal>  (65) 
0

>  <r_i_glide_intrahb_reward>  (65) 
-0

>  <i_i_glide_confnum>  (65) 
1

>  <i_i_glide_posenum>  (65) 
7

>  <r_i_glide_eff_state_penalty>  (65) 
0

>  <ligand_id>  (65) 
20

>  <original_smiles>  (65) 
C1C2CC3CC1CC1CC(C2)CC1C3

>  <smiles>  (65) 
[H]C1([H])C2([H])C([H])([H])C3([H])C([H])([H])C1([H])C([H])([H])C1([H])C([H])([H])C([H])(C2([H])[H])C([H])([H])C1([H])C3([H])[H]

$$$$
20:0:1
     RDKit          3D

 36 39  0  0  1  0  0  0  0  0999 V2000
    6.8330   -2.2525    0.5429 C   0  0  0  0  0  0  0  0  0  0  0  0
    6.6572   -3.3866   -0.4864 C   0  0  1  0  0  0  0  0  0  0  0  0
    5.8479   -4.6267   -0.0005 C   0  0  0  0  0  0  0  0  0  0  0  0
    4.6741   -4.3059    0.9482 C   0  0  1  0  0  0  0  0  0  0  0  0
    5.1147   -3.3456    2.0514 C   0  0  0  0  0  0  0  0  0  0  0  0
    5.6128   -2.0186    1.4763 C   0  0  2  0  0  0  0  0  0  0  0  0
    4.4746   -1.1259    0.9458 C   0  0  0  0  0  0  0  0  0  0  0  0
    3.8759   -1.4005   -0.4504 C   0  0  1  0  0  0  0  0  0  0  0  0
    4.7882   -1.0250   -1.6201 C   0  0  0  0  0  0  0  0  0  0  0  0
    5.1216   -2.3090   -2.3522 C   0  0  1  0  0  0  0  0  0  0  0  0
    6.4671   -2.9699   -1.9454 C   0  0  0  0  0  0  0  0  0  0  0  0
    3.9008   -3.1899   -2.1396 C   0  0  0  0  0  0  0  0  0  0  0  0
    3.3066   -2.7999   -0.7831 C   0  0  1  0  0  0  0  0  0  0  0  0
    3.3334   -3.9133    0.2912 C   0  0  0  0  0  0  0  0  0  0  0  0
    7.1081   -1.3122    0.0670 H   0  0  0  0  0  0  0  0  0  0  0  0
    7.6690   -2.5044    1.1634 H   0  0  0  0  0  0  0  0  0  0  0  0
    7.6937   -3.8069   -0.5385 H   0  0  0  0  0  0  0  0  0  0  0  0
    5.4760   -5.2023   -0.8449 H   0  0  0  0  0  0  0  0  0  0  0  0
    6.5191   -5.2826    0.5143 H   0  0  0  0  0  0  0  0  0  0  0  0
    4.4467   -5.2525    1.4495 H   0  0  0  0  0  0  0  0  0  0  0  0
    4.2929   -3.1757    2.7586 H   0  0  0  0  0  0  0  0  0  0  0  0
    5.9165   -3.8131    2.6183 H   0  0  0  0  0  0  0  0  0  0  0  0
    6.0114   -1.4614    2.3336 H   0  0  0  0  0  0  0  0  0  0  0  0
    3.6663   -1.1318    1.6738 H   0  0  0  0  0  0  0  0  0  0  0  0
    4.8342   -0.0904    0.9385 H   0  0  0  0  0  0  0  0  0  0  0  0
    3.0284   -0.7154   -0.5033 H   0  0  0  0  0  0  0  0  0  0  0  0
    4.2181   -0.3886   -2.3046 H   0  0  0  0  0  0  0  0  0  0  0  0
    5.6547   -0.4373   -1.3297 H   0  0  0  0  0  0  0  0  0  0  0  0
    5.2102   -2.1079   -3.4165 H   0  0  0  0  0  0  0  0  0  0  0  0
    7.2725   -2.2915   -2.2155 H   0  0  0  0  0  0  0  0  0  0  0  0
    6.6113   -3.8387   -2.5769 H   0  0  0  0  0  0  0  0  0  0  0  0
    3.1684   -2.9467   -2.9115 H   0  0  0  0  0  0  0  0  0  0  0  0
    4.1183   -4.2354   -2.2475 H   0  0  0  0  0  0  0  0  0  0  0  0
    2.2433   -2.6712   -0.9718 H   0  0  0  0  0  0  0  0  0  0  0  0
    2.9098   -4.8071   -0.1694 H   0  0  0  0  0  0  0  0  0  0  0  0
    2.6359   -3.6401    1.0808 H   0  0  0  0  0  0  0  0  0  0  0  0
  1  6  1  0
  1  2  1  0
  1 15  1  0
  1 16  1  0
  2 11  1  0
  2  3  1  0
  2 17  1  6
  3  4  1  0
  3 18  1  0
  3 19  1  0
  4 14  1  0
  4  5  1  0
  4 20  1  1
  5  6  1  0
  5 21  1  0
  5 22  1  0
  6  7  1  0
  6 23  1  1
  7  8  1  0
  7 24  1  0
  7 25  1  0
  8 13  1  0
  8  9  1  0
  8 26  1  6
  9 10  1  0
  9 27  1  0
  9 28  1  0
 10 11  1  0
 10 12  1  0
 10 29  1  6
 11 30  1  0
 11 31  1  0
 12 13  1  0
 12 32  1  0
 12 33  1  0
 13 14  1  0
 13 34  1  6
 14 35  1  0
 14 36  1  0
M  END
>  <i_m_ct_stereo_status>  (66) 
1

>  <s_m_source_file>  (66) 
/var/tmp/pbs.5076255.sched01/tmpgr0kyu9k/0plolsrat.sdf

>  <i_m_source_file_index>  (66) 
29

>  <i_lp_mmshare_version>  (66) 
48012

>  <i_f3d_flags>  (66) 
0

>  <s_epik_input>  (66) 
W0NASF0xMltDSDJdW0NAQEhdM1tDSDJdW0NASF0oW0NIMl0xKVtDSDJdW0NASF00W0NAQEhdKFtDSDJdMylbQ0gyXVtDQEBIXShbQ0gyXTIpW0NIMl00

>  <s_epik_cmdline>  (66) 
J2VwaWtfcHl0aG9uJywgJy1waHQnLCAnMi4wJywgJy1waCcsICc3LjAnLCAnLXRuJywgJzgnLCAnLW1hJywgJzIwMCcsICctaW1hZScsICc8aW5maWxlLm1hZT4nLCAnLW9tYWUnLCAnPG91dGZpbGUubWFlPic=

>  <r_lp_tautomer_probability>  (66) 
1

>  <r_epik_Ionization_Penalty>  (66) 
0

>  <r_epik_Ionization_Penalty_Charging>  (66) 
0

>  <r_epik_Ionization_Penalty_Neutral>  (66) 
0

>  <r_epik_State_Penalty>  (66) 
-0

>  <r_epik_Charging_Adjusted_Penalty>  (66) 
0

>  <i_epik_Tot_Q>  (66) 
0

>  <i_epik_Tot_abs_Q>  (66) 
0

>  <s_lp_Force_Field>  (66) 
OPLS3e

>  <r_lp_Energy>  (66) 
34.923

>  <b_lp_Chiralities_Consistent>  (66) 
1

>  <s_lp_Variant>  (66) 
20:0-1

>  <s_i_glide_gridfile>  (66) 
pfpi4k_grid

>  <i_i_glide_lignum>  (66) 
29

>  <i_i_glide_rotatable_bonds>  (66) 
0

>  <r_i_docking_score>  (66) 
-3.70598

>  <r_i_glide_ligand_efficiency>  (66) 
-0.264713

>  <r_i_glide_ligand_efficiency_sa>  (66) 
-0.637995

>  <r_i_glide_ligand_efficiency_ln>  (66) 
-1.01839

>  <r_i_glide_gscore>  (66) 
-3.70598

>  <r_i_glide_lipo>  (66) 
-0.609502

>  <r_i_glide_hbond>  (66) 
0

>  <r_i_glide_metal>  (66) 
-0

>  <r_i_glide_rewards>  (66) 
-2.11142

>  <r_i_glide_evdw>  (66) 
-19.0675

>  <r_i_glide_ecoul>  (66) 
-0.211158

>  <r_i_glide_erotb>  (66) 
0

>  <r_i_glide_esite>  (66) 
0

>  <r_i_glide_emodel>  (66) 
-23.6059

>  <r_i_glide_energy>  (66) 
-19.2787

>  <r_i_glide_einternal>  (66) 
0

>  <r_i_glide_intrahb_reward>  (66) 
-0

>  <i_i_glide_confnum>  (66) 
2

>  <i_i_glide_posenum>  (66) 
15

>  <r_i_glide_eff_state_penalty>  (66) 
0

>  <ligand_id>  (66) 
20

>  <original_smiles>  (66) 
C1C2CC3CC1CC1CC(C2)CC1C3

>  <smiles>  (66) 
[H]C1([H])C2([H])C([H])([H])C3([H])C([H])([H])C1([H])C([H])([H])C1([H])C([H])([H])C([H])(C2([H])[H])C([H])([H])C1([H])C3([H])[H]

$$$$
20:0:2
     RDKit          3D

 36 39  0  0  1  0  0  0  0  0999 V2000
    6.8218   -1.6229    0.6429 C   0  0  0  0  0  0  0  0  0  0  0  0
    5.4636   -1.0308    0.1962 C   0  0  1  0  0  0  0  0  0  0  0  0
    5.0681   -1.2836   -1.2798 C   0  0  0  0  0  0  0  0  0  0  0  0
    5.5321   -2.6345   -1.8719 C   0  0  1  0  0  0  0  0  0  0  0  0
    7.0015   -2.9093   -1.5278 C   0  0  0  0  0  0  0  0  0  0  0  0
    7.2241   -2.9639   -0.0129 C   0  0  2  0  0  0  0  0  0  0  0  0
    6.6827   -4.2473    0.6395 C   0  0  0  0  0  0  0  0  0  0  0  0
    5.1669   -4.3756    0.9411 C   0  0  1  0  0  0  0  0  0  0  0  0
    4.6840   -3.5223    2.1208 C   0  0  0  0  0  0  0  0  0  0  0  0
    3.7035   -2.5060    1.5426 C   0  0  1  0  0  0  0  0  0  0  0  0
    4.3261   -1.1146    1.2176 C   0  0  0  0  0  0  0  0  0  0  0  0
    3.0715   -3.2129    0.3469 C   0  0  0  0  0  0  0  0  0  0  0  0
    4.1341   -4.1750   -0.1966 C   0  0  1  0  0  0  0  0  0  0  0  0
    4.6228   -3.8463   -1.6297 C   0  0  0  0  0  0  0  0  0  0  0  0
    6.8648   -1.7093    1.7311 H   0  0  0  0  0  0  0  0  0  0  0  0
    7.5859   -0.9056    0.4208 H   0  0  0  0  0  0  0  0  0  0  0  0
    5.6661    0.0601    0.2112 H   0  0  0  0  0  0  0  0  0  0  0  0
    3.9896   -1.1538   -1.4279 H   0  0  0  0  0  0  0  0  0  0  0  0
    5.4960   -0.5007   -1.8725 H   0  0  0  0  0  0  0  0  0  0  0  0
    5.5088   -2.4993   -2.9659 H   0  0  0  0  0  0  0  0  0  0  0  0
    7.3273   -3.8370   -2.0022 H   0  0  0  0  0  0  0  0  0  0  0  0
    7.6221   -2.1366   -1.9556 H   0  0  0  0  0  0  0  0  0  0  0  0
    8.3163   -3.0390    0.1169 H   0  0  0  0  0  0  0  0  0  0  0  0
    6.9745   -5.1029    0.0339 H   0  0  0  0  0  0  0  0  0  0  0  0
    7.2081   -4.3966    1.5840 H   0  0  0  0  0  0  0  0  0  0  0  0
    5.0565   -5.4111    1.2716 H   0  0  0  0  0  0  0  0  0  0  0  0
    4.1272   -4.1683    2.8051 H   0  0  0  0  0  0  0  0  0  0  0  0
    5.4817   -3.0864    2.7126 H   0  0  0  0  0  0  0  0  0  0  0  0
    2.9262   -2.3063    2.2826 H   0  0  0  0  0  0  0  0  0  0  0  0
    4.6705   -0.6810    2.1554 H   0  0  0  0  0  0  0  0  0  0  0  0
    3.5179   -0.4617    0.8887 H   0  0  0  0  0  0  0  0  0  0  0  0
    2.2310   -3.8033    0.7199 H   0  0  0  0  0  0  0  0  0  0  0  0
    2.6514   -2.5418   -0.3946 H   0  0  0  0  0  0  0  0  0  0  0  0
    3.6218   -5.1313   -0.3180 H   0  0  0  0  0  0  0  0  0  0  0  0
    3.7281   -3.7279   -2.2449 H   0  0  0  0  0  0  0  0  0  0  0  0
    5.1109   -4.7349   -2.0294 H   0  0  0  0  0  0  0  0  0  0  0  0
  1  6  1  0
  1  2  1  0
  1 15  1  0
  1 16  1  0
  2 11  1  0
  2  3  1  0
  2 17  1  6
  3  4  1  0
  3 18  1  0
  3 19  1  0
  4 14  1  0
  4  5  1  0
  4 20  1  6
  5  6  1  0
  5 21  1  0
  5 22  1  0
  6  7  1  0
  6 23  1  6
  7  8  1  0
  7 24  1  0
  7 25  1  0
  8 13  1  0
  8  9  1  0
  8 26  1  1
  9 10  1  0
  9 27  1  0
  9 28  1  0
 10 11  1  0
 10 12  1  0
 10 29  1  1
 11 30  1  0
 11 31  1  0
 12 13  1  0
 12 32  1  0
 12 33  1  0
 13 14  1  0
 13 34  1  6
 14 35  1  0
 14 36  1  0
M  END
>  <i_m_ct_stereo_status>  (67) 
1

>  <s_m_source_file>  (67) 
/var/tmp/pbs.5076255.sched01/tmpgr0kyu9k/0plolsrat.sdf

>  <i_m_source_file_index>  (67) 
29

>  <i_lp_mmshare_version>  (67) 
48012

>  <i_f3d_flags>  (67) 
0

>  <s_epik_input>  (67) 
W0NASF0xMltDSDJdW0NAQEhdM1tDSDJdW0NASF0oW0NIMl0xKVtDSDJdW0NASF00W0NAQEhdKFtDSDJdMylbQ0gyXVtDQEBIXShbQ0gyXTIpW0NIMl00

>  <s_epik_cmdline>  (67) 
J2VwaWtfcHl0aG9uJywgJy1waHQnLCAnMi4wJywgJy1waCcsICc3LjAnLCAnLXRuJywgJzgnLCAnLW1hJywgJzIwMCcsICctaW1hZScsICc8aW5maWxlLm1hZT4nLCAnLW9tYWUnLCAnPG91dGZpbGUubWFlPic=

>  <r_lp_tautomer_probability>  (67) 
1

>  <r_epik_Ionization_Penalty>  (67) 
0

>  <r_epik_Ionization_Penalty_Charging>  (67) 
0

>  <r_epik_Ionization_Penalty_Neutral>  (67) 
0

>  <r_epik_State_Penalty>  (67) 
-0

>  <r_epik_Charging_Adjusted_Penalty>  (67) 
0

>  <i_epik_Tot_Q>  (67) 
0

>  <i_epik_Tot_abs_Q>  (67) 
0

>  <s_lp_Force_Field>  (67) 
OPLS3e

>  <r_lp_Energy>  (67) 
34.923

>  <b_lp_Chiralities_Consistent>  (67) 
1

>  <s_lp_Variant>  (67) 
20:0-1

>  <s_i_glide_gridfile>  (67) 
pfpi4k_grid

>  <i_i_glide_lignum>  (67) 
29

>  <i_i_glide_rotatable_bonds>  (67) 
0

>  <r_i_docking_score>  (67) 
-3.50121

>  <r_i_glide_ligand_efficiency>  (67) 
-0.250087

>  <r_i_glide_ligand_efficiency_sa>  (67) 
-0.602745

>  <r_i_glide_ligand_efficiency_ln>  (67) 
-0.962121

>  <r_i_glide_gscore>  (67) 
-3.50121

>  <r_i_glide_lipo>  (67) 
-0.378709

>  <r_i_glide_hbond>  (67) 
0

>  <r_i_glide_metal>  (67) 
-0

>  <r_i_glide_rewards>  (67) 
-2.11142

>  <r_i_glide_evdw>  (67) 
-19.217

>  <r_i_glide_ecoul>  (67) 
-0.334869

>  <r_i_glide_erotb>  (67) 
0

>  <r_i_glide_esite>  (67) 
0

>  <r_i_glide_emodel>  (67) 
-23.65

>  <r_i_glide_energy>  (67) 
-19.5519

>  <r_i_glide_einternal>  (67) 
0

>  <r_i_glide_intrahb_reward>  (67) 
-0

>  <i_i_glide_confnum>  (67) 
1

>  <i_i_glide_posenum>  (67) 
2

>  <r_i_glide_eff_state_penalty>  (67) 
0

>  <ligand_id>  (67) 
20

>  <original_smiles>  (67) 
C1C2CC3CC1CC1CC(C2)CC1C3

>  <smiles>  (67) 
[H]C1([H])C2([H])C([H])([H])C3([H])C([H])([H])C1([H])C([H])([H])C1([H])C([H])([H])C([H])(C2([H])[H])C([H])([H])C1([H])C3([H])[H]

$$$$
20:1:0
     RDKit          3D

 36 39  0  0  1  0  0  0  0  0999 V2000
    4.1611   -4.6677    0.8354 C   0  0  0  0  0  0  0  0  0  0  0  0
    3.2836   -3.4987    0.3647 C   0  0  2  0  0  0  0  0  0  0  0  0
    3.0071   -2.4229    1.4256 C   0  0  0  0  0  0  0  0  0  0  0  0
    4.3655   -1.8734    1.9786 C   0  0  1  0  0  0  0  0  0  0  0  0
    5.2507   -3.0387    2.4697 C   0  0  0  0  0  0  0  0  0  0  0  0
    5.5180   -4.1121    1.3894 C   0  0  2  0  0  0  0  0  0  0  0  0
    6.5659   -3.6237    0.3287 C   0  0  0  0  0  0  0  0  0  0  0  0
    6.2150   -2.5987   -0.8042 C   0  0  1  0  0  0  0  0  0  0  0  0
    5.3868   -3.2067   -1.9731 C   0  0  0  0  0  0  0  0  0  0  0  0
    4.0001   -2.5268   -1.9743 C   0  0  1  0  0  0  0  0  0  0  0  0
    2.9186   -3.2913   -1.1300 C   0  0  0  0  0  0  0  0  0  0  0  0
    4.3076   -1.1198   -1.4209 C   0  0  0  0  0  0  0  0  0  0  0  0
    5.5085   -1.2426   -0.4409 C   0  0  1  0  0  0  0  0  0  0  0  0
    5.1599   -0.8957    1.0459 C   0  0  0  0  0  0  0  0  0  0  0  0
    4.3439   -5.3839    0.0345 H   0  0  0  0  0  0  0  0  0  0  0  0
    3.6370   -5.2065    1.6287 H   0  0  0  0  0  0  0  0  0  0  0  0
    4.1332   -3.0018    0.1238 H   0  0  0  0  0  0  0  0  0  0  0  0
    2.4050   -1.6077    1.0269 H   0  0  0  0  0  0  0  0  0  0  0  0
    2.4356   -2.8701    2.2429 H   0  0  0  0  0  0  0  0  0  0  0  0
    4.1217   -1.2808    2.8587 H   0  0  0  0  0  0  0  0  0  0  0  0
    6.1943   -2.6492    2.8519 H   0  0  0  0  0  0  0  0  0  0  0  0
    4.7589   -3.5158    3.3176 H   0  0  0  0  0  0  0  0  0  0  0  0
    6.0037   -4.9426    1.8972 H   0  0  0  0  0  0  0  0  0  0  0  0
    7.4198   -3.2230    0.8778 H   0  0  0  0  0  0  0  0  0  0  0  0
    6.9543   -4.5147   -0.1643 H   0  0  0  0  0  0  0  0  0  0  0  0
    7.1826   -2.3410   -1.2424 H   0  0  0  0  0  0  0  0  0  0  0  0
    5.8917   -2.9692   -2.9099 H   0  0  0  0  0  0  0  0  0  0  0  0
    5.3103   -4.2936   -1.9350 H   0  0  0  0  0  0  0  0  0  0  0  0
    3.6257   -2.4462   -2.9938 H   0  0  0  0  0  0  0  0  0  0  0  0
    2.7286   -4.2545   -1.5798 H   0  0  0  0  0  0  0  0  0  0  0  0
    1.9725   -2.7636   -1.2111 H   0  0  0  0  0  0  0  0  0  0  0  0
    4.5980   -0.4677   -2.2457 H   0  0  0  0  0  0  0  0  0  0  0  0
    3.4243   -0.6762   -0.9645 H   0  0  0  0  0  0  0  0  0  0  0  0
    6.1988   -0.4471   -0.7206 H   0  0  0  0  0  0  0  0  0  0  0  0
    4.6103    0.0466    1.0259 H   0  0  0  0  0  0  0  0  0  0  0  0
    6.0963   -0.6536    1.5510 H   0  0  0  0  0  0  0  0  0  0  0  0
  1  6  1  0
  1  2  1  0
  1 15  1  0
  1 16  1  0
  2 11  1  0
  2  3  1  0
  2 17  1  1
  3  4  1  0
  3 18  1  0
  3 19  1  0
  4 14  1  0
  4  5  1  0
  4 20  1  1
  5  6  1  0
  5 21  1  0
  5 22  1  0
  6  7  1  0
  6 23  1  1
  7  8  1  0
  7 24  1  0
  7 25  1  0
  8 13  1  0
  8  9  1  0
  8 26  1  6
  9 10  1  0
  9 27  1  0
  9 28  1  0
 10 11  1  0
 10 12  1  0
 10 29  1  6
 11 30  1  0
 11 31  1  0
 12 13  1  0
 12 32  1  0
 12 33  1  0
 13 14  1  0
 13 34  1  6
 14 35  1  0
 14 36  1  0
M  END
>  <i_m_ct_stereo_status>  (68) 
1

>  <s_m_source_file>  (68) 
/var/tmp/pbs.5076255.sched01/tmpgr0kyu9k/0plolsrat.sdf

>  <i_m_source_file_index>  (68) 
30

>  <i_lp_mmshare_version>  (68) 
48012

>  <i_f3d_flags>  (68) 
0

>  <s_epik_input>  (68) 
W0NASF0xMltDSDJdW0NAQEhdM1tDSDJdW0NASF0oW0NIMl0xKVtDSDJdW0NASF00W0NAQEhdKFtDSDJdMylbQ0gyXVtDQEBIXShbQ0gyXTIpW0NIMl00

>  <s_epik_cmdline>  (68) 
J2VwaWtfcHl0aG9uJywgJy1waHQnLCAnMi4wJywgJy1waCcsICc3LjAnLCAnLXRuJywgJzgnLCAnLW1hJywgJzIwMCcsICctaW1hZScsICc8aW5maWxlLm1hZT4nLCAnLW9tYWUnLCAnPG91dGZpbGUubWFlPic=

>  <r_lp_tautomer_probability>  (68) 
1

>  <r_epik_Ionization_Penalty>  (68) 
0

>  <r_epik_Ionization_Penalty_Charging>  (68) 
0

>  <r_epik_Ionization_Penalty_Neutral>  (68) 
0

>  <r_epik_State_Penalty>  (68) 
-0

>  <r_epik_Charging_Adjusted_Penalty>  (68) 
0

>  <i_epik_Tot_Q>  (68) 
0

>  <i_epik_Tot_abs_Q>  (68) 
0

>  <s_lp_Force_Field>  (68) 
OPLS3e

>  <r_lp_Energy>  (68) 
90.8589

>  <b_lp_Chiralities_Consistent>  (68) 
1

>  <s_lp_Variant>  (68) 
20:0-2

>  <s_i_glide_gridfile>  (68) 
pfpi4k_grid

>  <i_i_glide_lignum>  (68) 
30

>  <i_i_glide_rotatable_bonds>  (68) 
0

>  <r_i_docking_score>  (68) 
-3.59844

>  <r_i_glide_ligand_efficiency>  (68) 
-0.257031

>  <r_i_glide_ligand_efficiency_sa>  (68) 
-0.619482

>  <r_i_glide_ligand_efficiency_ln>  (68) 
-0.988838

>  <r_i_glide_gscore>  (68) 
-3.59844

>  <r_i_glide_lipo>  (68) 
-0.573365

>  <r_i_glide_hbond>  (68) 
0

>  <r_i_glide_metal>  (68) 
-0

>  <r_i_glide_rewards>  (68) 
-2.11142

>  <r_i_glide_evdw>  (68) 
-17.8936

>  <r_i_glide_ecoul>  (68) 
-0.126446

>  <r_i_glide_erotb>  (68) 
0

>  <r_i_glide_esite>  (68) 
0

>  <r_i_glide_emodel>  (68) 
-21.9602

>  <r_i_glide_energy>  (68) 
-18.0201

>  <r_i_glide_einternal>  (68) 
0

>  <r_i_glide_intrahb_reward>  (68) 
-0

>  <i_i_glide_confnum>  (68) 
1

>  <i_i_glide_posenum>  (68) 
15

>  <r_i_glide_eff_state_penalty>  (68) 
0

>  <ligand_id>  (68) 
20

>  <original_smiles>  (68) 
C1C2CC3CC1CC1CC(C2)CC1C3

>  <smiles>  (68) 
[H]C1([H])C2([H])C([H])([H])C3([H])C([H])([H])C1([H])C([H])([H])C1([H])C([H])([H])C([H])(C2([H])[H])C([H])([H])C1([H])C3([H])[H]

$$$$
20:1:1
     RDKit          3D

 36 39  0  0  1  0  0  0  0  0999 V2000
    5.4161   -3.6676   -1.1033 C   0  0  0  0  0  0  0  0  0  0  0  0
    4.1591   -2.7925   -0.9972 C   0  0  2  0  0  0  0  0  0  0  0  0
    2.8634   -3.5677   -0.7018 C   0  0  0  0  0  0  0  0  0  0  0  0
    3.0310   -4.4256    0.5959 C   0  0  1  0  0  0  0  0  0  0  0  0
    4.2844   -5.3220    0.4865 C   0  0  0  0  0  0  0  0  0  0  0  0
    5.5785   -4.5280    0.1983 C   0  0  2  0  0  0  0  0  0  0  0  0
    6.0925   -3.7754    1.4756 C   0  0  0  0  0  0  0  0  0  0  0  0
    5.4279   -2.4594    2.0111 C   0  0  1  0  0  0  0  0  0  0  0  0
    5.7819   -1.1895    1.1892 C   0  0  0  0  0  0  0  0  0  0  0  0
    4.4816   -0.6727    0.5314 C   0  0  1  0  0  0  0  0  0  0  0  0
    4.2351   -1.2421   -0.9200 C   0  0  0  0  0  0  0  0  0  0  0  0
    3.3996   -1.0924    1.5536 C   0  0  0  0  0  0  0  0  0  0  0  0
    3.8769   -2.3953    2.2516 C   0  0  1  0  0  0  0  0  0  0  0  0
    2.9837   -3.6494    1.9599 C   0  0  0  0  0  0  0  0  0  0  0  0
    6.3116   -3.0739   -1.2793 H   0  0  0  0  0  0  0  0  0  0  0  0
    5.3055   -4.3334   -1.9641 H   0  0  0  0  0  0  0  0  0  0  0  0
    4.3141   -2.7533    0.0066 H   0  0  0  0  0  0  0  0  0  0  0  0
    2.0123   -2.8997   -0.6032 H   0  0  0  0  0  0  0  0  0  0  0  0
    2.6441   -4.2457   -1.5311 H   0  0  0  0  0  0  0  0  0  0  0  0
    2.1809   -5.1023    0.6271 H   0  0  0  0  0  0  0  0  0  0  0  0
    4.3996   -5.9255    1.3865 H   0  0  0  0  0  0  0  0  0  0  0  0
    4.1291   -6.0328   -0.3248 H   0  0  0  0  0  0  0  0  0  0  0  0
    6.3449   -5.2710   -0.0107 H   0  0  0  0  0  0  0  0  0  0  0  0
    6.0992   -4.4948    2.2974 H   0  0  0  0  0  0  0  0  0  0  0  0
    7.1476   -3.5485    1.3086 H   0  0  0  0  0  0  0  0  0  0  0  0
    5.8849   -2.3031    2.9890 H   0  0  0  0  0  0  0  0  0  0  0  0
    6.1533   -0.4264    1.8738 H   0  0  0  0  0  0  0  0  0  0  0  0
    6.5767   -1.3559    0.4615 H   0  0  0  0  0  0  0  0  0  0  0  0
    4.5116    0.4148    0.4692 H   0  0  0  0  0  0  0  0  0  0  0  0
    5.0233   -0.8842   -1.5830 H   0  0  0  0  0  0  0  0  0  0  0  0
    3.3063   -0.8289   -1.3127 H   0  0  0  0  0  0  0  0  0  0  0  0
    3.3129   -0.3067    2.3058 H   0  0  0  0  0  0  0  0  0  0  0  0
    2.4134   -1.1833    1.0962 H   0  0  0  0  0  0  0  0  0  0  0  0
    3.7425   -2.2137    3.3195 H   0  0  0  0  0  0  0  0  0  0  0  0
    1.9500   -3.3366    2.1149 H   0  0  0  0  0  0  0  0  0  0  0  0
    3.1694   -4.3754    2.7537 H   0  0  0  0  0  0  0  0  0  0  0  0
  1  6  1  0
  1  2  1  0
  1 15  1  0
  1 16  1  0
  2 11  1  0
  2  3  1  0
  2 17  1  6
  3  4  1  0
  3 18  1  0
  3 19  1  0
  4 14  1  0
  4  5  1  0
  4 20  1  1
  5  6  1  0
  5 21  1  0
  5 22  1  0
  6  7  1  0
  6 23  1  6
  7  8  1  0
  7 24  1  0
  7 25  1  0
  8 13  1  0
  8  9  1  0
  8 26  1  1
  9 10  1  0
  9 27  1  0
  9 28  1  0
 10 11  1  0
 10 12  1  0
 10 29  1  6
 11 30  1  0
 11 31  1  0
 12 13  1  0
 12 32  1  0
 12 33  1  0
 13 14  1  0
 13 34  1  1
 14 35  1  0
 14 36  1  0
M  END
>  <i_m_ct_stereo_status>  (69) 
1

>  <s_m_source_file>  (69) 
/var/tmp/pbs.5076255.sched01/tmpgr0kyu9k/0plolsrat.sdf

>  <i_m_source_file_index>  (69) 
30

>  <i_lp_mmshare_version>  (69) 
48012

>  <i_f3d_flags>  (69) 
0

>  <s_epik_input>  (69) 
W0NASF0xMltDSDJdW0NAQEhdM1tDSDJdW0NASF0oW0NIMl0xKVtDSDJdW0NASF00W0NAQEhdKFtDSDJdMylbQ0gyXVtDQEBIXShbQ0gyXTIpW0NIMl00

>  <s_epik_cmdline>  (69) 
J2VwaWtfcHl0aG9uJywgJy1waHQnLCAnMi4wJywgJy1waCcsICc3LjAnLCAnLXRuJywgJzgnLCAnLW1hJywgJzIwMCcsICctaW1hZScsICc8aW5maWxlLm1hZT4nLCAnLW9tYWUnLCAnPG91dGZpbGUubWFlPic=

>  <r_lp_tautomer_probability>  (69) 
1

>  <r_epik_Ionization_Penalty>  (69) 
0

>  <r_epik_Ionization_Penalty_Charging>  (69) 
0

>  <r_epik_Ionization_Penalty_Neutral>  (69) 
0

>  <r_epik_State_Penalty>  (69) 
-0

>  <r_epik_Charging_Adjusted_Penalty>  (69) 
0

>  <i_epik_Tot_Q>  (69) 
0

>  <i_epik_Tot_abs_Q>  (69) 
0

>  <s_lp_Force_Field>  (69) 
OPLS3e

>  <r_lp_Energy>  (69) 
90.8589

>  <b_lp_Chiralities_Consistent>  (69) 
1

>  <s_lp_Variant>  (69) 
20:0-2

>  <s_i_glide_gridfile>  (69) 
pfpi4k_grid

>  <i_i_glide_lignum>  (69) 
30

>  <i_i_glide_rotatable_bonds>  (69) 
0

>  <r_i_docking_score>  (69) 
-3.58286

>  <r_i_glide_ligand_efficiency>  (69) 
-0.255919

>  <r_i_glide_ligand_efficiency_sa>  (69) 
-0.616801

>  <r_i_glide_ligand_efficiency_ln>  (69) 
-0.984558

>  <r_i_glide_gscore>  (69) 
-3.58286

>  <r_i_glide_lipo>  (69) 
-0.554756

>  <r_i_glide_hbond>  (69) 
0

>  <r_i_glide_metal>  (69) 
-0

>  <r_i_glide_rewards>  (69) 
-2.11142

>  <r_i_glide_evdw>  (69) 
-17.3178

>  <r_i_glide_ecoul>  (69) 
-0.338626

>  <r_i_glide_erotb>  (69) 
0

>  <r_i_glide_esite>  (69) 
0

>  <r_i_glide_emodel>  (69) 
-21.5842

>  <r_i_glide_energy>  (69) 
-17.6564

>  <r_i_glide_einternal>  (69) 
0

>  <r_i_glide_intrahb_reward>  (69) 
-0

>  <i_i_glide_confnum>  (69) 
1

>  <i_i_glide_posenum>  (69) 
6

>  <r_i_glide_eff_state_penalty>  (69) 
0

>  <ligand_id>  (69) 
20

>  <original_smiles>  (69) 
C1C2CC3CC1CC1CC(C2)CC1C3

>  <smiles>  (69) 
[H]C1([H])C2([H])C([H])([H])C3([H])C([H])([H])C1([H])C([H])([H])C1([H])C([H])([H])C([H])(C2([H])[H])C([H])([H])C1([H])C3([H])[H]

$$$$
20:1:2
     RDKit          3D

 36 39  0  0  1  0  0  0  0  0999 V2000
    4.9785   -1.4538   -1.6249 C   0  0  0  0  0  0  0  0  0  0  0  0
    3.9133   -1.4842   -0.5236 C   0  0  2  0  0  0  0  0  0  0  0  0
    3.0150   -2.7206   -0.5329 C   0  0  0  0  0  0  0  0  0  0  0  0
    3.8736   -4.0166   -0.4487 C   0  0  1  0  0  0  0  0  0  0  0  0
    4.9342   -4.0056   -1.5584 C   0  0  0  0  0  0  0  0  0  0  0  0
    5.8501   -2.7625   -1.5420 C   0  0  2  0  0  0  0  0  0  0  0  0
    6.8941   -2.8450   -0.3743 C   0  0  0  0  0  0  0  0  0  0  0  0
    6.5024   -2.5799    1.1164 C   0  0  1  0  0  0  0  0  0  0  0  0
    6.2839   -1.0792    1.4627 C   0  0  0  0  0  0  0  0  0  0  0  0
    4.8053   -0.8852    1.8552 C   0  0  1  0  0  0  0  0  0  0  0  0
    3.8935   -0.4665    0.6527 C   0  0  0  0  0  0  0  0  0  0  0  0
    4.4467   -2.2521    2.4835 C   0  0  0  0  0  0  0  0  0  0  0  0
    5.3023   -3.3418    1.7854 C   0  0  1  0  0  0  0  0  0  0  0  0
    4.4780   -4.3713    0.9540 C   0  0  0  0  0  0  0  0  0  0  0  0
    5.6136   -0.5769   -1.5528 H   0  0  0  0  0  0  0  0  0  0  0  0
    4.4840   -1.4141   -2.6030 H   0  0  0  0  0  0  0  0  0  0  0  0
    4.5607   -2.0125    0.0477 H   0  0  0  0  0  0  0  0  0  0  0  0
    2.2917   -2.6948    0.2753 H   0  0  0  0  0  0  0  0  0  0  0  0
    2.4405   -2.7324   -1.4660 H   0  0  0  0  0  0  0  0  0  0  0  0
    3.2019   -4.8379   -0.6698 H   0  0  0  0  0  0  0  0  0  0  0  0
    5.5006   -4.9318   -1.4912 H   0  0  0  0  0  0  0  0  0  0  0  0
    4.4265   -4.0507   -2.5254 H   0  0  0  0  0  0  0  0  0  0  0  0
    6.4417   -2.8089   -2.4519 H   0  0  0  0  0  0  0  0  0  0  0  0
    7.3618   -3.8310   -0.4237 H   0  0  0  0  0  0  0  0  0  0  0  0
    7.7041   -2.1548   -0.6137 H   0  0  0  0  0  0  0  0  0  0  0  0
    7.3871   -2.8996    1.6649 H   0  0  0  0  0  0  0  0  0  0  0  0
    6.9000   -0.8292    2.3252 H   0  0  0  0  0  0  0  0  0  0  0  0
    6.5941   -0.4034    0.6644 H   0  0  0  0  0  0  0  0  0  0  0  0
    4.7290   -0.0976    2.6107 H   0  0  0  0  0  0  0  0  0  0  0  0
    4.2138    0.5106    0.2884 H   0  0  0  0  0  0  0  0  0  0  0  0
    2.8653   -0.3417    0.9928 H   0  0  0  0  0  0  0  0  0  0  0  0
    4.7113   -2.2223    3.5394 H   0  0  0  0  0  0  0  0  0  0  0  0
    3.3747   -2.4489    2.4419 H   0  0  0  0  0  0  0  0  0  0  0  0
    5.7291   -3.9280    2.5982 H   0  0  0  0  0  0  0  0  0  0  0  0
    3.6498   -4.6993    1.5882 H   0  0  0  0  0  0  0  0  0  0  0  0
    5.0915   -5.2681    0.8265 H   0  0  0  0  0  0  0  0  0  0  0  0
  1  6  1  0
  1  2  1  0
  1 15  1  0
  1 16  1  0
  2 11  1  0
  2  3  1  0
  2 17  1  6
  3  4  1  0
  3 18  1  0
  3 19  1  0
  4 14  1  0
  4  5  1  0
  4 20  1  6
  5  6  1  0
  5 21  1  0
  5 22  1  0
  6  7  1  0
  6 23  1  6
  7  8  1  0
  7 24  1  0
  7 25  1  0
  8 13  1  0
  8  9  1  0
  8 26  1  1
  9 10  1  0
  9 27  1  0
  9 28  1  0
 10 11  1  0
 10 12  1  0
 10 29  1  1
 11 30  1  0
 11 31  1  0
 12 13  1  0
 12 32  1  0
 12 33  1  0
 13 14  1  0
 13 34  1  1
 14 35  1  0
 14 36  1  0
M  END
>  <i_m_ct_stereo_status>  (70) 
1

>  <s_m_source_file>  (70) 
/var/tmp/pbs.5076255.sched01/tmpgr0kyu9k/0plolsrat.sdf

>  <i_m_source_file_index>  (70) 
30

>  <i_lp_mmshare_version>  (70) 
48012

>  <i_f3d_flags>  (70) 
0

>  <s_epik_input>  (70) 
W0NASF0xMltDSDJdW0NAQEhdM1tDSDJdW0NASF0oW0NIMl0xKVtDSDJdW0NASF00W0NAQEhdKFtDSDJdMylbQ0gyXVtDQEBIXShbQ0gyXTIpW0NIMl00

>  <s_epik_cmdline>  (70) 
J2VwaWtfcHl0aG9uJywgJy1waHQnLCAnMi4wJywgJy1waCcsICc3LjAnLCAnLXRuJywgJzgnLCAnLW1hJywgJzIwMCcsICctaW1hZScsICc8aW5maWxlLm1hZT4nLCAnLW9tYWUnLCAnPG91dGZpbGUubWFlPic=

>  <r_lp_tautomer_probability>  (70) 
1

>  <r_epik_Ionization_Penalty>  (70) 
0

>  <r_epik_Ionization_Penalty_Charging>  (70) 
0

>  <r_epik_Ionization_Penalty_Neutral>  (70) 
0

>  <r_epik_State_Penalty>  (70) 
-0

>  <r_epik_Charging_Adjusted_Penalty>  (70) 
0

>  <i_epik_Tot_Q>  (70) 
0

>  <i_epik_Tot_abs_Q>  (70) 
0

>  <s_lp_Force_Field>  (70) 
OPLS3e

>  <r_lp_Energy>  (70) 
90.8589

>  <b_lp_Chiralities_Consistent>  (70) 
1

>  <s_lp_Variant>  (70) 
20:0-2

>  <s_i_glide_gridfile>  (70) 
pfpi4k_grid

>  <i_i_glide_lignum>  (70) 
30

>  <i_i_glide_rotatable_bonds>  (70) 
0

>  <r_i_docking_score>  (70) 
-3.4103

>  <r_i_glide_ligand_efficiency>  (70) 
-0.243593

>  <r_i_glide_ligand_efficiency_sa>  (70) 
-0.587094

>  <r_i_glide_ligand_efficiency_ln>  (70) 
-0.937139

>  <r_i_glide_gscore>  (70) 
-3.4103

>  <r_i_glide_lipo>  (70) 
-0.453149

>  <r_i_glide_hbond>  (70) 
0

>  <r_i_glide_metal>  (70) 
-0

>  <r_i_glide_rewards>  (70) 
-2.11142

>  <r_i_glide_evdw>  (70) 
-16.3844

>  <r_i_glide_ecoul>  (70) 
-0.176754

>  <r_i_glide_erotb>  (70) 
0

>  <r_i_glide_esite>  (70) 
0

>  <r_i_glide_emodel>  (70) 
-20.2933

>  <r_i_glide_energy>  (70) 
-16.5611

>  <r_i_glide_einternal>  (70) 
0

>  <r_i_glide_intrahb_reward>  (70) 
-0

>  <i_i_glide_confnum>  (70) 
2

>  <i_i_glide_posenum>  (70) 
28

>  <r_i_glide_eff_state_penalty>  (70) 
0

>  <ligand_id>  (70) 
20

>  <original_smiles>  (70) 
C1C2CC3CC1CC1CC(C2)CC1C3

>  <smiles>  (70) 
[H]C1([H])C2([H])C([H])([H])C3([H])C([H])([H])C1([H])C([H])([H])C1([H])C([H])([H])C([H])(C2([H])[H])C([H])([H])C1([H])C3([H])[H]

$$$$
20:2:0
     RDKit          3D

 36 39  0  0  1  0  0  0  0  0999 V2000
    6.7950   -2.2082    0.2760 C   0  0  0  0  0  0  0  0  0  0  0  0
    5.7569   -1.0478    0.4931 C   0  0  1  0  0  0  0  0  0  0  0  0
    4.6806   -0.9641   -0.6500 C   0  0  0  0  0  0  0  0  0  0  0  0
    4.3232   -2.2689   -1.4310 C   0  0  1  0  0  0  0  0  0  0  0  0
    5.5952   -3.0106   -1.8124 C   0  0  0  0  0  0  0  0  0  0  0  0
    6.3302   -3.4514   -0.5546 C   0  0  2  0  0  0  0  0  0  0  0  0
    5.6515   -4.7057    0.1144 C   0  0  0  0  0  0  0  0  0  0  0  0
    4.3886   -4.6107    1.0307 C   0  0  1  0  0  0  0  0  0  0  0  0
    4.7605   -3.8678    2.3540 C   0  0  0  0  0  0  0  0  0  0  0  0
    4.1942   -2.4667    2.1373 C   0  0  2  0  0  0  0  0  0  0  0  0
    5.0581   -1.1781    1.9200 C   0  0  0  0  0  0  0  0  0  0  0  0
    2.8243   -2.7143    1.5092 C   0  0  0  0  0  0  0  0  0  0  0  0
    3.1086   -3.8493    0.4738 C   0  0  1  0  0  0  0  0  0  0  0  0
    3.1778   -3.2365   -0.9607 C   0  0  0  0  0  0  0  0  0  0  0  0
    7.1888   -2.5463    1.2332 H   0  0  0  0  0  0  0  0  0  0  0  0
    7.6549   -1.7836   -0.2380 H   0  0  0  0  0  0  0  0  0  0  0  0
    6.2998   -0.0993    0.5164 H   0  0  0  0  0  0  0  0  0  0  0  0
    3.7655   -0.5169   -0.2661 H   0  0  0  0  0  0  0  0  0  0  0  0
    5.0518   -0.2577   -1.3875 H   0  0  0  0  0  0  0  0  0  0  0  0
    3.9278   -1.9000   -2.3788 H   0  0  0  0  0  0  0  0  0  0  0  0
    5.3747   -3.8616   -2.4608 H   0  0  0  0  0  0  0  0  0  0  0  0
    6.2402   -2.3477   -2.3870 H   0  0  0  0  0  0  0  0  0  0  0  0
    7.2717   -3.8541   -0.9278 H   0  0  0  0  0  0  0  0  0  0  0  0
    5.4088   -5.4111   -0.6828 H   0  0  0  0  0  0  0  0  0  0  0  0
    6.4237   -5.2164    0.6919 H   0  0  0  0  0  0  0  0  0  0  0  0
    4.1033   -5.6310    1.2856 H   0  0  0  0  0  0  0  0  0  0  0  0
    4.2597   -4.3332    3.2020 H   0  0  0  0  0  0  0  0  0  0  0  0
    5.8290   -3.8706    2.5717 H   0  0  0  0  0  0  0  0  0  0  0  0
    4.5712   -2.5317    1.1892 H   0  0  0  0  0  0  0  0  0  0  0  0
    5.8230   -1.1307    2.6945 H   0  0  0  0  0  0  0  0  0  0  0  0
    4.4291   -0.3040    2.0820 H   0  0  0  0  0  0  0  0  0  0  0  0
    2.1333   -3.0659    2.2739 H   0  0  0  0  0  0  0  0  0  0  0  0
    2.3827   -1.8203    1.0656 H   0  0  0  0  0  0  0  0  0  0  0  0
    2.2635   -4.5373    0.4805 H   0  0  0  0  0  0  0  0  0  0  0  0
    2.2330   -2.7176   -1.1357 H   0  0  0  0  0  0  0  0  0  0  0  0
    3.1552   -4.0668   -1.6650 H   0  0  0  0  0  0  0  0  0  0  0  0
  1  6  1  0
  1  2  1  0
  1 15  1  0
  1 16  1  0
  2 11  1  0
  2  3  1  0
  2 17  1  1
  3  4  1  0
  3 18  1  0
  3 19  1  0
  4 14  1  0
  4  5  1  0
  4 20  1  6
  5  6  1  0
  5 21  1  0
  5 22  1  0
  6  7  1  0
  6 23  1  6
  7  8  1  0
  7 24  1  0
  7 25  1  0
  8 13  1  0
  8  9  1  0
  8 26  1  1
  9 10  1  0
  9 27  1  0
  9 28  1  0
 10 11  1  0
 10 12  1  0
 10 29  1  1
 11 30  1  0
 11 31  1  0
 12 13  1  0
 12 32  1  0
 12 33  1  0
 13 14  1  0
 13 34  1  6
 14 35  1  0
 14 36  1  0
M  END
>  <i_m_ct_stereo_status>  (71) 
1

>  <s_m_source_file>  (71) 
/var/tmp/pbs.5076255.sched01/tmpgr0kyu9k/0plolsrat.sdf

>  <i_m_source_file_index>  (71) 
31

>  <i_lp_mmshare_version>  (71) 
48012

>  <i_f3d_flags>  (71) 
0

>  <s_epik_input>  (71) 
W0NASF0xMltDSDJdW0NAQEhdM1tDSDJdW0NASF0oW0NIMl0xKVtDSDJdW0NASF00W0NAQEhdKFtDSDJdMylbQ0gyXVtDQEBIXShbQ0gyXTIpW0NIMl00

>  <s_epik_cmdline>  (71) 
J2VwaWtfcHl0aG9uJywgJy1waHQnLCAnMi4wJywgJy1waCcsICc3LjAnLCAnLXRuJywgJzgnLCAnLW1hJywgJzIwMCcsICctaW1hZScsICc8aW5maWxlLm1hZT4nLCAnLW9tYWUnLCAnPG91dGZpbGUubWFlPic=

>  <r_lp_tautomer_probability>  (71) 
1

>  <r_epik_Ionization_Penalty>  (71) 
0

>  <r_epik_Ionization_Penalty_Charging>  (71) 
0

>  <r_epik_Ionization_Penalty_Neutral>  (71) 
0

>  <r_epik_State_Penalty>  (71) 
-0

>  <r_epik_Charging_Adjusted_Penalty>  (71) 
0

>  <i_epik_Tot_Q>  (71) 
0

>  <i_epik_Tot_abs_Q>  (71) 
0

>  <s_lp_Force_Field>  (71) 
OPLS3e

>  <r_lp_Energy>  (71) 
105.799

>  <b_lp_Chiralities_Consistent>  (71) 
1

>  <s_lp_Variant>  (71) 
20:0-3

>  <s_i_glide_gridfile>  (71) 
pfpi4k_grid

>  <i_i_glide_lignum>  (71) 
31

>  <i_i_glide_rotatable_bonds>  (71) 
0

>  <r_i_docking_score>  (71) 
-3.71335

>  <r_i_glide_ligand_efficiency>  (71) 
-0.26524

>  <r_i_glide_ligand_efficiency_sa>  (71) 
-0.639265

>  <r_i_glide_ligand_efficiency_ln>  (71) 
-1.02042

>  <r_i_glide_gscore>  (71) 
-3.71335

>  <r_i_glide_lipo>  (71) 
-0.628901

>  <r_i_glide_hbond>  (71) 
0

>  <r_i_glide_metal>  (71) 
-0

>  <r_i_glide_rewards>  (71) 
-2.11142

>  <r_i_glide_evdw>  (71) 
-18.3447

>  <r_i_glide_ecoul>  (71) 
-0.371965

>  <r_i_glide_erotb>  (71) 
0

>  <r_i_glide_esite>  (71) 
0

>  <r_i_glide_emodel>  (71) 
-22.9964

>  <r_i_glide_energy>  (71) 
-18.7166

>  <r_i_glide_einternal>  (71) 
0

>  <r_i_glide_intrahb_reward>  (71) 
-0

>  <i_i_glide_confnum>  (71) 
1

>  <i_i_glide_posenum>  (71) 
24

>  <r_i_glide_eff_state_penalty>  (71) 
0

>  <ligand_id>  (71) 
20

>  <original_smiles>  (71) 
C1C2CC3CC1CC1CC(C2)CC1C3

>  <smiles>  (71) 
[H]C1([H])C2([H])C([H])([H])C3([H])C([H])([H])C1([H])C([H])([H])C1([H])C([H])([H])C([H])(C2([H])[H])C([H])([H])C1([H])C3([H])[H]

$$$$
20:2:1
     RDKit          3D

 36 39  0  0  1  0  0  0  0  0999 V2000
    3.0219   -3.4618   -0.7427 C   0  0  0  0  0  0  0  0  0  0  0  0
    3.2875   -4.2077    0.6167 C   0  0  1  0  0  0  0  0  0  0  0  0
    4.7196   -4.8640    0.6914 C   0  0  0  0  0  0  0  0  0  0  0  0
    5.8664   -4.1648   -0.1248 C   0  0  1  0  0  0  0  0  0  0  0  0
    5.3854   -3.8557   -1.5380 C   0  0  0  0  0  0  0  0  0  0  0  0
    4.2589   -2.8432   -1.4853 C   0  0  2  0  0  0  0  0  0  0  0  0
    4.7810   -1.3877   -1.2141 C   0  0  0  0  0  0  0  0  0  0  0  0
    5.1482   -0.8693    0.2129 C   0  0  1  0  0  0  0  0  0  0  0  0
    3.8567   -0.7800    1.0787 C   0  0  0  0  0  0  0  0  0  0  0  0
    3.9517   -2.0119    1.9688 C   0  0  2  0  0  0  0  0  0  0  0  0
    3.0174   -3.2685    1.8596 C   0  0  0  0  0  0  0  0  0  0  0  0
    5.4157   -2.0618    2.3955 C   0  0  0  0  0  0  0  0  0  0  0  0
    6.1752   -1.7132    1.0811 C   0  0  1  0  0  0  0  0  0  0  0  0
    6.7682   -3.0252    0.4676 C   0  0  0  0  0  0  0  0  0  0  0  0
    2.2912   -2.6670   -0.5870 H   0  0  0  0  0  0  0  0  0  0  0  0
    2.5433   -4.1583   -1.4162 H   0  0  0  0  0  0  0  0  0  0  0  0
    2.5577   -5.0317    0.6854 H   0  0  0  0  0  0  0  0  0  0  0  0
    5.0317   -4.9479    1.7319 H   0  0  0  0  0  0  0  0  0  0  0  0
    4.6378   -5.8807    0.3374 H   0  0  0  0  0  0  0  0  0  0  0  0
    6.5925   -4.9763   -0.2550 H   0  0  0  0  0  0  0  0  0  0  0  0
    6.2081   -3.5063   -2.1622 H   0  0  0  0  0  0  0  0  0  0  0  0
    5.0169   -4.7741   -1.9988 H   0  0  0  0  0  0  0  0  0  0  0  0
    3.9139   -2.7767   -2.5250 H   0  0  0  0  0  0  0  0  0  0  0  0
    5.6481   -1.2324   -1.8582 H   0  0  0  0  0  0  0  0  0  0  0  0
    4.0293   -0.7016   -1.6180 H   0  0  0  0  0  0  0  0  0  0  0  0
    5.5438    0.1371    0.0943 H   0  0  0  0  0  0  0  0  0  0  0  0
    3.8859    0.1177    1.6999 H   0  0  0  0  0  0  0  0  0  0  0  0
    2.9396   -0.7321    0.4945 H   0  0  0  0  0  0  0  0  0  0  0  0
    4.2498   -2.5148    1.1263 H   0  0  0  0  0  0  0  0  0  0  0  0
    1.9815   -2.9318    1.8282 H   0  0  0  0  0  0  0  0  0  0  0  0
    3.0995   -3.8541    2.7698 H   0  0  0  0  0  0  0  0  0  0  0  0
    5.5959   -1.2887    3.1469 H   0  0  0  0  0  0  0  0  0  0  0  0
    5.7060   -3.0084    2.8365 H   0  0  0  0  0  0  0  0  0  0  0  0
    7.0252   -1.0741    1.3374 H   0  0  0  0  0  0  0  0  0  0  0  0
    7.4000   -3.4787    1.2289 H   0  0  0  0  0  0  0  0  0  0  0  0
    7.4733   -2.7328   -0.3155 H   0  0  0  0  0  0  0  0  0  0  0  0
  1  6  1  0
  1  2  1  0
  1 15  1  0
  1 16  1  0
  2 11  1  0
  2  3  1  0
  2 17  1  1
  3  4  1  0
  3 18  1  0
  3 19  1  0
  4 14  1  0
  4  5  1  0
  4 20  1  6
  5  6  1  0
  5 21  1  0
  5 22  1  0
  6  7  1  0
  6 23  1  6
  7  8  1  0
  7 24  1  0
  7 25  1  0
  8 13  1  0
  8  9  1  0
  8 26  1  6
  9 10  1  0
  9 27  1  0
  9 28  1  0
 10 11  1  0
 10 12  1  0
 10 29  1  1
 11 30  1  0
 11 31  1  0
 12 13  1  0
 12 32  1  0
 12 33  1  0
 13 14  1  0
 13 34  1  1
 14 35  1  0
 14 36  1  0
M  END
>  <i_m_ct_stereo_status>  (72) 
1

>  <s_m_source_file>  (72) 
/var/tmp/pbs.5076255.sched01/tmpgr0kyu9k/0plolsrat.sdf

>  <i_m_source_file_index>  (72) 
31

>  <i_lp_mmshare_version>  (72) 
48012

>  <i_f3d_flags>  (72) 
0

>  <s_epik_input>  (72) 
W0NASF0xMltDSDJdW0NAQEhdM1tDSDJdW0NASF0oW0NIMl0xKVtDSDJdW0NASF00W0NAQEhdKFtDSDJdMylbQ0gyXVtDQEBIXShbQ0gyXTIpW0NIMl00

>  <s_epik_cmdline>  (72) 
J2VwaWtfcHl0aG9uJywgJy1waHQnLCAnMi4wJywgJy1waCcsICc3LjAnLCAnLXRuJywgJzgnLCAnLW1hJywgJzIwMCcsICctaW1hZScsICc8aW5maWxlLm1hZT4nLCAnLW9tYWUnLCAnPG91dGZpbGUubWFlPic=

>  <r_lp_tautomer_probability>  (72) 
1

>  <r_epik_Ionization_Penalty>  (72) 
0

>  <r_epik_Ionization_Penalty_Charging>  (72) 
0

>  <r_epik_Ionization_Penalty_Neutral>  (72) 
0

>  <r_epik_State_Penalty>  (72) 
-0

>  <r_epik_Charging_Adjusted_Penalty>  (72) 
0

>  <i_epik_Tot_Q>  (72) 
0

>  <i_epik_Tot_abs_Q>  (72) 
0

>  <s_lp_Force_Field>  (72) 
OPLS3e

>  <r_lp_Energy>  (72) 
105.799

>  <b_lp_Chiralities_Consistent>  (72) 
1

>  <s_lp_Variant>  (72) 
20:0-3

>  <s_i_glide_gridfile>  (72) 
pfpi4k_grid

>  <i_i_glide_lignum>  (72) 
31

>  <i_i_glide_rotatable_bonds>  (72) 
0

>  <r_i_docking_score>  (72) 
-3.67327

>  <r_i_glide_ligand_efficiency>  (72) 
-0.262377

>  <r_i_glide_ligand_efficiency_sa>  (72) 
-0.632365

>  <r_i_glide_ligand_efficiency_ln>  (72) 
-1.0094

>  <r_i_glide_gscore>  (72) 
-3.67327

>  <r_i_glide_lipo>  (72) 
-0.560769

>  <r_i_glide_hbond>  (72) 
0

>  <r_i_glide_metal>  (72) 
-0

>  <r_i_glide_rewards>  (72) 
-2.11142

>  <r_i_glide_evdw>  (72) 
-18.432

>  <r_i_glide_ecoul>  (72) 
-0.529849

>  <r_i_glide_erotb>  (72) 
0

>  <r_i_glide_esite>  (72) 
0

>  <r_i_glide_emodel>  (72) 
-23.1731

>  <r_i_glide_energy>  (72) 
-18.9619

>  <r_i_glide_einternal>  (72) 
0

>  <r_i_glide_intrahb_reward>  (72) 
-0

>  <i_i_glide_confnum>  (72) 
2

>  <i_i_glide_posenum>  (72) 
16

>  <r_i_glide_eff_state_penalty>  (72) 
0

>  <ligand_id>  (72) 
20

>  <original_smiles>  (72) 
C1C2CC3CC1CC1CC(C2)CC1C3

>  <smiles>  (72) 
[H]C1([H])C2([H])C([H])([H])C3([H])C([H])([H])C1([H])C([H])([H])C1([H])C([H])([H])C([H])(C2([H])[H])C([H])([H])C1([H])C3([H])[H]

$$$$
20:2:2
     RDKit          3D

 36 39  0  0  1  0  0  0  0  0999 V2000
    3.1776   -1.8172    1.5359 C   0  0  0  0  0  0  0  0  0  0  0  0
    4.6855   -1.4213    1.7375 C   0  0  1  0  0  0  0  0  0  0  0  0
    5.6209   -2.6599    1.9946 C   0  0  0  0  0  0  0  0  0  0  0  0
    5.1896   -4.0411    1.3862 C   0  0  1  0  0  0  0  0  0  0  0  0
    3.7136   -4.2910    1.6625 C   0  0  0  0  0  0  0  0  0  0  0  0
    2.8740   -3.2400    0.9497 C   0  0  2  0  0  0  0  0  0  0  0  0
    2.7556   -3.5173   -0.5943 C   0  0  0  0  0  0  0  0  0  0  0  0
    3.8718   -3.1302   -1.6188 C   0  0  1  0  0  0  0  0  0  0  0  0
    3.9846   -1.5788   -1.7092 C   0  0  0  0  0  0  0  0  0  0  0  0
    5.2259   -1.2741   -0.8762 C   0  0  2  0  0  0  0  0  0  0  0  0
    5.2142   -0.5585    0.5232 C   0  0  0  0  0  0  0  0  0  0  0  0
    6.2255   -2.3545   -1.2868 C   0  0  0  0  0  0  0  0  0  0  0  0
    5.3499   -3.6412   -1.3390 C   0  0  1  0  0  0  0  0  0  0  0  0
    5.6124   -4.4972   -0.0538 C   0  0  0  0  0  0  0  0  0  0  0  0
    2.6685   -1.0668    0.9259 H   0  0  0  0  0  0  0  0  0  0  0  0
    2.6949   -1.7554    2.5021 H   0  0  0  0  0  0  0  0  0  0  0  0
    4.7436   -0.7677    2.6269 H   0  0  0  0  0  0  0  0  0  0  0  0
    6.6358   -2.4320    1.6727 H   0  0  0  0  0  0  0  0  0  0  0  0
    5.6939   -2.7898    3.0655 H   0  0  0  0  0  0  0  0  0  0  0  0
    5.7085   -4.7710    2.0175 H   0  0  0  0  0  0  0  0  0  0  0  0
    3.4249   -5.2984    1.3551 H   0  0  0  0  0  0  0  0  0  0  0  0
    3.5334   -4.2315    2.7331 H   0  0  0  0  0  0  0  0  0  0  0  0
    1.8559   -3.4367    1.3012 H   0  0  0  0  0  0  0  0  0  0  0  0
    2.5661   -4.5856   -0.7195 H   0  0  0  0  0  0  0  0  0  0  0  0
    1.8316   -3.0580   -0.9413 H   0  0  0  0  0  0  0  0  0  0  0  0
    3.5500   -3.5058   -2.5932 H   0  0  0  0  0  0  0  0  0  0  0  0
    4.1527   -1.2671   -2.7408 H   0  0  0  0  0  0  0  0  0  0  0  0
    3.0906   -1.0600   -1.3619 H   0  0  0  0  0  0  0  0  0  0  0  0
    4.8606   -1.9522   -0.2008 H   0  0  0  0  0  0  0  0  0  0  0  0
    4.6071    0.3444    0.4467 H   0  0  0  0  0  0  0  0  0  0  0  0
    6.2185   -0.2101    0.7451 H   0  0  0  0  0  0  0  0  0  0  0  0
    6.6170   -2.1379   -2.2810 H   0  0  0  0  0  0  0  0  0  0  0  0
    7.0774   -2.4295   -0.6152 H   0  0  0  0  0  0  0  0  0  0  0  0
    5.6733   -4.2453   -2.1908 H   0  0  0  0  0  0  0  0  0  0  0  0
    6.6836   -4.6964   -0.0210 H   0  0  0  0  0  0  0  0  0  0  0  0
    5.1669   -5.4792   -0.2325 H   0  0  0  0  0  0  0  0  0  0  0  0
  1  6  1  0
  1  2  1  0
  1 15  1  0
  1 16  1  0
  2 11  1  0
  2  3  1  0
  2 17  1  1
  3  4  1  0
  3 18  1  0
  3 19  1  0
  4 14  1  0
  4  5  1  0
  4 20  1  1
  5  6  1  0
  5 21  1  0
  5 22  1  0
  6  7  1  0
  6 23  1  1
  7  8  1  0
  7 24  1  0
  7 25  1  0
  8 13  1  0
  8  9  1  0
  8 26  1  6
  9 10  1  0
  9 27  1  0
  9 28  1  0
 10 11  1  0
 10 12  1  0
 10 29  1  6
 11 30  1  0
 11 31  1  0
 12 13  1  0
 12 32  1  0
 12 33  1  0
 13 14  1  0
 13 34  1  6
 14 35  1  0
 14 36  1  0
M  END
>  <i_m_ct_stereo_status>  (73) 
1

>  <s_m_source_file>  (73) 
/var/tmp/pbs.5076255.sched01/tmpgr0kyu9k/0plolsrat.sdf

>  <i_m_source_file_index>  (73) 
31

>  <i_lp_mmshare_version>  (73) 
48012

>  <i_f3d_flags>  (73) 
0

>  <s_epik_input>  (73) 
W0NASF0xMltDSDJdW0NAQEhdM1tDSDJdW0NASF0oW0NIMl0xKVtDSDJdW0NASF00W0NAQEhdKFtDSDJdMylbQ0gyXVtDQEBIXShbQ0gyXTIpW0NIMl00

>  <s_epik_cmdline>  (73) 
J2VwaWtfcHl0aG9uJywgJy1waHQnLCAnMi4wJywgJy1waCcsICc3LjAnLCAnLXRuJywgJzgnLCAnLW1hJywgJzIwMCcsICctaW1hZScsICc8aW5maWxlLm1hZT4nLCAnLW9tYWUnLCAnPG91dGZpbGUubWFlPic=

>  <r_lp_tautomer_probability>  (73) 
1

>  <r_epik_Ionization_Penalty>  (73) 
0

>  <r_epik_Ionization_Penalty_Charging>  (73) 
0

>  <r_epik_Ionization_Penalty_Neutral>  (73) 
0

>  <r_epik_State_Penalty>  (73) 
-0

>  <r_epik_Charging_Adjusted_Penalty>  (73) 
0

>  <i_epik_Tot_Q>  (73) 
0

>  <i_epik_Tot_abs_Q>  (73) 
0

>  <s_lp_Force_Field>  (73) 
OPLS3e

>  <r_lp_Energy>  (73) 
105.799

>  <b_lp_Chiralities_Consistent>  (73) 
1

>  <s_lp_Variant>  (73) 
20:0-3

>  <s_i_glide_gridfile>  (73) 
pfpi4k_grid

>  <i_i_glide_lignum>  (73) 
31

>  <i_i_glide_rotatable_bonds>  (73) 
0

>  <r_i_docking_score>  (73) 
-3.48864

>  <r_i_glide_ligand_efficiency>  (73) 
-0.249188

>  <r_i_glide_ligand_efficiency_sa>  (73) 
-0.600579

>  <r_i_glide_ligand_efficiency_ln>  (73) 
-0.958665

>  <r_i_glide_gscore>  (73) 
-3.48864

>  <r_i_glide_lipo>  (73) 
-0.408312

>  <r_i_glide_hbond>  (73) 
0

>  <r_i_glide_metal>  (73) 
-0

>  <r_i_glide_rewards>  (73) 
-2.11142

>  <r_i_glide_evdw>  (73) 
-17.9875

>  <r_i_glide_ecoul>  (73) 
-0.463509

>  <r_i_glide_erotb>  (73) 
0

>  <r_i_glide_esite>  (73) 
0

>  <r_i_glide_emodel>  (73) 
-22.4523

>  <r_i_glide_energy>  (73) 
-18.451

>  <r_i_glide_einternal>  (73) 
0

>  <r_i_glide_intrahb_reward>  (73) 
-0

>  <i_i_glide_confnum>  (73) 
2

>  <i_i_glide_posenum>  (73) 
2

>  <r_i_glide_eff_state_penalty>  (73) 
0

>  <ligand_id>  (73) 
20

>  <original_smiles>  (73) 
C1C2CC3CC1CC1CC(C2)CC1C3

>  <smiles>  (73) 
[H]C1([H])C2([H])C([H])([H])C3([H])C([H])([H])C1([H])C([H])([H])C1([H])C([H])([H])C([H])(C2([H])[H])C([H])([H])C1([H])C3([H])[H]

$$$$
20:3:0
     RDKit          3D

 36 39  0  0  1  0  0  0  0  0999 V2000
    3.3825   -4.1514    1.3372 C   0  0  0  0  0  0  0  0  0  0  0  0
    2.6370   -3.2432    0.2971 C   0  0  2  0  0  0  0  0  0  0  0  0
    3.3689   -1.8314    0.7585 C   0  0  0  0  0  0  0  0  0  0  0  0
    4.9713   -1.6233    0.5219 C   0  0  1  0  0  0  0  0  0  0  0  0
    5.5319   -2.6316    1.5266 C   0  0  0  0  0  0  0  0  0  0  0  0
    4.9506   -4.0036    1.1765 C   0  0  2  0  0  0  0  0  0  0  0  0
    5.4241   -4.2296   -0.2601 C   0  0  0  0  0  0  0  0  0  0  0  0
    4.7453   -3.4512   -1.4870 C   0  0  1  0  0  0  0  0  0  0  0  0
    3.6433   -2.1563   -1.8603 C   0  0  0  0  0  0  0  0  0  0  0  0
    2.9079   -2.9253   -2.6952 C   0  0  2  0  0  0  0  0  0  0  0  0
    2.1462   -3.5397   -1.3137 C   0  0  0  0  0  0  0  0  0  0  0  0
    4.4377   -2.8837   -3.3516 C   0  0  0  0  0  0  0  0  0  0  0  0
    5.6293   -2.6775   -2.2009 C   0  0  1  0  0  0  0  0  0  0  0  0
    5.8280   -1.5835   -0.9325 C   0  0  0  0  0  0  0  0  0  0  0  0
    3.0815   -5.2103    1.3431 H   0  0  0  0  0  0  0  0  0  0  0  0
    3.1214   -3.8350    2.3489 H   0  0  0  0  0  0  0  0  0  0  0  0
    3.1084   -4.0834   -0.1377 H   0  0  0  0  0  0  0  0  0  0  0  0
    2.8048   -0.9417    0.4734 H   0  0  0  0  0  0  0  0  0  0  0  0
    3.2047   -1.7302    1.8343 H   0  0  0  0  0  0  0  0  0  0  0  0
    5.1841   -0.6460    0.9562 H   0  0  0  0  0  0  0  0  0  0  0  0
    6.6206   -2.6393    1.4983 H   0  0  0  0  0  0  0  0  0  0  0  0
    5.2595   -2.3632    2.5486 H   0  0  0  0  0  0  0  0  0  0  0  0
    5.4266   -4.7363    1.8302 H   0  0  0  0  0  0  0  0  0  0  0  0
    6.5102   -4.1249   -0.3029 H   0  0  0  0  0  0  0  0  0  0  0  0
    5.2941   -5.3026   -0.4214 H   0  0  0  0  0  0  0  0  0  0  0  0
    4.4824   -4.4275   -1.9461 H   0  0  0  0  0  0  0  0  0  0  0  0
    2.9028   -1.5539   -1.3677 H   0  0  0  0  0  0  0  0  0  0  0  0
    3.9397   -1.1621   -2.2753 H   0  0  0  0  0  0  0  0  0  0  0  0
    2.2081   -2.3447   -3.2997 H   0  0  0  0  0  0  0  0  0  0  0  0
    1.8678   -4.5875   -1.4854 H   0  0  0  0  0  0  0  0  0  0  0  0
    1.1632   -3.0743   -1.3670 H   0  0  0  0  0  0  0  0  0  0  0  0
    4.6085   -3.7886   -3.9471 H   0  0  0  0  0  0  0  0  0  0  0  0
    4.5156   -2.0972   -4.1095 H   0  0  0  0  0  0  0  0  0  0  0  0
    6.5554   -3.1851   -2.4755 H   0  0  0  0  0  0  0  0  0  0  0  0
    5.7555   -0.5717   -1.3299 H   0  0  0  0  0  0  0  0  0  0  0  0
    6.8745   -1.6619   -0.6433 H   0  0  0  0  0  0  0  0  0  0  0  0
  1  6  1  0
  1  2  1  0
  1 15  1  0
  1 16  1  0
  2 11  1  0
  2  3  1  0
  2 17  1  1
  3  4  1  0
  3 18  1  0
  3 19  1  0
  4 14  1  0
  4  5  1  0
  4 20  1  1
  5  6  1  0
  5 21  1  0
  5 22  1  0
  6  7  1  0
  6 23  1  1
  7  8  1  0
  7 24  1  0
  7 25  1  0
  8 13  1  0
  8  9  1  0
  8 26  1  6
  9 10  1  0
  9 27  1  0
  9 28  1  0
 10 11  1  0
 10 12  1  0
 10 29  1  6
 11 30  1  0
 11 31  1  0
 12 13  1  0
 12 32  1  0
 12 33  1  0
 13 14  1  0
 13 34  1  6
 14 35  1  0
 14 36  1  0
M  END
>  <i_m_ct_stereo_status>  (74) 
1

>  <s_m_source_file>  (74) 
/var/tmp/pbs.5076255.sched01/tmpgr0kyu9k/0plolsrat.sdf

>  <i_m_source_file_index>  (74) 
32

>  <i_lp_mmshare_version>  (74) 
48012

>  <i_f3d_flags>  (74) 
0

>  <s_epik_input>  (74) 
W0NASF0xMltDSDJdW0NAQEhdM1tDSDJdW0NASF0oW0NIMl0xKVtDSDJdW0NASF00W0NAQEhdKFtDSDJdMylbQ0gyXVtDQEBIXShbQ0gyXTIpW0NIMl00

>  <s_epik_cmdline>  (74) 
J2VwaWtfcHl0aG9uJywgJy1waHQnLCAnMi4wJywgJy1waCcsICc3LjAnLCAnLXRuJywgJzgnLCAnLW1hJywgJzIwMCcsICctaW1hZScsICc8aW5maWxlLm1hZT4nLCAnLW9tYWUnLCAnPG91dGZpbGUubWFlPic=

>  <r_lp_tautomer_probability>  (74) 
1

>  <r_epik_Ionization_Penalty>  (74) 
0

>  <r_epik_Ionization_Penalty_Charging>  (74) 
0

>  <r_epik_Ionization_Penalty_Neutral>  (74) 
0

>  <r_epik_State_Penalty>  (74) 
-0

>  <r_epik_Charging_Adjusted_Penalty>  (74) 
0

>  <i_epik_Tot_Q>  (74) 
0

>  <i_epik_Tot_abs_Q>  (74) 
0

>  <s_lp_Force_Field>  (74) 
OPLS3e

>  <r_lp_Energy>  (74) 
428.471

>  <b_lp_Chiralities_Consistent>  (74) 
1

>  <s_lp_Variant>  (74) 
20:0-4

>  <s_i_glide_gridfile>  (74) 
pfpi4k_grid

>  <i_i_glide_lignum>  (74) 
32

>  <i_i_glide_rotatable_bonds>  (74) 
0

>  <r_i_docking_score>  (74) 
-3.44571

>  <r_i_glide_ligand_efficiency>  (74) 
-0.246122

>  <r_i_glide_ligand_efficiency_sa>  (74) 
-0.59319

>  <r_i_glide_ligand_efficiency_ln>  (74) 
-0.94687

>  <r_i_glide_gscore>  (74) 
-3.44571

>  <r_i_glide_lipo>  (74) 
-0.430225

>  <r_i_glide_hbond>  (74) 
0

>  <r_i_glide_metal>  (74) 
-0

>  <r_i_glide_rewards>  (74) 
-2.11142

>  <r_i_glide_evdw>  (74) 
-19.0156

>  <r_i_glide_ecoul>  (74) 
0.311445

>  <r_i_glide_erotb>  (74) 
0

>  <r_i_glide_esite>  (74) 
0

>  <r_i_glide_emodel>  (74) 
-22.5608

>  <r_i_glide_energy>  (74) 
-18.7042

>  <r_i_glide_einternal>  (74) 
0

>  <r_i_glide_intrahb_reward>  (74) 
-0

>  <i_i_glide_confnum>  (74) 
1

>  <i_i_glide_posenum>  (74) 
5

>  <r_i_glide_eff_state_penalty>  (74) 
0

>  <ligand_id>  (74) 
20

>  <original_smiles>  (74) 
C1C2CC3CC1CC1CC(C2)CC1C3

>  <smiles>  (74) 
[H]C1([H])C2([H])C([H])([H])C3([H])C([H])([H])C1([H])C([H])([H])C1([H])C([H])([H])C([H])(C2([H])[H])C([H])([H])C1([H])C3([H])[H]

$$$$
20:3:1
     RDKit          3D

 36 39  0  0  1  0  0  0  0  0999 V2000
    4.6252   -1.3982   -0.9177 C   0  0  0  0  0  0  0  0  0  0  0  0
    4.0293   -2.8137   -1.2422 C   0  0  2  0  0  0  0  0  0  0  0  0
    5.4916   -3.5490   -1.4834 C   0  0  0  0  0  0  0  0  0  0  0  0
    6.5391   -3.7319   -0.2358 C   0  0  1  0  0  0  0  0  0  0  0  0
    6.9394   -2.2769    0.0059 C   0  0  0  0  0  0  0  0  0  0  0  0
    5.6583   -1.4864    0.2804 C   0  0  2  0  0  0  0  0  0  0  0  0
    5.0795   -2.1854    1.5119 C   0  0  0  0  0  0  0  0  0  0  0  0
    4.3601   -3.6147    1.3900 C   0  0  1  0  0  0  0  0  0  0  0  0
    4.0957   -4.9372    0.2879 C   0  0  0  0  0  0  0  0  0  0  0  0
    2.7588   -4.9350    0.4911 C   0  0  2  0  0  0  0  0  0  0  0  0
    2.6768   -3.6427   -0.6017 C   0  0  0  0  0  0  0  0  0  0  0  0
    3.4410   -5.2582    1.9774 C   0  0  0  0  0  0  0  0  0  0  0  0
    4.9626   -4.5925    2.1507 C   0  0  1  0  0  0  0  0  0  0  0  0
    6.3479   -4.6214    1.1901 C   0  0  0  0  0  0  0  0  0  0  0  0
    3.8801   -0.6085   -0.7397 H   0  0  0  0  0  0  0  0  0  0  0  0
    5.1566   -1.0168   -1.7918 H   0  0  0  0  0  0  0  0  0  0  0  0
    3.6803   -2.4062   -0.3328 H   0  0  0  0  0  0  0  0  0  0  0  0
    5.4154   -4.4612   -2.0781 H   0  0  0  0  0  0  0  0  0  0  0  0
    6.0185   -2.9611   -2.2395 H   0  0  0  0  0  0  0  0  0  0  0  0
    7.4231   -4.1838   -0.6843 H   0  0  0  0  0  0  0  0  0  0  0  0
    7.6423   -2.2031    0.8351 H   0  0  0  0  0  0  0  0  0  0  0  0
    7.4557   -1.8700   -0.8629 H   0  0  0  0  0  0  0  0  0  0  0  0
    5.9510   -0.4697    0.5485 H   0  0  0  0  0  0  0  0  0  0  0  0
    5.8329   -2.2098    2.3020 H   0  0  0  0  0  0  0  0  0  0  0  0
    4.3561   -1.4713    1.9118 H   0  0  0  0  0  0  0  0  0  0  0  0
    3.4284   -3.1747    1.8095 H   0  0  0  0  0  0  0  0  0  0  0  0
    4.1694   -5.1468   -0.7637 H   0  0  0  0  0  0  0  0  0  0  0  0
    4.5829   -5.9405    0.3627 H   0  0  0  0  0  0  0  0  0  0  0  0
    2.2685   -5.8234    0.0869 H   0  0  0  0  0  0  0  0  0  0  0  0
    1.8775   -2.9678   -0.2741 H   0  0  0  0  0  0  0  0  0  0  0  0
    2.2270   -4.0875   -1.4903 H   0  0  0  0  0  0  0  0  0  0  0  0
    2.7686   -4.9268    2.7782 H   0  0  0  0  0  0  0  0  0  0  0  0
    3.4876   -6.3375    2.1618 H   0  0  0  0  0  0  0  0  0  0  0  0
    5.1683   -4.3016    3.1819 H   0  0  0  0  0  0  0  0  0  0  0  0
    6.6052   -5.6592    0.9773 H   0  0  0  0  0  0  0  0  0  0  0  0
    7.1634   -4.3090    1.8389 H   0  0  0  0  0  0  0  0  0  0  0  0
  1  6  1  0
  1  2  1  0
  1 15  1  0
  1 16  1  0
  2 11  1  0
  2  3  1  0
  2 17  1  6
  3  4  1  0
  3 18  1  0
  3 19  1  0
  4 14  1  0
  4  5  1  0
  4 20  1  6
  5  6  1  0
  5 21  1  0
  5 22  1  0
  6  7  1  0
  6 23  1  1
  7  8  1  0
  7 24  1  0
  7 25  1  0
  8 13  1  0
  8  9  1  0
  8 26  1  1
  9 10  1  0
  9 27  1  0
  9 28  1  0
 10 11  1  0
 10 12  1  0
 10 29  1  6
 11 30  1  0
 11 31  1  0
 12 13  1  0
 12 32  1  0
 12 33  1  0
 13 14  1  0
 13 34  1  1
 14 35  1  0
 14 36  1  0
M  END
>  <i_m_ct_stereo_status>  (75) 
1

>  <s_m_source_file>  (75) 
/var/tmp/pbs.5076255.sched01/tmpgr0kyu9k/0plolsrat.sdf

>  <i_m_source_file_index>  (75) 
32

>  <i_lp_mmshare_version>  (75) 
48012

>  <i_f3d_flags>  (75) 
0

>  <s_epik_input>  (75) 
W0NASF0xMltDSDJdW0NAQEhdM1tDSDJdW0NASF0oW0NIMl0xKVtDSDJdW0NASF00W0NAQEhdKFtDSDJdMylbQ0gyXVtDQEBIXShbQ0gyXTIpW0NIMl00

>  <s_epik_cmdline>  (75) 
J2VwaWtfcHl0aG9uJywgJy1waHQnLCAnMi4wJywgJy1waCcsICc3LjAnLCAnLXRuJywgJzgnLCAnLW1hJywgJzIwMCcsICctaW1hZScsICc8aW5maWxlLm1hZT4nLCAnLW9tYWUnLCAnPG91dGZpbGUubWFlPic=

>  <r_lp_tautomer_probability>  (75) 
1

>  <r_epik_Ionization_Penalty>  (75) 
0

>  <r_epik_Ionization_Penalty_Charging>  (75) 
0

>  <r_epik_Ionization_Penalty_Neutral>  (75) 
0

>  <r_epik_State_Penalty>  (75) 
-0

>  <r_epik_Charging_Adjusted_Penalty>  (75) 
0

>  <i_epik_Tot_Q>  (75) 
0

>  <i_epik_Tot_abs_Q>  (75) 
0

>  <s_lp_Force_Field>  (75) 
OPLS3e

>  <r_lp_Energy>  (75) 
428.471

>  <b_lp_Chiralities_Consistent>  (75) 
1

>  <s_lp_Variant>  (75) 
20:0-4

>  <s_i_glide_gridfile>  (75) 
pfpi4k_grid

>  <i_i_glide_lignum>  (75) 
32

>  <i_i_glide_rotatable_bonds>  (75) 
0

>  <r_i_docking_score>  (75) 
-3.3879

>  <r_i_glide_ligand_efficiency>  (75) 
-0.241993

>  <r_i_glide_ligand_efficiency_sa>  (75) 
-0.583237

>  <r_i_glide_ligand_efficiency_ln>  (75) 
-0.930983

>  <r_i_glide_gscore>  (75) 
-3.3879

>  <r_i_glide_lipo>  (75) 
-0.430777

>  <r_i_glide_hbond>  (75) 
0

>  <r_i_glide_metal>  (75) 
-0

>  <r_i_glide_rewards>  (75) 
-2.11142

>  <r_i_glide_evdw>  (75) 
-17.4537

>  <r_i_glide_ecoul>  (75) 
0.179908

>  <r_i_glide_erotb>  (75) 
0

>  <r_i_glide_esite>  (75) 
0

>  <r_i_glide_emodel>  (75) 
-21.0697

>  <r_i_glide_energy>  (75) 
-17.2738

>  <r_i_glide_einternal>  (75) 
0

>  <r_i_glide_intrahb_reward>  (75) 
-0

>  <i_i_glide_confnum>  (75) 
1

>  <i_i_glide_posenum>  (75) 
2

>  <r_i_glide_eff_state_penalty>  (75) 
0

>  <ligand_id>  (75) 
20

>  <original_smiles>  (75) 
C1C2CC3CC1CC1CC(C2)CC1C3

>  <smiles>  (75) 
[H]C1([H])C2([H])C([H])([H])C3([H])C([H])([H])C1([H])C([H])([H])C1([H])C([H])([H])C([H])(C2([H])[H])C([H])([H])C1([H])C3([H])[H]

$$$$
20:3:2
     RDKit          3D

 36 39  0  0  1  0  0  0  0  0999 V2000
    4.2255   -1.8726   -2.0193 C   0  0  0  0  0  0  0  0  0  0  0  0
    3.7356   -3.3004   -1.5955 C   0  0  2  0  0  0  0  0  0  0  0  0
    5.2424   -3.9734   -1.5133 C   0  0  0  0  0  0  0  0  0  0  0  0
    6.3111   -3.4770   -0.3772 C   0  0  1  0  0  0  0  0  0  0  0  0
    6.6008   -2.0710   -0.8830 C   0  0  0  0  0  0  0  0  0  0  0  0
    5.2704   -1.3167   -0.9666 C   0  0  2  0  0  0  0  0  0  0  0  0
    4.7548   -1.3660    0.4700 C   0  0  0  0  0  0  0  0  0  0  0  0
    4.1446   -2.7189    1.0803 C   0  0  1  0  0  0  0  0  0  0  0  0
    3.9710   -4.4248    0.7602 C   0  0  0  0  0  0  0  0  0  0  0  0
    2.6418   -4.4021    0.9947 C   0  0  2  0  0  0  0  0  0  0  0  0
    2.4574   -3.8022   -0.5820 C   0  0  0  0  0  0  0  0  0  0  0  0
    3.3556   -3.9256    2.4235 C   0  0  0  0  0  0  0  0  0  0  0  0
    4.8241   -3.1677    2.1908 C   0  0  1  0  0  0  0  0  0  0  0  0
    6.1994   -3.5715    1.3050 C   0  0  0  0  0  0  0  0  0  0  0  0
    3.4274   -1.1396   -2.2186 H   0  0  0  0  0  0  0  0  0  0  0  0
    4.7255   -1.9340   -2.9873 H   0  0  0  0  0  0  0  0  0  0  0  0
    3.3645   -2.5247   -0.9837 H   0  0  0  0  0  0  0  0  0  0  0  0
    5.2212   -5.0594   -1.5929 H   0  0  0  0  0  0  0  0  0  0  0  0
    5.7178   -3.7936   -2.4806 H   0  0  0  0  0  0  0  0  0  0  0  0
    7.2205   -4.0387   -0.5907 H   0  0  0  0  0  0  0  0  0  0  0  0
    7.3057   -1.5676   -0.2221 H   0  0  0  0  0  0  0  0  0  0  0  0
    7.0700   -2.1111   -1.8672 H   0  0  0  0  0  0  0  0  0  0  0  0
    5.4812   -0.2810   -1.2319 H   0  0  0  0  0  0  0  0  0  0  0  0
    5.5128   -0.9576    1.1411 H   0  0  0  0  0  0  0  0  0  0  0  0
    3.9823   -0.5941    0.5058 H   0  0  0  0  0  0  0  0  0  0  0  0
    3.1855   -2.1886    1.2750 H   0  0  0  0  0  0  0  0  0  0  0  0
    4.0424   -5.1143   -0.0656 H   0  0  0  0  0  0  0  0  0  0  0  0
    4.5341   -5.2333    1.2895 H   0  0  0  0  0  0  0  0  0  0  0  0
    2.2145   -5.4011    1.0909 H   0  0  0  0  0  0  0  0  0  0  0  0
    1.6183   -3.0966   -0.5992 H   0  0  0  0  0  0  0  0  0  0  0  0
    2.0329   -4.6494   -1.1199 H   0  0  0  0  0  0  0  0  0  0  0  0
    2.6669   -3.2914    2.9933 H   0  0  0  0  0  0  0  0  0  0  0  0
    3.4843   -4.7768    3.1024 H   0  0  0  0  0  0  0  0  0  0  0  0
    5.0167   -2.4028    2.9450 H   0  0  0  0  0  0  0  0  0  0  0  0
    6.5377   -4.5623    1.6105 H   0  0  0  0  0  0  0  0  0  0  0  0
    6.9935   -2.9299    1.6798 H   0  0  0  0  0  0  0  0  0  0  0  0
  1  6  1  0
  1  2  1  0
  1 15  1  0
  1 16  1  0
  2 11  1  0
  2  3  1  0
  2 17  1  6
  3  4  1  0
  3 18  1  0
  3 19  1  0
  4 14  1  0
  4  5  1  0
  4 20  1  6
  5  6  1  0
  5 21  1  0
  5 22  1  0
  6  7  1  0
  6 23  1  6
  7  8  1  0
  7 24  1  0
  7 25  1  0
  8 13  1  0
  8  9  1  0
  8 26  1  1
  9 10  1  0
  9 27  1  0
  9 28  1  0
 10 11  1  0
 10 12  1  0
 10 29  1  1
 11 30  1  0
 11 31  1  0
 12 13  1  0
 12 32  1  0
 12 33  1  0
 13 14  1  0
 13 34  1  1
 14 35  1  0
 14 36  1  0
M  END
>  <i_m_ct_stereo_status>  (76) 
1

>  <s_m_source_file>  (76) 
/var/tmp/pbs.5076255.sched01/tmpgr0kyu9k/0plolsrat.sdf

>  <i_m_source_file_index>  (76) 
32

>  <i_lp_mmshare_version>  (76) 
48012

>  <i_f3d_flags>  (76) 
0

>  <s_epik_input>  (76) 
W0NASF0xMltDSDJdW0NAQEhdM1tDSDJdW0NASF0oW0NIMl0xKVtDSDJdW0NASF00W0NAQEhdKFtDSDJdMylbQ0gyXVtDQEBIXShbQ0gyXTIpW0NIMl00

>  <s_epik_cmdline>  (76) 
J2VwaWtfcHl0aG9uJywgJy1waHQnLCAnMi4wJywgJy1waCcsICc3LjAnLCAnLXRuJywgJzgnLCAnLW1hJywgJzIwMCcsICctaW1hZScsICc8aW5maWxlLm1hZT4nLCAnLW9tYWUnLCAnPG91dGZpbGUubWFlPic=

>  <r_lp_tautomer_probability>  (76) 
1

>  <r_epik_Ionization_Penalty>  (76) 
0

>  <r_epik_Ionization_Penalty_Charging>  (76) 
0

>  <r_epik_Ionization_Penalty_Neutral>  (76) 
0

>  <r_epik_State_Penalty>  (76) 
-0

>  <r_epik_Charging_Adjusted_Penalty>  (76) 
0

>  <i_epik_Tot_Q>  (76) 
0

>  <i_epik_Tot_abs_Q>  (76) 
0

>  <s_lp_Force_Field>  (76) 
OPLS3e

>  <r_lp_Energy>  (76) 
428.471

>  <b_lp_Chiralities_Consistent>  (76) 
1

>  <s_lp_Variant>  (76) 
20:0-4

>  <s_i_glide_gridfile>  (76) 
pfpi4k_grid

>  <i_i_glide_lignum>  (76) 
32

>  <i_i_glide_rotatable_bonds>  (76) 
0

>  <r_i_docking_score>  (76) 
-3.10013

>  <r_i_glide_ligand_efficiency>  (76) 
-0.221438

>  <r_i_glide_ligand_efficiency_sa>  (76) 
-0.533697

>  <r_i_glide_ligand_efficiency_ln>  (76) 
-0.851905

>  <r_i_glide_gscore>  (76) 
-3.10013

>  <r_i_glide_lipo>  (76) 
-0.248663

>  <r_i_glide_hbond>  (76) 
0

>  <r_i_glide_metal>  (76) 
-0

>  <r_i_glide_rewards>  (76) 
-2.11142

>  <r_i_glide_evdw>  (76) 
-15.7922

>  <r_i_glide_ecoul>  (76) 
0.330435

>  <r_i_glide_erotb>  (76) 
0

>  <r_i_glide_esite>  (76) 
0

>  <r_i_glide_emodel>  (76) 
-18.9281

>  <r_i_glide_energy>  (76) 
-15.4618

>  <r_i_glide_einternal>  (76) 
0

>  <r_i_glide_intrahb_reward>  (76) 
-0

>  <i_i_glide_confnum>  (76) 
2

>  <i_i_glide_posenum>  (76) 
20

>  <r_i_glide_eff_state_penalty>  (76) 
0

>  <ligand_id>  (76) 
20

>  <original_smiles>  (76) 
C1C2CC3CC1CC1CC(C2)CC1C3

>  <smiles>  (76) 
[H]C1([H])C2([H])C([H])([H])C3([H])C([H])([H])C1([H])C([H])([H])C1([H])C([H])([H])C([H])(C2([H])[H])C([H])([H])C1([H])C3([H])[H]

$$$$
22:0:0
     RDKit          3D

 32 34  0  0  1  0  0  0  0  0999 V2000
    3.2497   -3.0460   -3.5705 C   0  0  0  0  0  0  0  0  0  0  0  0
    4.1395   -2.4363   -2.4784 C   0  0  2  0  0  0  0  0  0  0  0  0
    5.5833   -3.0963   -2.4875 C   0  0  0  0  0  0  0  0  0  0  0  0
    6.4057   -3.1033   -1.1592 C   0  0  1  0  0  0  0  0  0  0  0  0
    7.0260   -1.8642   -0.7708 O   0  0  0  0  0  0  0  0  0  0  0  0
    7.0989   -1.5961    0.8053 O   0  0  0  0  0  0  0  0  0  0  0  0
    6.0186   -2.2068    1.6071 C   0  0  2  0  0  0  0  0  0  0  0  0
    5.9999   -3.5782    1.0877 C   0  0  0  0  0  0  0  0  0  0  0  0
    5.4606   -3.3658   -0.0884 C   0  0  0  0  0  0  0  0  0  0  0  0
    4.5453   -2.1591   -0.1112 C   0  0  1  0  0  0  0  0  0  0  0  0
    3.4286   -2.4427   -1.0812 C   0  0  0  0  0  0  0  0  0  0  0  0
    4.5716   -1.7057    1.3387 C   0  0  0  0  0  0  0  0  0  0  0  0
    3.5415   -2.4360    2.2204 C   0  0  0  0  0  0  0  0  0  0  0  0
    4.4268   -0.1895    1.5662 C   0  0  0  0  0  0  0  0  0  0  0  0
    3.1138   -4.1146   -3.4168 H   0  0  0  0  0  0  0  0  0  0  0  0
    3.7005   -2.9431   -4.5567 H   0  0  0  0  0  0  0  0  0  0  0  0
    2.2548   -2.5950   -3.6028 H   0  0  0  0  0  0  0  0  0  0  0  0
    4.2453   -1.3753   -2.7502 H   0  0  0  0  0  0  0  0  0  0  0  0
    5.4943   -4.1175   -2.8708 H   0  0  0  0  0  0  0  0  0  0  0  0
    6.1915   -2.6019   -3.2257 H   0  0  0  0  0  0  0  0  0  0  0  0
    7.1754   -3.8646   -1.1799 H   0  0  0  0  0  0  0  0  0  0  0  0
    6.2268   -2.1895    2.6782 H   0  0  0  0  0  0  0  0  0  0  0  0
    6.9461   -4.1110    1.1633 H   0  0  0  0  0  0  0  0  0  0  0  0
    4.9634   -1.2625   -0.5692 H   0  0  0  0  0  0  0  0  0  0  0  0
    2.6826   -1.6603   -1.0273 H   0  0  0  0  0  0  0  0  0  0  0  0
    2.9481   -3.4016   -0.8584 H   0  0  0  0  0  0  0  0  0  0  0  0
    2.5297   -2.0971    2.0038 H   0  0  0  0  0  0  0  0  0  0  0  0
    3.7371   -2.2486    3.2756 H   0  0  0  0  0  0  0  0  0  0  0  0
    3.5634   -3.5139    2.0757 H   0  0  0  0  0  0  0  0  0  0  0  0
    3.4361    0.1631    1.2786 H   0  0  0  0  0  0  0  0  0  0  0  0
    5.1629    0.3831    1.0045 H   0  0  0  0  0  0  0  0  0  0  0  0
    4.5626    0.0562    2.6241 H   0  0  0  0  0  0  0  0  0  0  0  0
  1  2  1  0
  1 15  1  0
  1 16  1  0
  1 17  1  0
  2 11  1  0
  2  3  1  0
  2 18  1  6
  3  4  1  0
  3 19  1  0
  3 20  1  0
  4  9  1  0
  4  5  1  0
  4 21  1  6
  5  6  1  0
  6  7  1  0
  7 12  1  0
  7  8  1  0
  7 22  1  1
  8  9  2  0
  8 23  1  0
  9 10  1  0
 10 11  1  0
 10 12  1  0
 10 24  1  6
 11 25  1  0
 11 26  1  0
 12 13  1  0
 12 14  1  0
 13 27  1  0
 13 28  1  0
 13 29  1  0
 14 30  1  0
 14 31  1  0
 14 32  1  0
M  END
>  <i_m_ct_stereo_status>  (77) 
1

>  <s_m_source_file>  (77) 
/var/tmp/pbs.5076255.sched01/tmpgr0kyu9k/0plolsrat.sdf

>  <i_m_source_file_index>  (77) 
34

>  <i_lp_mmshare_version>  (77) 
48012

>  <i_f3d_flags>  (77) 
1

>  <s_epik_input>  (77) 
W0NIM11bQ0BIXShbQ0gyXTEpW0NIMl1bQ0BIXShDMltDQEBIXTEzKUMoW0NIM10pKFtDSDNdKVtDQEhdKE9PMylbQ0hdPTI=

>  <s_epik_cmdline>  (77) 
J2VwaWtfcHl0aG9uJywgJy1waHQnLCAnMi4wJywgJy1waCcsICc3LjAnLCAnLXRuJywgJzgnLCAnLW1hJywgJzIwMCcsICctaW1hZScsICc8aW5maWxlLm1hZT4nLCAnLW9tYWUnLCAnPG91dGZpbGUubWFlPic=

>  <r_lp_tautomer_probability>  (77) 
1

>  <r_epik_Ionization_Penalty>  (77) 
0

>  <r_epik_Ionization_Penalty_Charging>  (77) 
0

>  <r_epik_Ionization_Penalty_Neutral>  (77) 
0

>  <r_epik_State_Penalty>  (77) 
-0

>  <r_epik_Charging_Adjusted_Penalty>  (77) 
0

>  <i_epik_Tot_Q>  (77) 
0

>  <i_epik_Tot_abs_Q>  (77) 
0

>  <s_lp_Force_Field>  (77) 
OPLS3e

>  <r_lp_Energy>  (77) 
97.1965

>  <b_lp_Chiralities_Consistent>  (77) 
1

>  <s_lp_Variant>  (77) 
22:0-1

>  <s_i_glide_gridfile>  (77) 
pfpi4k_grid

>  <i_i_glide_lignum>  (77) 
34

>  <i_i_glide_rotatable_bonds>  (77) 
0

>  <r_i_docking_score>  (77) 
-4.26032

>  <r_i_glide_ligand_efficiency>  (77) 
-0.304309

>  <r_i_glide_ligand_efficiency_sa>  (77) 
-0.733427

>  <r_i_glide_ligand_efficiency_ln>  (77) 
-1.17072

>  <r_i_glide_gscore>  (77) 
-4.26032

>  <r_i_glide_lipo>  (77) 
-0.921472

>  <r_i_glide_hbond>  (77) 
-0.16

>  <r_i_glide_metal>  (77) 
-0

>  <r_i_glide_rewards>  (77) 
-2.08452

>  <r_i_glide_evdw>  (77) 
-17.2258

>  <r_i_glide_ecoul>  (77) 
-1.55359

>  <r_i_glide_erotb>  (77) 
0

>  <r_i_glide_esite>  (77) 
0

>  <r_i_glide_emodel>  (77) 
-23.9786

>  <r_i_glide_energy>  (77) 
-18.7794

>  <r_i_glide_einternal>  (77) 
0

>  <r_i_glide_intrahb_reward>  (77) 
-0

>  <i_i_glide_confnum>  (77) 
1

>  <i_i_glide_posenum>  (77) 
14

>  <r_i_glide_eff_state_penalty>  (77) 
0

>  <ligand_id>  (77) 
22

>  <original_smiles>  (77) 
CC1CC2OOC3C=C2C(C1)C3(C)C

>  <smiles>  (77) 
[H]C1=C2C3([H])OOC1([H])C(C([H])([H])[H])(C([H])([H])[H])C2([H])C([H])([H])C([H])(C([H])([H])[H])C3([H])[H]

$$$$
22:0:1
     RDKit          3D

 32 34  0  0  1  0  0  0  0  0999 V2000
    2.4926   -3.0454   -3.5198 C   0  0  0  0  0  0  0  0  0  0  0  0
    3.2834   -2.5477   -2.3011 C   0  0  2  0  0  0  0  0  0  0  0  0
    4.8284   -2.4265   -2.6394 C   0  0  0  0  0  0  0  0  0  0  0  0
    5.8541   -2.6169   -1.4761 C   0  0  1  0  0  0  0  0  0  0  0  0
    6.0415   -1.4664   -0.6059 O   0  0  0  0  0  0  0  0  0  0  0  0
    6.3725   -1.8418    0.9210 O   0  0  0  0  0  0  0  0  0  0  0  0
    5.7684   -3.0850    1.4251 C   0  0  2  0  0  0  0  0  0  0  0  0
    6.1124   -4.0379    0.3585 C   0  0  0  0  0  0  0  0  0  0  0  0
    5.3014   -3.6332   -0.5833 C   0  0  0  0  0  0  0  0  0  0  0  0
    4.0295   -3.0079   -0.0499 C   0  0  1  0  0  0  0  0  0  0  0  0
    2.9144   -3.3559   -0.9961 C   0  0  0  0  0  0  0  0  0  0  0  0
    4.1992   -3.1638    1.4548 C   0  0  0  0  0  0  0  0  0  0  0  0
    3.6954   -4.5280    1.9667 C   0  0  0  0  0  0  0  0  0  0  0  0
    3.5658   -2.0451    2.3075 C   0  0  0  0  0  0  0  0  0  0  0  0
    2.7797   -4.0526   -3.8114 H   0  0  0  0  0  0  0  0  0  0  0  0
    2.6691   -2.3926   -4.3788 H   0  0  0  0  0  0  0  0  0  0  0  0
    1.4153   -3.0426   -3.3260 H   0  0  0  0  0  0  0  0  0  0  0  0
    2.9243   -1.5276   -2.1166 H   0  0  0  0  0  0  0  0  0  0  0  0
    5.0590   -3.1571   -3.4238 H   0  0  0  0  0  0  0  0  0  0  0  0
    5.0110   -1.4552   -3.0897 H   0  0  0  0  0  0  0  0  0  0  0  0
    6.8124   -2.9489   -1.8493 H   0  0  0  0  0  0  0  0  0  0  0  0
    6.1854   -3.3866    2.3805 H   0  0  0  0  0  0  0  0  0  0  0  0
    7.1707   -4.1468    0.1764 H   0  0  0  0  0  0  0  0  0  0  0  0
    3.9763   -1.9234   -0.1046 H   0  0  0  0  0  0  0  0  0  0  0  0
    1.9503   -3.0464   -0.5979 H   0  0  0  0  0  0  0  0  0  0  0  0
    2.8786   -4.4345   -1.1320 H   0  0  0  0  0  0  0  0  0  0  0  0
    2.6036   -4.5833    1.9503 H   0  0  0  0  0  0  0  0  0  0  0  0
    4.0133   -4.6989    3.0005 H   0  0  0  0  0  0  0  0  0  0  0  0
    4.0655   -5.3658    1.3768 H   0  0  0  0  0  0  0  0  0  0  0  0
    2.4750   -2.0530    2.2215 H   0  0  0  0  0  0  0  0  0  0  0  0
    3.9172   -1.0540    2.0260 H   0  0  0  0  0  0  0  0  0  0  0  0
    3.8066   -2.1897    3.3661 H   0  0  0  0  0  0  0  0  0  0  0  0
  1  2  1  0
  1 15  1  0
  1 16  1  0
  1 17  1  0
  2 11  1  0
  2  3  1  0
  2 18  1  1
  3  4  1  0
  3 19  1  0
  3 20  1  0
  4  9  1  0
  4  5  1  0
  4 21  1  6
  5  6  1  0
  6  7  1  0
  7 12  1  0
  7  8  1  0
  7 22  1  1
  8  9  2  0
  8 23  1  0
  9 10  1  0
 10 11  1  0
 10 12  1  0
 10 24  1  1
 11 25  1  0
 11 26  1  0
 12 13  1  0
 12 14  1  0
 13 27  1  0
 13 28  1  0
 13 29  1  0
 14 30  1  0
 14 31  1  0
 14 32  1  0
M  END
>  <i_m_ct_stereo_status>  (78) 
1

>  <s_m_source_file>  (78) 
/var/tmp/pbs.5076255.sched01/tmpgr0kyu9k/0plolsrat.sdf

>  <i_m_source_file_index>  (78) 
34

>  <i_lp_mmshare_version>  (78) 
48012

>  <i_f3d_flags>  (78) 
1

>  <s_epik_input>  (78) 
W0NIM11bQ0BIXShbQ0gyXTEpW0NIMl1bQ0BIXShDMltDQEBIXTEzKUMoW0NIM10pKFtDSDNdKVtDQEhdKE9PMylbQ0hdPTI=

>  <s_epik_cmdline>  (78) 
J2VwaWtfcHl0aG9uJywgJy1waHQnLCAnMi4wJywgJy1waCcsICc3LjAnLCAnLXRuJywgJzgnLCAnLW1hJywgJzIwMCcsICctaW1hZScsICc8aW5maWxlLm1hZT4nLCAnLW9tYWUnLCAnPG91dGZpbGUubWFlPic=

>  <r_lp_tautomer_probability>  (78) 
1

>  <r_epik_Ionization_Penalty>  (78) 
0

>  <r_epik_Ionization_Penalty_Charging>  (78) 
0

>  <r_epik_Ionization_Penalty_Neutral>  (78) 
0

>  <r_epik_State_Penalty>  (78) 
-0

>  <r_epik_Charging_Adjusted_Penalty>  (78) 
0

>  <i_epik_Tot_Q>  (78) 
0

>  <i_epik_Tot_abs_Q>  (78) 
0

>  <s_lp_Force_Field>  (78) 
OPLS3e

>  <r_lp_Energy>  (78) 
97.1965

>  <b_lp_Chiralities_Consistent>  (78) 
1

>  <s_lp_Variant>  (78) 
22:0-1

>  <s_i_glide_gridfile>  (78) 
pfpi4k_grid

>  <i_i_glide_lignum>  (78) 
34

>  <i_i_glide_rotatable_bonds>  (78) 
0

>  <r_i_docking_score>  (78) 
-3.86486

>  <r_i_glide_ligand_efficiency>  (78) 
-0.276061

>  <r_i_glide_ligand_efficiency_sa>  (78) 
-0.665347

>  <r_i_glide_ligand_efficiency_ln>  (78) 
-1.06205

>  <r_i_glide_gscore>  (78) 
-3.86486

>  <r_i_glide_lipo>  (78) 
-0.687625

>  <r_i_glide_hbond>  (78) 
-0.0635635

>  <r_i_glide_metal>  (78) 
-0

>  <r_i_glide_rewards>  (78) 
-2.08452

>  <r_i_glide_evdw>  (78) 
-19.2259

>  <r_i_glide_ecoul>  (78) 
-0.452335

>  <r_i_glide_erotb>  (78) 
0

>  <r_i_glide_esite>  (78) 
0

>  <r_i_glide_emodel>  (78) 
-24.3995

>  <r_i_glide_energy>  (78) 
-19.6783

>  <r_i_glide_einternal>  (78) 
0

>  <r_i_glide_intrahb_reward>  (78) 
-0

>  <i_i_glide_confnum>  (78) 
2

>  <i_i_glide_posenum>  (78) 
9

>  <r_i_glide_eff_state_penalty>  (78) 
0

>  <ligand_id>  (78) 
22

>  <original_smiles>  (78) 
CC1CC2OOC3C=C2C(C1)C3(C)C

>  <smiles>  (78) 
[H]C1=C2C3([H])OOC1([H])C(C([H])([H])[H])(C([H])([H])[H])C2([H])C([H])([H])C([H])(C([H])([H])[H])C3([H])[H]

$$$$
22:0:2
     RDKit          3D

 32 34  0  0  1  0  0  0  0  0999 V2000
    3.5259   -1.3676   -3.5869 C   0  0  0  0  0  0  0  0  0  0  0  0
    4.4566   -1.8335   -2.4469 C   0  0  2  0  0  0  0  0  0  0  0  0
    4.6465   -3.4067   -2.4843 C   0  0  0  0  0  0  0  0  0  0  0  0
    4.9186   -4.1458   -1.1224 C   0  0  1  0  0  0  0  0  0  0  0  0
    6.2748   -4.0478   -0.6114 O   0  0  0  0  0  0  0  0  0  0  0  0
    6.3699   -4.0657    0.9943 O   0  0  0  0  0  0  0  0  0  0  0  0
    5.2410   -3.4556    1.7021 C   0  0  2  0  0  0  0  0  0  0  0  0
    4.0853   -4.0950    1.0625 C   0  0  0  0  0  0  0  0  0  0  0  0
    4.1206   -3.4784   -0.1221 C   0  0  0  0  0  0  0  0  0  0  0  0
    4.7078   -2.1003   -0.0459 C   0  0  1  0  0  0  0  0  0  0  0  0
    4.0029   -1.2494   -1.0641 C   0  0  0  0  0  0  0  0  0  0  0  0
    4.9920   -1.9304    1.4366 C   0  0  0  0  0  0  0  0  0  0  0  0
    3.7743   -1.4050    2.2263 C   0  0  0  0  0  0  0  0  0  0  0  0
    6.2101   -1.0608    1.7725 C   0  0  0  0  0  0  0  0  0  0  0  0
    2.5147   -1.7706   -3.4862 H   0  0  0  0  0  0  0  0  0  0  0  0
    3.9032   -1.6898   -4.5573 H   0  0  0  0  0  0  0  0  0  0  0  0
    3.4405   -0.2801   -3.6184 H   0  0  0  0  0  0  0  0  0  0  0  0
    5.4250   -1.3790   -2.6593 H   0  0  0  0  0  0  0  0  0  0  0  0
    3.7617   -3.8441   -2.9547 H   0  0  0  0  0  0  0  0  0  0  0  0
    5.4671   -3.6374   -3.1572 H   0  0  0  0  0  0  0  0  0  0  0  0
    4.6250   -5.1882   -1.1904 H   0  0  0  0  0  0  0  0  0  0  0  0
    5.2773   -3.6835    2.7660 H   0  0  0  0  0  0  0  0  0  0  0  0
    4.0651   -5.1668    1.1136 H   0  0  0  0  0  0  0  0  0  0  0  0
    5.7272   -1.9960   -0.4218 H   0  0  0  0  0  0  0  0  0  0  0  0
    4.3184   -0.2159   -0.9661 H   0  0  0  0  0  0  0  0  0  0  0  0
    2.9301   -1.2991   -0.9196 H   0  0  0  0  0  0  0  0  0  0  0  0
    3.5882   -0.3526    2.0108 H   0  0  0  0  0  0  0  0  0  0  0  0
    3.9382   -1.4939    3.3005 H   0  0  0  0  0  0  0  0  0  0  0  0
    2.8573   -1.9431    1.9958 H   0  0  0  0  0  0  0  0  0  0  0  0
    6.0296   -0.0319    1.4701 H   0  0  0  0  0  0  0  0  0  0  0  0
    7.1191   -1.4066    1.2804 H   0  0  0  0  0  0  0  0  0  0  0  0
    6.3948   -1.0531    2.8478 H   0  0  0  0  0  0  0  0  0  0  0  0
  1  2  1  0
  1 15  1  0
  1 16  1  0
  1 17  1  0
  2 11  1  0
  2  3  1  0
  2 18  1  6
  3  4  1  0
  3 19  1  0
  3 20  1  0
  4  9  1  0
  4  5  1  0
  4 21  1  6
  5  6  1  0
  6  7  1  0
  7 12  1  0
  7  8  1  0
  7 22  1  1
  8  9  2  0
  8 23  1  0
  9 10  1  0
 10 11  1  0
 10 12  1  0
 10 24  1  6
 11 25  1  0
 11 26  1  0
 12 13  1  0
 12 14  1  0
 13 27  1  0
 13 28  1  0
 13 29  1  0
 14 30  1  0
 14 31  1  0
 14 32  1  0
M  END
>  <i_m_ct_stereo_status>  (79) 
1

>  <s_m_source_file>  (79) 
/var/tmp/pbs.5076255.sched01/tmpgr0kyu9k/0plolsrat.sdf

>  <i_m_source_file_index>  (79) 
34

>  <i_lp_mmshare_version>  (79) 
48012

>  <i_f3d_flags>  (79) 
1

>  <s_epik_input>  (79) 
W0NIM11bQ0BIXShbQ0gyXTEpW0NIMl1bQ0BIXShDMltDQEBIXTEzKUMoW0NIM10pKFtDSDNdKVtDQEhdKE9PMylbQ0hdPTI=

>  <s_epik_cmdline>  (79) 
J2VwaWtfcHl0aG9uJywgJy1waHQnLCAnMi4wJywgJy1waCcsICc3LjAnLCAnLXRuJywgJzgnLCAnLW1hJywgJzIwMCcsICctaW1hZScsICc8aW5maWxlLm1hZT4nLCAnLW9tYWUnLCAnPG91dGZpbGUubWFlPic=

>  <r_lp_tautomer_probability>  (79) 
1

>  <r_epik_Ionization_Penalty>  (79) 
0

>  <r_epik_Ionization_Penalty_Charging>  (79) 
0

>  <r_epik_Ionization_Penalty_Neutral>  (79) 
0

>  <r_epik_State_Penalty>  (79) 
-0

>  <r_epik_Charging_Adjusted_Penalty>  (79) 
0

>  <i_epik_Tot_Q>  (79) 
0

>  <i_epik_Tot_abs_Q>  (79) 
0

>  <s_lp_Force_Field>  (79) 
OPLS3e

>  <r_lp_Energy>  (79) 
97.1965

>  <b_lp_Chiralities_Consistent>  (79) 
1

>  <s_lp_Variant>  (79) 
22:0-1

>  <s_i_glide_gridfile>  (79) 
pfpi4k_grid

>  <i_i_glide_lignum>  (79) 
34

>  <i_i_glide_rotatable_bonds>  (79) 
0

>  <r_i_docking_score>  (79) 
-3.6213

>  <r_i_glide_ligand_efficiency>  (79) 
-0.258664

>  <r_i_glide_ligand_efficiency_sa>  (79) 
-0.623418

>  <r_i_glide_ligand_efficiency_ln>  (79) 
-0.99512

>  <r_i_glide_gscore>  (79) 
-3.6213

>  <r_i_glide_lipo>  (79) 
-0.509208

>  <r_i_glide_hbond>  (79) 
0

>  <r_i_glide_metal>  (79) 
-0

>  <r_i_glide_rewards>  (79) 
-2.08452

>  <r_i_glide_evdw>  (79) 
-17.7894

>  <r_i_glide_ecoul>  (79) 
-0.920664

>  <r_i_glide_erotb>  (79) 
0

>  <r_i_glide_esite>  (79) 
0

>  <r_i_glide_emodel>  (79) 
-23.0964

>  <r_i_glide_energy>  (79) 
-18.71

>  <r_i_glide_einternal>  (79) 
0

>  <r_i_glide_intrahb_reward>  (79) 
-0

>  <i_i_glide_confnum>  (79) 
1

>  <i_i_glide_posenum>  (79) 
34

>  <r_i_glide_eff_state_penalty>  (79) 
0

>  <ligand_id>  (79) 
22

>  <original_smiles>  (79) 
CC1CC2OOC3C=C2C(C1)C3(C)C

>  <smiles>  (79) 
[H]C1=C2C3([H])OOC1([H])C(C([H])([H])[H])(C([H])([H])[H])C2([H])C([H])([H])C([H])(C([H])([H])[H])C3([H])[H]

$$$$
23:0:0
     RDKit          3D

 73 78  0  0  1  0  0  0  0  0999 V2000
   -1.9857    3.7393    8.6130 C   0  0  0  0  0  0  0  0  0  0  0  0
   -1.1007    3.5212    7.6241 C   0  0  0  0  0  0  0  0  0  0  0  0
    0.4197    3.5591    7.9257 C   0  0  1  0  0  0  0  0  0  0  0  0
    1.2659    2.6782    8.8713 C   0  0  0  0  0  0  0  0  0  0  0  0
    2.6726    2.6250    8.1432 C   0  0  1  0  0  0  0  0  0  0  0  0
    3.6060    1.6973    8.6494 O   0  0  0  0  0  0  0  0  0  0  0  0
    2.4660    2.8433    6.5874 C   0  0  1  0  0  0  0  0  0  0  0  0
    2.8853    2.0880    5.1834 C   0  0  2  0  0  0  0  0  0  0  0  0
    1.8822    2.3766    4.0356 C   0  0  1  0  0  0  0  0  0  0  0  0
    2.4278    3.5035    3.0569 C   0  0  0  0  0  0  0  0  0  0  0  0
    0.4805    1.5551    3.8799 C   0  0  2  0  0  0  0  0  0  0  0  0
    0.1609   -0.0553    3.9068 C   0  0  0  0  0  0  0  0  0  0  0  0
    0.9949   -1.1243    4.3304 O   0  0  0  0  0  0  0  0  0  0  0  0
    2.1740   -1.4364    3.6926 C   0  0  1  0  0  0  0  0  0  0  0  0
    1.9638   -2.0811    2.4482 O   0  0  0  0  0  0  0  0  0  0  0  0
    3.0758   -0.1819    3.6017 C   0  0  1  0  0  0  0  0  0  0  0  0
    2.7986    0.5028    2.2139 C   0  0  0  0  0  0  0  0  0  0  0  0
    1.4216    0.6154    1.7556 O   0  0  0  0  0  0  0  0  0  0  0  0
    0.4621    1.5527    2.2517 C   0  0  1  0  0  0  0  0  0  0  0  0
   -0.8228    1.3099    1.6930 O   0  0  0  0  0  0  0  0  0  0  0  0
    3.2829    0.5948    5.0323 C   0  0  1  0  0  0  0  0  0  0  0  0
    4.8082    0.4977    5.3280 C   0  0  0  0  0  0  0  0  0  0  0  0
    2.5540   -0.0248    6.2026 C   0  0  0  0  0  0  0  0  0  0  0  0
    1.0924    0.4178    6.5256 C   0  0  0  0  0  0  0  0  0  0  0  0
    0.1598    1.7687    6.1768 C   0  0  1  0  0  0  0  0  0  0  0  0
   -0.9560    0.9172    7.0909 C   0  0  0  0  0  0  0  0  0  0  0  0
    0.9808    3.1851    6.6074 C   0  0  1  0  0  0  0  0  0  0  0  0
    0.9422    4.7074    6.0086 C   0  0  0  0  0  0  0  0  0  0  0  0
   -0.7868    2.1745    4.8819 C   0  0  2  0  0  0  0  0  0  0  0  0
   -1.0378    3.4157    3.8725 C   0  0  0  0  0  0  0  0  0  0  0  0
   -2.3489    3.3411    3.3380 O   0  0  0  0  0  0  0  0  0  0  0  0
   -1.5473    3.2301    6.0754 C   0  0  1  0  0  0  0  0  0  0  0  0
   -2.9370    2.9368    6.0305 O   0  0  0  0  0  0  0  0  0  0  0  0
   -3.0517    3.7326    8.4384 H   0  0  0  0  0  0  0  0  0  0  0  0
   -1.6504    3.9300    9.6241 H   0  0  0  0  0  0  0  0  0  0  0  0
    0.6324    4.5745    8.2651 H   0  0  0  0  0  0  0  0  0  0  0  0
    1.3630    3.1527    9.8469 H   0  0  0  0  0  0  0  0  0  0  0  0
    0.8319    1.7132    9.0868 H   0  0  0  0  0  0  0  0  0  0  0  0
    3.1411    3.5545    8.4741 H   0  0  0  0  0  0  0  0  0  0  0  0
    3.3071    0.8235    8.4459 H   0  0  0  0  0  0  0  0  0  0  0  0
    3.0392    3.7599    6.4563 H   0  0  0  0  0  0  0  0  0  0  0  0
    3.7992    2.6090    4.9064 H   0  0  0  0  0  0  0  0  0  0  0  0
    1.3191    3.1625    4.3654 H   0  0  0  0  0  0  0  0  0  0  0  0
    3.2207    4.0965    3.5124 H   0  0  0  0  0  0  0  0  0  0  0  0
    1.6690    4.2372    2.7765 H   0  0  0  0  0  0  0  0  0  0  0  0
    2.8199    3.1899    2.1000 H   0  0  0  0  0  0  0  0  0  0  0  0
   -0.7230   -0.1833    4.5222 H   0  0  0  0  0  0  0  0  0  0  0  0
   -0.2401   -0.4964    3.0011 H   0  0  0  0  0  0  0  0  0  0  0  0
    2.6518   -2.1927    4.3126 H   0  0  0  0  0  0  0  0  0  0  0  0
    1.6476   -1.4265    1.8405 H   0  0  0  0  0  0  0  0  0  0  0  0
    4.0495   -0.6323    3.4012 H   0  0  0  0  0  0  0  0  0  0  0  0
    3.4477    1.3474    2.0626 H   0  0  0  0  0  0  0  0  0  0  0  0
    3.2215   -0.1582    1.4595 H   0  0  0  0  0  0  0  0  0  0  0  0
    0.7489    2.4734    1.7605 H   0  0  0  0  0  0  0  0  0  0  0  0
   -0.7178    1.1700    0.7474 H   0  0  0  0  0  0  0  0  0  0  0  0
    5.1250   -0.5403    5.4458 H   0  0  0  0  0  0  0  0  0  0  0  0
    5.0888    1.0233    6.2422 H   0  0  0  0  0  0  0  0  0  0  0  0
    5.4028    0.9250    4.5187 H   0  0  0  0  0  0  0  0  0  0  0  0
    2.5976   -1.1104    6.1666 H   0  0  0  0  0  0  0  0  0  0  0  0
    3.1704    0.0885    7.0762 H   0  0  0  0  0  0  0  0  0  0  0  0
    0.5741   -0.5326    6.4180 H   0  0  0  0  0  0  0  0  0  0  0  0
    1.2453    0.3885    7.5963 H   0  0  0  0  0  0  0  0  0  0  0  0
   -1.9382    1.2965    7.3473 H   0  0  0  0  0  0  0  0  0  0  0  0
   -0.6588    0.6248    8.0977 H   0  0  0  0  0  0  0  0  0  0  0  0
   -1.3222    0.0285    6.5747 H   0  0  0  0  0  0  0  0  0  0  0  0
    1.3044    4.9449    5.0134 H   0  0  0  0  0  0  0  0  0  0  0  0
    1.6152    5.3408    6.5905 H   0  0  0  0  0  0  0  0  0  0  0  0
    0.0109    5.2579    6.1001 H   0  0  0  0  0  0  0  0  0  0  0  0
   -0.8163    4.4314    4.1830 H   0  0  0  0  0  0  0  0  0  0  0  0
   -0.4434    3.5447    2.9927 H   0  0  0  0  0  0  0  0  0  0  0  0
   -2.3569    2.6242    2.7127 H   0  0  0  0  0  0  0  0  0  0  0  0
   -1.7358    4.2706    5.8341 H   0  0  0  0  0  0  0  0  0  0  0  0
   -3.1895    2.9863    5.1158 H   0  0  0  0  0  0  0  0  0  0  0  0
  1  2  2  0
  1 34  1  0
  1 35  1  0
  2 32  1  0
  2  3  1  0
  3 27  1  0
  3  4  1  0
  3 36  1  1
  4  5  1  0
  4 37  1  0
  4 38  1  0
  5  6  1  0
  5  7  1  0
  5 39  1  1
  6 40  1  0
  7 27  1  0
  7  8  1  0
  7 41  1  6
  8 21  1  0
  8  9  1  0
  8 42  1  6
  9 10  1  0
  9 11  1  0
  9 43  1  1
 10 44  1  0
 10 45  1  0
 10 46  1  0
 11 19  1  0
 11 29  1  0
 11 12  1  1
 12 13  1  0
 12 47  1  0
 12 48  1  0
 13 14  1  0
 14 15  1  0
 14 16  1  0
 14 49  1  1
 15 50  1  0
 16 17  1  0
 16 21  1  0
 16 51  1  6
 17 18  1  0
 17 52  1  0
 17 53  1  0
 18 19  1  0
 19 20  1  0
 19 54  1  6
 20 55  1  0
 21 22  1  1
 21 23  1  0
 22 56  1  0
 22 57  1  0
 22 58  1  0
 23 24  1  0
 23 59  1  0
 23 60  1  0
 24 25  1  0
 24 61  1  0
 24 62  1  0
 25 26  1  1
 25 27  1  0
 25 29  1  0
 26 63  1  0
 26 64  1  0
 26 65  1  0
 27 28  1  6
 28 66  1  0
 28 67  1  0
 28 68  1  0
 29 30  1  6
 29 32  1  0
 30 31  1  0
 30 69  1  0
 30 70  1  0
 31 71  1  0
 32 33  1  0
 32 72  1  6
 33 73  1  0
M  END
>  <i_m_ct_stereo_status>  (80) 
1

>  <s_m_source_file>  (80) 
/var/tmp/pbs.5076255.sched01/tmpgr0kyu9k/0plolsrat.sdf

>  <i_m_source_file_index>  (80) 
35

>  <i_lp_mmshare_version>  (80) 
48012

>  <i_f3d_flags>  (80) 
0

>  <s_epik_input>  (80) 
W09IXVtDSDJdW0NAQF0xKFtDQEBdMjM0KVtDQF01KFtDSDNdKVtDQEBdNihbQ0gzXSlbQ0BASF0oQyg9W0NIMl0pW0NAQEhdMVtPSF0pW0NIMl1bQ0BASF0oW09IXSlbQ0BIXTZbQ0BIXShbQ0BIXTJbQ0gzXSlbQ0BAXShbQ0gzXSkoW0NIMl1bQ0gyXTUpW0NAQEhdKFtDQEhdKFtPSF0pT1tDSDJdMylbQ0gyXU9bQ0BIXTRbT0hd

>  <s_epik_cmdline>  (80) 
J2VwaWtfcHl0aG9uJywgJy1waHQnLCAnMi4wJywgJy1waCcsICc3LjAnLCAnLXRuJywgJzgnLCAnLW1hJywgJzIwMCcsICctaW1hZScsICc8aW5maWxlLm1hZT4nLCAnLW9tYWUnLCAnPG91dGZpbGUubWFlPic=

>  <r_lp_tautomer_probability>  (80) 
1

>  <r_epik_Ionization_Penalty>  (80) 
1.1623e-06

>  <r_epik_Ionization_Penalty_Charging>  (80) 
0

>  <r_epik_Ionization_Penalty_Neutral>  (80) 
1.1623e-06

>  <r_epik_State_Penalty>  (80) 
-0

>  <r_epik_Charging_Adjusted_Penalty>  (80) 
0

>  <i_epik_Tot_Q>  (80) 
0

>  <i_epik_Tot_abs_Q>  (80) 
0

>  <s_epik_Chemistry_Notes>  (80) 
This compound contains an acetal/aminal-like group ( X-CH(R)-Y where X, Y are N, S, or O) that may be acid/base labile, releasing an aldehyde.

>  <s_lp_Force_Field>  (80) 
OPLS3e

>  <r_lp_Energy>  (80) 
586.616

>  <b_lp_Chiralities_Consistent>  (80) 
1

>  <s_lp_Variant>  (80) 
23:0-1

>  <s_i_glide_gridfile>  (80) 
pfpi4k_grid

>  <i_i_glide_lignum>  (80) 
35

>  <i_i_glide_rotatable_bonds>  (80) 
6

>  <r_i_docking_score>  (80) 
-3.0655

>  <r_i_glide_ligand_efficiency>  (80) 
-0.092894

>  <r_i_glide_ligand_efficiency_sa>  (80) 
-0.297961

>  <r_i_glide_ligand_efficiency_ln>  (80) 
-0.681752

>  <r_i_glide_gscore>  (80) 
-3.0655

>  <r_i_glide_lipo>  (80) 
-0.10803

>  <r_i_glide_hbond>  (80) 
0

>  <r_i_glide_metal>  (80) 
-0

>  <r_i_glide_rewards>  (80) 
-1.24142

>  <r_i_glide_evdw>  (80) 
-21.4059

>  <r_i_glide_ecoul>  (80) 
-4.51309

>  <r_i_glide_erotb>  (80) 
0.0934029

>  <r_i_glide_esite>  (80) 
-0.0621925

>  <r_i_glide_emodel>  (80) 
-41.2532

>  <r_i_glide_energy>  (80) 
-25.919

>  <r_i_glide_einternal>  (80) 
1.58467

>  <r_i_glide_intrahb_reward>  (80) 
-1

>  <i_i_glide_confnum>  (80) 
1

>  <i_i_glide_posenum>  (80) 
25

>  <r_i_glide_eff_state_penalty>  (80) 
0

>  <ligand_id>  (80) 
23

>  <original_smiles>  (80) 
C=C1C2CC(O)C3C4C(C)C56COC(O)C(COC5O)C4(C)CCC(C)(C23C)C6(CO)C1O

>  <smiles>  (80) 
[H]OC([H])([H])C12C([H])(O[H])C(=C([H])[H])C3([H])C([H])([H])C([H])(O[H])C4([H])C5([H])C([H])(C([H])([H])[H])C16C([H])([H])OC([H])(O[H])C([H])(C([H])([H])OC6([H])O[H])C5(C([H])([H])[H])C([H])([H])C([H])([H])C2(C([H])([H])[H])C34C([H])([H])[H]

$$$$
23:0:1
     RDKit          3D

 73 78  0  0  1  0  0  0  0  0999 V2000
   -2.8128    2.8870    7.9567 C   0  0  0  0  0  0  0  0  0  0  0  0
   -1.6152    2.6795    7.3820 C   0  0  0  0  0  0  0  0  0  0  0  0
   -0.4300    2.1802    8.2421 C   0  0  1  0  0  0  0  0  0  0  0  0
   -0.2768    0.8761    9.0485 C   0  0  0  0  0  0  0  0  0  0  0  0
    1.2761    0.5894    8.9688 C   0  0  1  0  0  0  0  0  0  0  0  0
    1.6659   -0.6977    9.3906 O   0  0  0  0  0  0  0  0  0  0  0  0
    1.8607    1.2451    7.6492 C   0  0  1  0  0  0  0  0  0  0  0  0
    2.7735    0.7945    6.3553 C   0  0  2  0  0  0  0  0  0  0  0  0
    2.4846    1.6647    5.1040 C   0  0  0  0  0  0  0  0  0  0  0  0
    3.5854    2.7867    4.9095 C   0  0  0  0  0  0  0  0  0  0  0  0
    1.2104    1.3780    4.1215 C   0  0  2  0  0  0  0  0  0  0  0  0
    0.6835   -0.0098    3.4122 C   0  0  0  0  0  0  0  0  0  0  0  0
    1.0335   -1.3570    3.7032 O   0  0  0  0  0  0  0  0  0  0  0  0
    2.3091   -1.8358    3.5202 C   0  0  1  0  0  0  0  0  0  0  0  0
    2.6176   -2.0521    2.1529 O   0  0  0  0  0  0  0  0  0  0  0  0
    3.3293   -0.9266    4.2497 C   0  0  1  0  0  0  0  0  0  0  0  0
    3.8578    0.1466    3.2314 C   0  0  0  0  0  0  0  0  0  0  0  0
    2.9004    0.8242    2.3551 O   0  0  0  0  0  0  0  0  0  0  0  0
    1.9567    1.8168    2.7568 C   0  0  1  0  0  0  0  0  0  0  0  0
    1.0408    2.1104    1.7096 O   0  0  0  0  0  0  0  0  0  0  0  0
    2.9591   -0.6549    5.8248 C   0  0  1  0  0  0  0  0  0  0  0  0
    4.1295   -1.2854    6.6334 C   0  0  0  0  0  0  0  0  0  0  0  0
    1.6793   -1.3038    6.2958 C   0  0  0  0  0  0  0  0  0  0  0  0
    0.3291   -0.5368    6.1547 C   0  0  0  0  0  0  0  0  0  0  0  0
   -0.1082    1.0801    5.9923 C   0  0  1  0  0  0  0  0  0  0  0  0
   -1.6333    0.3968    6.0031 C   0  0  0  0  0  0  0  0  0  0  0  0
    0.6153    2.0086    7.2120 C   0  0  1  0  0  0  0  0  0  0  0  0
    1.1023    3.5692    7.2614 C   0  0  0  0  0  0  0  0  0  0  0  0
   -0.2624    2.0837    4.6833 C   0  0  2  0  0  0  0  0  0  0  0  0
    0.1853    3.5701    4.1960 C   0  0  0  0  0  0  0  0  0  0  0  0
   -0.7320    4.1559    3.2846 O   0  0  0  0  0  0  0  0  0  0  0  0
   -1.3259    2.9548    5.7911 C   0  0  1  0  0  0  0  0  0  0  0  0
   -2.5835    3.1075    5.1299 O   0  0  0  0  0  0  0  0  0  0  0  0
   -3.6558    3.2484    7.3892 H   0  0  0  0  0  0  0  0  0  0  0  0
   -2.9702    2.7017    9.0100 H   0  0  0  0  0  0  0  0  0  0  0  0
   -0.2508    2.9567    8.9875 H   0  0  0  0  0  0  0  0  0  0  0  0
   -0.5872    1.0187   10.0824 H   0  0  0  0  0  0  0  0  0  0  0  0
   -0.8946    0.0730    8.6884 H   0  0  0  0  0  0  0  0  0  0  0  0
    1.6823    1.2072    9.7744 H   0  0  0  0  0  0  0  0  0  0  0  0
    1.4850   -0.7799   10.3121 H   0  0  0  0  0  0  0  0  0  0  0  0
    2.5623    1.9451    8.1004 H   0  0  0  0  0  0  0  0  0  0  0  0
    3.7777    1.0657    6.6703 H   0  0  0  0  0  0  0  0  0  0  0  0
    1.9605    2.4712    5.4481 H   0  0  0  0  0  0  0  0  0  0  0  0
    4.1607    2.9706    5.8157 H   0  0  0  0  0  0  0  0  0  0  0  0
    3.1703    3.7620    4.6454 H   0  0  0  0  0  0  0  0  0  0  0  0
    4.3059    2.6178    4.1280 H   0  0  0  0  0  0  0  0  0  0  0  0
   -0.3906   -0.0159    3.5364 H   0  0  0  0  0  0  0  0  0  0  0  0
    0.6885   -0.0573    2.3242 H   0  0  0  0  0  0  0  0  0  0  0  0
    2.3228   -2.8348    3.9586 H   0  0  0  0  0  0  0  0  0  0  0  0
    1.9667   -2.6294    1.7965 H   0  0  0  0  0  0  0  0  0  0  0  0
    4.1999   -1.5814    4.2920 H   0  0  0  0  0  0  0  0  0  0  0  0
    4.6327    0.7476    3.6772 H   0  0  0  0  0  0  0  0  0  0  0  0
    4.4664   -0.3931    2.5051 H   0  0  0  0  0  0  0  0  0  0  0  0
    2.5815    2.7027    2.7814 H   0  0  0  0  0  0  0  0  0  0  0  0
    0.9822    3.0491    1.5469 H   0  0  0  0  0  0  0  0  0  0  0  0
    4.1886   -2.3631    6.4707 H   0  0  0  0  0  0  0  0  0  0  0  0
    4.0207   -1.1292    7.7064 H   0  0  0  0  0  0  0  0  0  0  0  0
    5.0938   -0.8633    6.3431 H   0  0  0  0  0  0  0  0  0  0  0  0
    1.5686   -2.3050    5.8879 H   0  0  0  0  0  0  0  0  0  0  0  0
    1.8187   -1.6114    7.3166 H   0  0  0  0  0  0  0  0  0  0  0  0
   -0.2196   -1.2234    5.5141 H   0  0  0  0  0  0  0  0  0  0  0  0
   -0.0404   -0.8928    7.1106 H   0  0  0  0  0  0  0  0  0  0  0  0
   -2.5542    0.9616    6.0091 H   0  0  0  0  0  0  0  0  0  0  0  0
   -1.8674   -0.2194    6.8604 H   0  0  0  0  0  0  0  0  0  0  0  0
   -1.8572   -0.1764    5.1001 H   0  0  0  0  0  0  0  0  0  0  0  0
    1.9230    3.9342    6.6548 H   0  0  0  0  0  0  0  0  0  0  0  0
    1.5076    3.7915    8.2515 H   0  0  0  0  0  0  0  0  0  0  0  0
    0.3336    4.3308    7.1764 H   0  0  0  0  0  0  0  0  0  0  0  0
    0.4398    4.2959    4.9573 H   0  0  0  0  0  0  0  0  0  0  0  0
    1.1183    3.7362    3.7042 H   0  0  0  0  0  0  0  0  0  0  0  0
   -0.3796    4.1453    2.3810 H   0  0  0  0  0  0  0  0  0  0  0  0
   -1.2162    4.0280    5.8977 H   0  0  0  0  0  0  0  0  0  0  0  0
   -2.7261    2.3537    4.5850 H   0  0  0  0  0  0  0  0  0  0  0  0
  1  2  2  0
  1 34  1  0
  1 35  1  0
  2 32  1  0
  2  3  1  0
  3 27  1  0
  3  4  1  0
  3 36  1  1
  4  5  1  0
  4 37  1  0
  4 38  1  0
  5  6  1  0
  5  7  1  0
  5 39  1  1
  6 40  1  0
  7 27  1  0
  7  8  1  0
  7 41  1  1
  8 21  1  0
  8  9  1  0
  8 42  1  1
  9 10  1  0
  9 11  1  0
  9 43  1  0
 10 44  1  0
 10 45  1  0
 10 46  1  0
 11 19  1  0
 11 29  1  0
 11 12  1  6
 12 13  1  0
 12 47  1  0
 12 48  1  0
 13 14  1  0
 14 15  1  0
 14 16  1  0
 14 49  1  1
 15 50  1  0
 16 17  1  0
 16 21  1  0
 16 51  1  1
 17 18  1  0
 17 52  1  0
 17 53  1  0
 18 19  1  0
 19 20  1  0
 19 54  1  1
 20 55  1  0
 21 22  1  1
 21 23  1  0
 22 56  1  0
 22 57  1  0
 22 58  1  0
 23 24  1  0
 23 59  1  0
 23 60  1  0
 24 25  1  0
 24 61  1  0
 24 62  1  0
 25 26  1  1
 25 27  1  0
 25 29  1  0
 26 63  1  0
 26 64  1  0
 26 65  1  0
 27 28  1  6
 28 66  1  0
 28 67  1  0
 28 68  1  0
 29 30  1  1
 29 32  1  0
 30 31  1  0
 30 69  1  0
 30 70  1  0
 31 71  1  0
 32 33  1  0
 32 72  1  1
 33 73  1  0
M  END
>  <i_m_ct_stereo_status>  (81) 
1

>  <s_m_source_file>  (81) 
/var/tmp/pbs.5076255.sched01/tmpgr0kyu9k/0plolsrat.sdf

>  <i_m_source_file_index>  (81) 
35

>  <i_lp_mmshare_version>  (81) 
48012

>  <i_f3d_flags>  (81) 
0

>  <s_epik_input>  (81) 
W09IXVtDSDJdW0NAQF0xKFtDQEBdMjM0KVtDQF01KFtDSDNdKVtDQEBdNihbQ0gzXSlbQ0BASF0oQyg9W0NIMl0pW0NAQEhdMVtPSF0pW0NIMl1bQ0BASF0oW09IXSlbQ0BIXTZbQ0BIXShbQ0BIXTJbQ0gzXSlbQ0BAXShbQ0gzXSkoW0NIMl1bQ0gyXTUpW0NAQEhdKFtDQEhdKFtPSF0pT1tDSDJdMylbQ0gyXU9bQ0BIXTRbT0hd

>  <s_epik_cmdline>  (81) 
J2VwaWtfcHl0aG9uJywgJy1waHQnLCAnMi4wJywgJy1waCcsICc3LjAnLCAnLXRuJywgJzgnLCAnLW1hJywgJzIwMCcsICctaW1hZScsICc8aW5maWxlLm1hZT4nLCAnLW9tYWUnLCAnPG91dGZpbGUubWFlPic=

>  <r_lp_tautomer_probability>  (81) 
1

>  <r_epik_Ionization_Penalty>  (81) 
1.1623e-06

>  <r_epik_Ionization_Penalty_Charging>  (81) 
0

>  <r_epik_Ionization_Penalty_Neutral>  (81) 
1.1623e-06

>  <r_epik_State_Penalty>  (81) 
-0

>  <r_epik_Charging_Adjusted_Penalty>  (81) 
0

>  <i_epik_Tot_Q>  (81) 
0

>  <i_epik_Tot_abs_Q>  (81) 
0

>  <s_epik_Chemistry_Notes>  (81) 
This compound contains an acetal/aminal-like group ( X-CH(R)-Y where X, Y are N, S, or O) that may be acid/base labile, releasing an aldehyde.

>  <s_lp_Force_Field>  (81) 
OPLS3e

>  <r_lp_Energy>  (81) 
586.616

>  <b_lp_Chiralities_Consistent>  (81) 
1

>  <s_lp_Variant>  (81) 
23:0-1

>  <s_i_glide_gridfile>  (81) 
pfpi4k_grid

>  <i_i_glide_lignum>  (81) 
35

>  <i_i_glide_rotatable_bonds>  (81) 
6

>  <r_i_docking_score>  (81) 
-2.51493

>  <r_i_glide_ligand_efficiency>  (81) 
-0.0762101

>  <r_i_glide_ligand_efficiency_sa>  (81) 
-0.244447

>  <r_i_glide_ligand_efficiency_ln>  (81) 
-0.559308

>  <r_i_glide_gscore>  (81) 
-2.51493

>  <r_i_glide_lipo>  (81) 
-0.16746

>  <r_i_glide_hbond>  (81) 
0

>  <r_i_glide_metal>  (81) 
-0

>  <r_i_glide_rewards>  (81) 
-0.241421

>  <r_i_glide_evdw>  (81) 
-16.5301

>  <r_i_glide_ecoul>  (81) 
-9.13286

>  <r_i_glide_erotb>  (81) 
0.0934029

>  <r_i_glide_esite>  (81) 
-0.00301971

>  <r_i_glide_emodel>  (81) 
-28.012

>  <r_i_glide_energy>  (81) 
-25.663

>  <r_i_glide_einternal>  (81) 
4.65822

>  <r_i_glide_intrahb_reward>  (81) 
-0

>  <i_i_glide_confnum>  (81) 
1

>  <i_i_glide_posenum>  (81) 
20

>  <r_i_glide_eff_state_penalty>  (81) 
0

>  <ligand_id>  (81) 
23

>  <original_smiles>  (81) 
C=C1C2CC(O)C3C4C(C)C56COC(O)C(COC5O)C4(C)CCC(C)(C23C)C6(CO)C1O

>  <smiles>  (81) 
[H]OC([H])([H])C12C([H])(O[H])C(=C([H])[H])C3([H])C([H])([H])C([H])(O[H])C4([H])C5([H])C([H])(C([H])([H])[H])C16C([H])([H])OC([H])(O[H])C([H])(C([H])([H])OC6([H])O[H])C5(C([H])([H])[H])C([H])([H])C([H])([H])C2(C([H])([H])[H])C34C([H])([H])[H]

$$$$
23:0:2
     RDKit          3D

 73 78  0  0  1  0  0  0  0  0999 V2000
   -2.4984    3.3155    4.2085 C   0  0  0  0  0  0  0  0  0  0  0  0
   -1.5125    3.4977    5.1041 C   0  0  0  0  0  0  0  0  0  0  0  0
   -1.4610    2.6286    6.3870 C   0  0  1  0  0  0  0  0  0  0  0  0
   -1.3215    1.1010    6.5434 C   0  0  0  0  0  0  0  0  0  0  0  0
   -0.5272    0.9574    7.9052 C   0  0  1  0  0  0  0  0  0  0  0  0
   -0.0202   -0.3271    8.1811 O   0  0  0  0  0  0  0  0  0  0  0  0
    0.3385    2.2598    8.1531 C   0  0  1  0  0  0  0  0  0  0  0  0
    1.9032    2.6433    8.4923 C   0  0  2  0  0  0  0  0  0  0  0  0
    2.2905    4.0602    7.9899 C   0  0  0  0  0  0  0  0  0  0  0  0
    2.2538    5.1272    9.1702 C   0  0  0  0  0  0  0  0  0  0  0  0
    2.7163    4.3462    6.4380 C   0  0  2  0  0  0  0  0  0  0  0  0
    3.7840    3.5873    5.4513 C   0  0  0  0  0  0  0  0  0  0  0  0
    4.4241    2.3305    5.6305 O   0  0  0  0  0  0  0  0  0  0  0  0
    5.2937    2.0776    6.6633 C   0  0  1  0  0  0  0  0  0  0  0  0
    6.5485    2.6934    6.4751 O   0  0  0  0  0  0  0  0  0  0  0  0
    4.6260    2.4283    8.0121 C   0  0  1  0  0  0  0  0  0  0  0  0
    5.0208    3.9066    8.3746 C   0  0  0  0  0  0  0  0  0  0  0  0
    4.9945    4.9151    7.3179 O   0  0  0  0  0  0  0  0  0  0  0  0
    3.8110    5.4992    6.7726 C   0  0  1  0  0  0  0  0  0  0  0  0
    4.1139    6.3460    5.6787 O   0  0  0  0  0  0  0  0  0  0  0  0
    3.1440    1.7512    8.2205 C   0  0  1  0  0  0  0  0  0  0  0  0
    3.3010    0.8065    9.4445 C   0  0  0  0  0  0  0  0  0  0  0  0
    2.6593    0.9148    7.0578 C   0  0  0  0  0  0  0  0  0  0  0  0
    1.8537    1.5882    5.9044 C   0  0  0  0  0  0  0  0  0  0  0  0
    0.9485    2.9918    5.7537 C   0  0  1  0  0  0  0  0  0  0  0  0
    0.7296    2.3827    4.2083 C   0  0  0  0  0  0  0  0  0  0  0  0
   -0.1962    3.0972    7.0003 C   0  0  1  0  0  0  0  0  0  0  0  0
   -0.8742    4.3635    7.7721 C   0  0  0  0  0  0  0  0  0  0  0  0
    1.3578    4.5560    5.3888 C   0  0  2  0  0  0  0  0  0  0  0  0
    1.1032    6.0613    5.9320 C   0  0  0  0  0  0  0  0  0  0  0  0
    1.3053    7.0082    4.8985 O   0  0  0  0  0  0  0  0  0  0  0  0
   -0.3426    4.6324    4.9257 C   0  0  1  0  0  0  0  0  0  0  0  0
   -0.3807    5.1699    3.6083 O   0  0  0  0  0  0  0  0  0  0  0  0
   -2.5659    3.9126    3.3132 H   0  0  0  0  0  0  0  0  0  0  0  0
   -3.2590    2.5626    4.3611 H   0  0  0  0  0  0  0  0  0  0  0  0
   -2.3777    2.8512    6.9428 H   0  0  0  0  0  0  0  0  0  0  0  0
   -2.3023    0.6311    6.6083 H   0  0  0  0  0  0  0  0  0  0  0  0
   -0.8496    0.6159    5.6992 H   0  0  0  0  0  0  0  0  0  0  0  0
   -1.3160    1.0292    8.6580 H   0  0  0  0  0  0  0  0  0  0  0  0
    0.5294   -0.2638    8.9485 H   0  0  0  0  0  0  0  0  0  0  0  0
   -0.1116    2.6016    9.0843 H   0  0  0  0  0  0  0  0  0  0  0  0
    1.8927    2.7168    9.5786 H   0  0  0  0  0  0  0  0  0  0  0  0
    1.4012    4.5082    7.7686 H   0  0  0  0  0  0  0  0  0  0  0  0
    1.6664    4.7741   10.0188 H   0  0  0  0  0  0  0  0  0  0  0  0
    1.7715    6.0671    8.8894 H   0  0  0  0  0  0  0  0  0  0  0  0
    3.1972    5.4565    9.5860 H   0  0  0  0  0  0  0  0  0  0  0  0
    3.2909    3.4747    4.4908 H   0  0  0  0  0  0  0  0  0  0  0  0
    4.6274    4.1681    5.0921 H   0  0  0  0  0  0  0  0  0  0  0  0
    5.4999    1.0102    6.6172 H   0  0  0  0  0  0  0  0  0  0  0  0
    6.4128    3.6288    6.5454 H   0  0  0  0  0  0  0  0  0  0  0  0
    5.2621    1.8816    8.7140 H   0  0  0  0  0  0  0  0  0  0  0  0
    4.6447    4.1825    9.3472 H   0  0  0  0  0  0  0  0  0  0  0  0
    6.0807    3.8821    8.6155 H   0  0  0  0  0  0  0  0  0  0  0  0
    3.5359    6.2231    7.5266 H   0  0  0  0  0  0  0  0  0  0  0  0
    4.3344    5.8093    4.9329 H   0  0  0  0  0  0  0  0  0  0  0  0
    4.0206    0.0122    9.2399 H   0  0  0  0  0  0  0  0  0  0  0  0
    2.3619    0.3273    9.7253 H   0  0  0  0  0  0  0  0  0  0  0  0
    3.6576    1.3472   10.3225 H   0  0  0  0  0  0  0  0  0  0  0  0
    3.4624    0.3246    6.6265 H   0  0  0  0  0  0  0  0  0  0  0  0
    2.0994    0.0833    7.4506 H   0  0  0  0  0  0  0  0  0  0  0  0
    2.5098    1.3734    5.0630 H   0  0  0  0  0  0  0  0  0  0  0  0
    1.1771    0.7486    5.8003 H   0  0  0  0  0  0  0  0  0  0  0  0
    0.1011    2.8500    3.4600 H   0  0  0  0  0  0  0  0  0  0  0  0
    0.3152    1.3773    4.1246 H   0  0  0  0  0  0  0  0  0  0  0  0
    1.6409    2.4141    3.6083 H   0  0  0  0  0  0  0  0  0  0  0  0
   -0.3044    5.0347    8.4040 H   0  0  0  0  0  0  0  0  0  0  0  0
   -1.6005    4.0054    8.5071 H   0  0  0  0  0  0  0  0  0  0  0  0
   -1.4870    5.0174    7.1750 H   0  0  0  0  0  0  0  0  0  0  0  0
    0.2022    6.3154    6.4752 H   0  0  0  0  0  0  0  0  0  0  0  0
    1.6964    6.4557    6.7316 H   0  0  0  0  0  0  0  0  0  0  0  0
    0.8271    6.7350    4.1237 H   0  0  0  0  0  0  0  0  0  0  0  0
   -0.9686    5.4383    5.2856 H   0  0  0  0  0  0  0  0  0  0  0  0
    0.0589    4.5865    2.9992 H   0  0  0  0  0  0  0  0  0  0  0  0
  1  2  2  0
  1 34  1  0
  1 35  1  0
  2 32  1  0
  2  3  1  0
  3 27  1  0
  3  4  1  0
  3 36  1  1
  4  5  1  0
  4 37  1  0
  4 38  1  0
  5  6  1  0
  5  7  1  0
  5 39  1  1
  6 40  1  0
  7 27  1  0
  7  8  1  0
  7 41  1  1
  8 21  1  0
  8  9  1  0
  8 42  1  1
  9 10  1  0
  9 11  1  0
  9 43  1  0
 10 44  1  0
 10 45  1  0
 10 46  1  0
 11 19  1  0
 11 29  1  0
 11 12  1  6
 12 13  1  0
 12 47  1  0
 12 48  1  0
 13 14  1  0
 14 15  1  0
 14 16  1  0
 14 49  1  1
 15 50  1  0
 16 17  1  0
 16 21  1  0
 16 51  1  1
 17 18  1  0
 17 52  1  0
 17 53  1  0
 18 19  1  0
 19 20  1  0
 19 54  1  1
 20 55  1  0
 21 22  1  1
 21 23  1  0
 22 56  1  0
 22 57  1  0
 22 58  1  0
 23 24  1  0
 23 59  1  0
 23 60  1  0
 24 25  1  0
 24 61  1  0
 24 62  1  0
 25 26  1  6
 25 27  1  0
 25 29  1  0
 26 63  1  0
 26 64  1  0
 26 65  1  0
 27 28  1  1
 28 66  1  0
 28 67  1  0
 28 68  1  0
 29 30  1  1
 29 32  1  0
 30 31  1  0
 30 69  1  0
 30 70  1  0
 31 71  1  0
 32 33  1  0
 32 72  1  1
 33 73  1  0
M  END
>  <i_m_ct_stereo_status>  (82) 
1

>  <s_m_source_file>  (82) 
/var/tmp/pbs.5076255.sched01/tmpgr0kyu9k/0plolsrat.sdf

>  <i_m_source_file_index>  (82) 
35

>  <i_lp_mmshare_version>  (82) 
48012

>  <i_f3d_flags>  (82) 
0

>  <s_epik_input>  (82) 
W09IXVtDSDJdW0NAQF0xKFtDQEBdMjM0KVtDQF01KFtDSDNdKVtDQEBdNihbQ0gzXSlbQ0BASF0oQyg9W0NIMl0pW0NAQEhdMVtPSF0pW0NIMl1bQ0BASF0oW09IXSlbQ0BIXTZbQ0BIXShbQ0BIXTJbQ0gzXSlbQ0BAXShbQ0gzXSkoW0NIMl1bQ0gyXTUpW0NAQEhdKFtDQEhdKFtPSF0pT1tDSDJdMylbQ0gyXU9bQ0BIXTRbT0hd

>  <s_epik_cmdline>  (82) 
J2VwaWtfcHl0aG9uJywgJy1waHQnLCAnMi4wJywgJy1waCcsICc3LjAnLCAnLXRuJywgJzgnLCAnLW1hJywgJzIwMCcsICctaW1hZScsICc8aW5maWxlLm1hZT4nLCAnLW9tYWUnLCAnPG91dGZpbGUubWFlPic=

>  <r_lp_tautomer_probability>  (82) 
1

>  <r_epik_Ionization_Penalty>  (82) 
1.1623e-06

>  <r_epik_Ionization_Penalty_Charging>  (82) 
0

>  <r_epik_Ionization_Penalty_Neutral>  (82) 
1.1623e-06

>  <r_epik_State_Penalty>  (82) 
-0

>  <r_epik_Charging_Adjusted_Penalty>  (82) 
0

>  <i_epik_Tot_Q>  (82) 
0

>  <i_epik_Tot_abs_Q>  (82) 
0

>  <s_epik_Chemistry_Notes>  (82) 
This compound contains an acetal/aminal-like group ( X-CH(R)-Y where X, Y are N, S, or O) that may be acid/base labile, releasing an aldehyde.

>  <s_lp_Force_Field>  (82) 
OPLS3e

>  <r_lp_Energy>  (82) 
586.616

>  <b_lp_Chiralities_Consistent>  (82) 
1

>  <s_lp_Variant>  (82) 
23:0-1

>  <s_i_glide_gridfile>  (82) 
pfpi4k_grid

>  <i_i_glide_lignum>  (82) 
35

>  <i_i_glide_rotatable_bonds>  (82) 
6

>  <r_i_docking_score>  (82) 
-1.99528

>  <r_i_glide_ligand_efficiency>  (82) 
-0.0604629

>  <r_i_glide_ligand_efficiency_sa>  (82) 
-0.193937

>  <r_i_glide_ligand_efficiency_ln>  (82) 
-0.443739

>  <r_i_glide_gscore>  (82) 
-1.99528

>  <r_i_glide_lipo>  (82) 
-0.039381

>  <r_i_glide_hbond>  (82) 
0

>  <r_i_glide_metal>  (82) 
-0

>  <r_i_glide_rewards>  (82) 
-0.757208

>  <r_i_glide_evdw>  (82) 
-14.7081

>  <r_i_glide_ecoul>  (82) 
-3.71124

>  <r_i_glide_erotb>  (82) 
0.0934029

>  <r_i_glide_esite>  (82) 
0

>  <r_i_glide_emodel>  (82) 
-26.9116

>  <r_i_glide_energy>  (82) 
-18.4193

>  <r_i_glide_einternal>  (82) 
0.811814

>  <r_i_glide_intrahb_reward>  (82) 
-0.5

>  <i_i_glide_confnum>  (82) 
3

>  <i_i_glide_posenum>  (82) 
16

>  <r_i_glide_eff_state_penalty>  (82) 
0

>  <ligand_id>  (82) 
23

>  <original_smiles>  (82) 
C=C1C2CC(O)C3C4C(C)C56COC(O)C(COC5O)C4(C)CCC(C)(C23C)C6(CO)C1O

>  <smiles>  (82) 
[H]OC([H])([H])C12C([H])(O[H])C(=C([H])[H])C3([H])C([H])([H])C([H])(O[H])C4([H])C5([H])C([H])(C([H])([H])[H])C16C([H])([H])OC([H])(O[H])C([H])(C([H])([H])OC6([H])O[H])C5(C([H])([H])[H])C([H])([H])C([H])([H])C2(C([H])([H])[H])C34C([H])([H])[H]

$$$$
24:0:0
     RDKit          3D

 35 37  0  0  1  0  0  0  0  0999 V2000
   -7.2976   -4.9140   -4.6750 C   0  0  0  0  0  0  0  0  0  0  0  0
   -6.7081   -5.1718   -6.0546 C   0  0  0  0  0  0  0  0  0  0  0  0
   -7.5348   -6.1703   -6.9093 C   0  0  0  0  0  0  0  0  0  0  0  0
   -7.0548   -7.6605   -6.9131 C   0  0  2  0  0  0  0  0  0  0  0  0
   -6.5733   -8.1379   -5.5225 C   0  0  0  0  0  0  0  0  0  0  0  0
   -6.1084   -9.6032   -5.5785 C   0  0  1  0  0  0  0  0  0  0  0  0
   -7.3033  -10.4750   -6.0093 C   0  0  0  0  0  0  0  0  0  0  0  0
   -7.7593  -10.0698   -7.4244 C   0  0  2  0  0  0  0  0  0  0  0  0
   -6.5910  -10.2268   -8.4110 C   0  0  0  0  0  0  0  0  0  0  0  0
   -5.4363   -9.3284   -7.9403 C   0  0  2  0  0  0  0  0  0  0  0  0
   -4.9546   -9.7520   -6.5615 C   0  0  0  0  0  0  0  0  0  0  0  0
   -5.8859   -7.8606   -7.8996 C   0  0  0  0  0  0  0  0  0  0  0  0
   -8.1950   -8.5858   -7.4293 C   0  0  0  0  0  0  0  0  0  0  0  0
   -6.7004   -4.1928   -4.1210 H   0  0  0  0  0  0  0  0  0  0  0  0
   -7.3210   -5.8250   -4.0957 H   0  0  0  0  0  0  0  0  0  0  0  0
   -8.3113   -4.5312   -4.7419 H   0  0  0  0  0  0  0  0  0  0  0  0
   -6.6602   -4.2144   -6.5845 H   0  0  0  0  0  0  0  0  0  0  0  0
   -5.6826   -5.4930   -5.9159 H   0  0  0  0  0  0  0  0  0  0  0  0
   -8.5768   -6.1224   -6.5897 H   0  0  0  0  0  0  0  0  0  0  0  0
   -7.5697   -5.8186   -7.9394 H   0  0  0  0  0  0  0  0  0  0  0  0
   -5.7227   -7.5731   -5.1458 H   0  0  0  0  0  0  0  0  0  0  0  0
   -7.3739   -8.0112   -4.8031 H   0  0  0  0  0  0  0  0  0  0  0  0
   -5.6813   -9.8520   -4.6269 H   0  0  0  0  0  0  0  0  0  0  0  0
   -7.0240  -11.5286   -5.9786 H   0  0  0  0  0  0  0  0  0  0  0  0
   -8.1260  -10.3359   -5.3050 H   0  0  0  0  0  0  0  0  0  0  0  0
   -8.5917  -10.7004   -7.7361 H   0  0  0  0  0  0  0  0  0  0  0  0
   -6.2637  -11.2709   -8.4722 H   0  0  0  0  0  0  0  0  0  0  0  0
   -6.9136   -9.9357   -9.4118 H   0  0  0  0  0  0  0  0  0  0  0  0
   -4.5971   -9.3763   -8.6128 H   0  0  0  0  0  0  0  0  0  0  0  0
   -4.1266   -9.1253   -6.2369 H   0  0  0  0  0  0  0  0  0  0  0  0
   -4.5901  -10.7847   -6.5709 H   0  0  0  0  0  0  0  0  0  0  0  0
   -6.1853   -7.5791   -8.9107 H   0  0  0  0  0  0  0  0  0  0  0  0
   -5.0217   -7.2939   -7.5769 H   0  0  0  0  0  0  0  0  0  0  0  0
   -9.0792   -8.5038   -6.8028 H   0  0  0  0  0  0  0  0  0  0  0  0
   -8.5015   -8.3023   -8.4440 H   0  0  0  0  0  0  0  0  0  0  0  0
  1  2  1  0
  1 14  1  0
  1 15  1  0
  1 16  1  0
  2  3  1  0
  2 17  1  0
  2 18  1  0
  4  3  1  1
  3 19  1  0
  3 20  1  0
  4 12  1  0
  4 13  1  0
  4  5  1  0
  5  6  1  0
  5 21  1  0
  5 22  1  0
  6 11  1  0
  6  7  1  0
  6 23  1  1
  7  8  1  0
  7 24  1  0
  7 25  1  0
  8  9  1  0
  8 13  1  0
  8 26  1  6
  9 10  1  0
  9 27  1  0
  9 28  1  0
 10 11  1  0
 10 12  1  0
 10 29  1  6
 11 30  1  0
 11 31  1  0
 12 32  1  0
 12 33  1  0
 13 34  1  0
 13 35  1  0
M  END
>  <i_m_ct_stereo_status>  (83) 
1

>  <s_m_source_file>  (83) 
/var/tmp/pbs.5076255.sched01/tmpgr0kyu9k/0plolsrat.sdf

>  <i_m_source_file_index>  (83) 
36

>  <i_lp_mmshare_version>  (83) 
48012

>  <i_f3d_flags>  (83) 
0

>  <s_epik_input>  (83) 
W0NIM11bQ0gyXVtDSDJdQzEyW0NIMl1bQ0BASF0zW0NIMl1bQ0BIXShbQ0gyXTIpW0NIMl1bQ0BASF0oW0NIMl0zKVtDSDJdMQ==

>  <s_epik_cmdline>  (83) 
J2VwaWtfcHl0aG9uJywgJy1waHQnLCAnMi4wJywgJy1waCcsICc3LjAnLCAnLXRuJywgJzgnLCAnLW1hJywgJzIwMCcsICctaW1hZScsICc8aW5maWxlLm1hZT4nLCAnLW9tYWUnLCAnPG91dGZpbGUubWFlPic=

>  <r_lp_tautomer_probability>  (83) 
1

>  <r_epik_Ionization_Penalty>  (83) 
0

>  <r_epik_Ionization_Penalty_Charging>  (83) 
0

>  <r_epik_Ionization_Penalty_Neutral>  (83) 
0

>  <r_epik_State_Penalty>  (83) 
-0

>  <r_epik_Charging_Adjusted_Penalty>  (83) 
0

>  <i_epik_Tot_Q>  (83) 
0

>  <i_epik_Tot_abs_Q>  (83) 
0

>  <s_lp_Force_Field>  (83) 
OPLS3e

>  <r_lp_Energy>  (83) 
2.62919

>  <b_lp_Chiralities_Consistent>  (83) 
1

>  <s_lp_Variant>  (83) 
24:0-1

>  <s_i_glide_gridfile>  (83) 
pfpi4k_grid

>  <i_i_glide_lignum>  (83) 
36

>  <i_i_glide_rotatable_bonds>  (83) 
2

>  <r_i_docking_score>  (83) 
-5.16808

>  <r_i_glide_ligand_efficiency>  (83) 
-0.397545

>  <r_i_glide_ligand_efficiency_sa>  (83) 
-0.934761

>  <r_i_glide_ligand_efficiency_ln>  (83) 
-1.44969

>  <r_i_glide_gscore>  (83) 
-5.16808

>  <r_i_glide_lipo>  (83) 
-2.06138

>  <r_i_glide_hbond>  (83) 
0

>  <r_i_glide_metal>  (83) 
-0

>  <r_i_glide_rewards>  (83) 
-2.8469

>  <r_i_glide_evdw>  (83) 
-5.8397

>  <r_i_glide_ecoul>  (83) 
0.214541

>  <r_i_glide_erotb>  (83) 
0

>  <r_i_glide_esite>  (83) 
0

>  <r_i_glide_emodel>  (83) 
-3.51683

>  <r_i_glide_energy>  (83) 
-5.62516

>  <r_i_glide_einternal>  (83) 
4.06441

>  <r_i_glide_intrahb_reward>  (83) 
-0

>  <i_i_glide_confnum>  (83) 
1

>  <i_i_glide_posenum>  (83) 
34

>  <r_i_glide_eff_state_penalty>  (83) 
0

>  <ligand_id>  (83) 
24

>  <original_smiles>  (83) 
CCCC12CC3CC(CC(C3)C1)C2

>  <smiles>  (83) 
[H]C([H])([H])C([H])([H])C([H])([H])C12C([H])([H])C3([H])C([H])([H])C([H])(C([H])([H])C([H])(C3([H])[H])C1([H])[H])C2([H])[H]

$$$$
26:0:0
     RDKit          3D

 20 20  0  0  1  0  0  0  0  0999 V2000
   -4.9886   -6.6046   -5.0976 Cl  0  0  0  0  0  0  0  0  0  0  0  0
   -6.5481   -6.4749   -4.2448 C   0  0  0  0  0  0  0  0  0  0  0  0
   -6.9213   -4.9980   -3.9877 C   0  0  0  0  0  0  0  0  0  0  0  0
   -7.0516   -4.1062   -5.2315 C   0  0  0  0  0  0  0  0  0  0  0  0
   -8.0726   -4.5863   -6.2503 C   0  0  0  0  0  0  0  0  0  0  0  0
   -9.2585   -3.8611   -6.5064 C   0  0  0  0  0  0  0  0  0  0  0  0
  -10.2002   -4.2682   -7.3863 N   0  0  0  0  0  0  0  0  0  0  0  0
  -10.0093   -5.4301   -8.0358 C   0  0  0  0  0  0  0  0  0  0  0  0
   -8.8553   -6.2194   -7.8741 C   0  0  0  0  0  0  0  0  0  0  0  0
   -8.6399   -7.8641   -8.7890 Br  0  0  0  0  0  0  0  0  0  0  0  0
   -7.8571   -5.7728   -6.9856 C   0  0  0  0  0  0  0  0  0  0  0  0
   -7.3000   -6.9707   -4.8637 H   0  0  0  0  0  0  0  0  0  0  0  0
   -6.4073   -6.9944   -3.2929 H   0  0  0  0  0  0  0  0  0  0  0  0
   -7.8728   -4.9440   -3.4668 H   0  0  0  0  0  0  0  0  0  0  0  0
   -6.1962   -4.5329   -3.3193 H   0  0  0  0  0  0  0  0  0  0  0  0
   -7.3449   -3.1189   -4.8737 H   0  0  0  0  0  0  0  0  0  0  0  0
   -6.0871   -3.9805   -5.7265 H   0  0  0  0  0  0  0  0  0  0  0  0
   -9.4644   -2.9363   -5.9876 H   0  0  0  0  0  0  0  0  0  0  0  0
  -10.8051   -5.7484   -8.7051 H   0  0  0  0  0  0  0  0  0  0  0  0
   -6.9530   -6.3413   -6.8665 H   0  0  0  0  0  0  0  0  0  0  0  0
  1  2  1  0
  2  3  1  0
  2 12  1  0
  2 13  1  0
  3  4  1  0
  3 14  1  0
  3 15  1  0
  4  5  1  0
  4 16  1  0
  4 17  1  0
  5 11  2  0
  5  6  1  0
  6  7  2  0
  6 18  1  0
  7  8  1  0
  8  9  2  0
  8 19  1  0
  9 10  1  0
  9 11  1  0
 11 20  1  0
M  END
>  <i_m_ct_stereo_status>  (84) 
1

>  <s_m_source_file>  (84) 
/var/tmp/pbs.5076255.sched01/tmpgr0kyu9k/0plolsrat.sdf

>  <i_m_source_file_index>  (84) 
38

>  <i_lp_mmshare_version>  (84) 
48012

>  <i_f3d_flags>  (84) 
0

>  <s_epik_input>  (84) 
Q2xbQ0gyXVtDSDJdW0NIMl1jMVtjSF1uW2NIXWMoQnIpW2NIXTE=

>  <s_epik_cmdline>  (84) 
J2VwaWtfcHl0aG9uJywgJy1waHQnLCAnMi4wJywgJy1waCcsICc3LjAnLCAnLXRuJywgJzgnLCAnLW1hJywgJzIwMCcsICctaW1hZScsICc8aW5maWxlLm1hZT4nLCAnLW9tYWUnLCAnPG91dGZpbGUubWFlPic=

>  <r_lp_tautomer_probability>  (84) 
1

>  <r_epik_Ionization_Penalty>  (84) 
0.000173285

>  <r_epik_Ionization_Penalty_Charging>  (84) 
0

>  <r_epik_Ionization_Penalty_Neutral>  (84) 
0.000173285

>  <r_epik_State_Penalty>  (84) 
-0

>  <r_epik_Charging_Adjusted_Penalty>  (84) 
0

>  <i_epik_Tot_Q>  (84) 
0

>  <i_epik_Tot_abs_Q>  (84) 
0

>  <s_lp_Force_Field>  (84) 
OPLS3e

>  <r_lp_Energy>  (84) 
11.1773

>  <b_lp_Chiralities_Consistent>  (84) 
1

>  <s_lp_Variant>  (84) 
26:0-1

>  <s_i_glide_gridfile>  (84) 
pfpi4k_grid

>  <i_i_glide_lignum>  (84) 
38

>  <i_i_glide_rotatable_bonds>  (84) 
3

>  <r_i_docking_score>  (84) 
-5.49591

>  <r_i_glide_ligand_efficiency>  (84) 
-0.499628

>  <r_i_glide_ligand_efficiency_sa>  (84) 
-1.11116

>  <r_i_glide_ligand_efficiency_ln>  (84) 
-1.61745

>  <r_i_glide_gscore>  (84) 
-5.49591

>  <r_i_glide_lipo>  (84) 
-2.05639

>  <r_i_glide_hbond>  (84) 
0

>  <r_i_glide_metal>  (84) 
-0

>  <r_i_glide_rewards>  (84) 
-2.42996

>  <r_i_glide_evdw>  (84) 
-20.6601

>  <r_i_glide_ecoul>  (84) 
-1.92568

>  <r_i_glide_erotb>  (84) 
0.312293

>  <r_i_glide_esite>  (84) 
0

>  <r_i_glide_emodel>  (84) 
-29.121

>  <r_i_glide_energy>  (84) 
-22.5858

>  <r_i_glide_einternal>  (84) 
1.51952

>  <r_i_glide_intrahb_reward>  (84) 
-0

>  <i_i_glide_confnum>  (84) 
2

>  <i_i_glide_posenum>  (84) 
37

>  <r_i_glide_eff_state_penalty>  (84) 
0

>  <ligand_id>  (84) 
26

>  <original_smiles>  (84) 
ClCCCc1cncc(Br)c1

>  <smiles>  (84) 
[H]c1nc([H])c(C([H])([H])C([H])([H])C([H])([H])Cl)c([H])c1Br

$$$$
26:0:1
     RDKit          3D

 20 20  0  0  1  0  0  0  0  0999 V2000
   -4.8949   -8.3358   -4.9576 Cl  0  0  0  0  0  0  0  0  0  0  0  0
   -5.9555   -7.0347   -5.5632 C   0  0  0  0  0  0  0  0  0  0  0  0
   -6.0015   -5.7857   -4.6616 C   0  0  0  0  0  0  0  0  0  0  0  0
   -6.6068   -4.5111   -5.3233 C   0  0  0  0  0  0  0  0  0  0  0  0
   -7.8868   -4.6924   -6.1485 C   0  0  0  0  0  0  0  0  0  0  0  0
   -9.0502   -3.9281   -5.8806 C   0  0  0  0  0  0  0  0  0  0  0  0
  -10.2116   -4.0798   -6.5555 N   0  0  0  0  0  0  0  0  0  0  0  0
  -10.2788   -5.0309   -7.5196 C   0  0  0  0  0  0  0  0  0  0  0  0
   -9.1730   -5.8063   -7.8856 C   0  0  0  0  0  0  0  0  0  0  0  0
   -9.2795   -7.1471   -9.2232 Br  0  0  0  0  0  0  0  0  0  0  0  0
   -7.9556   -5.6045   -7.2201 C   0  0  0  0  0  0  0  0  0  0  0  0
   -5.5790   -6.7622   -6.5445 H   0  0  0  0  0  0  0  0  0  0  0  0
   -6.9550   -7.4577   -5.6833 H   0  0  0  0  0  0  0  0  0  0  0  0
   -6.5689   -6.0211   -3.7562 H   0  0  0  0  0  0  0  0  0  0  0  0
   -4.9859   -5.5533   -4.3240 H   0  0  0  0  0  0  0  0  0  0  0  0
   -6.7771   -3.7735   -4.5366 H   0  0  0  0  0  0  0  0  0  0  0  0
   -5.8591   -4.0411   -5.9616 H   0  0  0  0  0  0  0  0  0  0  0  0
   -9.0513   -3.1698   -5.1007 H   0  0  0  0  0  0  0  0  0  0  0  0
  -11.2373   -5.1464   -8.0358 H   0  0  0  0  0  0  0  0  0  0  0  0
   -7.1127   -6.1758   -7.5703 H   0  0  0  0  0  0  0  0  0  0  0  0
  1  2  1  0
  2  3  1  0
  2 12  1  0
  2 13  1  0
  3  4  1  0
  3 14  1  0
  3 15  1  0
  4  5  1  0
  4 16  1  0
  4 17  1  0
  5 11  2  0
  5  6  1  0
  6  7  2  0
  6 18  1  0
  7  8  1  0
  8  9  2  0
  8 19  1  0
  9 10  1  0
  9 11  1  0
 11 20  1  0
M  END
>  <i_m_ct_stereo_status>  (85) 
1

>  <s_m_source_file>  (85) 
/var/tmp/pbs.5076255.sched01/tmpgr0kyu9k/0plolsrat.sdf

>  <i_m_source_file_index>  (85) 
38

>  <i_lp_mmshare_version>  (85) 
48012

>  <i_f3d_flags>  (85) 
0

>  <s_epik_input>  (85) 
Q2xbQ0gyXVtDSDJdW0NIMl1jMVtjSF1uW2NIXWMoQnIpW2NIXTE=

>  <s_epik_cmdline>  (85) 
J2VwaWtfcHl0aG9uJywgJy1waHQnLCAnMi4wJywgJy1waCcsICc3LjAnLCAnLXRuJywgJzgnLCAnLW1hJywgJzIwMCcsICctaW1hZScsICc8aW5maWxlLm1hZT4nLCAnLW9tYWUnLCAnPG91dGZpbGUubWFlPic=

>  <r_lp_tautomer_probability>  (85) 
1

>  <r_epik_Ionization_Penalty>  (85) 
0.000173285

>  <r_epik_Ionization_Penalty_Charging>  (85) 
0

>  <r_epik_Ionization_Penalty_Neutral>  (85) 
0.000173285

>  <r_epik_State_Penalty>  (85) 
-0

>  <r_epik_Charging_Adjusted_Penalty>  (85) 
0

>  <i_epik_Tot_Q>  (85) 
0

>  <i_epik_Tot_abs_Q>  (85) 
0

>  <s_lp_Force_Field>  (85) 
OPLS3e

>  <r_lp_Energy>  (85) 
11.1773

>  <b_lp_Chiralities_Consistent>  (85) 
1

>  <s_lp_Variant>  (85) 
26:0-1

>  <s_i_glide_gridfile>  (85) 
pfpi4k_grid

>  <i_i_glide_lignum>  (85) 
38

>  <i_i_glide_rotatable_bonds>  (85) 
3

>  <r_i_docking_score>  (85) 
-5.34411

>  <r_i_glide_ligand_efficiency>  (85) 
-0.485828

>  <r_i_glide_ligand_efficiency_sa>  (85) 
-1.08047

>  <r_i_glide_ligand_efficiency_ln>  (85) 
-1.57277

>  <r_i_glide_gscore>  (85) 
-5.34411

>  <r_i_glide_lipo>  (85) 
-2.30488

>  <r_i_glide_hbond>  (85) 
0

>  <r_i_glide_metal>  (85) 
-0

>  <r_i_glide_rewards>  (85) 
-2.26009

>  <r_i_glide_evdw>  (85) 
-22.8121

>  <r_i_glide_ecoul>  (85) 
0.3278

>  <r_i_glide_erotb>  (85) 
0.312293

>  <r_i_glide_esite>  (85) 
0

>  <r_i_glide_emodel>  (85) 
-27.2219

>  <r_i_glide_energy>  (85) 
-22.4843

>  <r_i_glide_einternal>  (85) 
2.86867

>  <r_i_glide_intrahb_reward>  (85) 
-0

>  <i_i_glide_confnum>  (85) 
3

>  <i_i_glide_posenum>  (85) 
1

>  <r_i_glide_eff_state_penalty>  (85) 
0

>  <ligand_id>  (85) 
26

>  <original_smiles>  (85) 
ClCCCc1cncc(Br)c1

>  <smiles>  (85) 
[H]c1nc([H])c(C([H])([H])C([H])([H])C([H])([H])Cl)c([H])c1Br

$$$$
26:0:2
     RDKit          3D

 20 20  0  0  1  0  0  0  0  0999 V2000
   -4.9660   -6.0158   -4.8155 Cl  0  0  0  0  0  0  0  0  0  0  0  0
   -6.5270   -6.0073   -4.0062 C   0  0  0  0  0  0  0  0  0  0  0  0
   -7.2262   -4.6807   -4.3574 C   0  0  0  0  0  0  0  0  0  0  0  0
   -7.3695   -4.3570   -5.8666 C   0  0  0  0  0  0  0  0  0  0  0  0
   -7.8607   -5.5048   -6.7858 C   0  0  0  0  0  0  0  0  0  0  0  0
   -7.2465   -6.7567   -6.8427 C   0  0  0  0  0  0  0  0  0  0  0  0
   -7.6749   -7.7802   -7.6196 N   0  0  0  0  0  0  0  0  0  0  0  0
   -8.7361   -7.5787   -8.3872 C   0  0  0  0  0  0  0  0  0  0  0  0
   -9.4207   -6.3282   -8.4838 C   0  0  0  0  0  0  0  0  0  0  0  0
  -10.8642   -6.1426   -9.7280 Br  0  0  0  0  0  0  0  0  0  0  0  0
   -8.9514   -5.2728   -7.6477 C   0  0  0  0  0  0  0  0  0  0  0  0
   -7.0486   -6.8907   -4.3935 H   0  0  0  0  0  0  0  0  0  0  0  0
   -6.3115   -6.1504   -2.9345 H   0  0  0  0  0  0  0  0  0  0  0  0
   -8.2069   -4.7330   -3.9073 H   0  0  0  0  0  0  0  0  0  0  0  0
   -6.6891   -3.8732   -3.8513 H   0  0  0  0  0  0  0  0  0  0  0  0
   -8.0542   -3.5052   -5.9292 H   0  0  0  0  0  0  0  0  0  0  0  0
   -6.4326   -3.9656   -6.2523 H   0  0  0  0  0  0  0  0  0  0  0  0
   -6.3592   -7.0639   -6.3107 H   0  0  0  0  0  0  0  0  0  0  0  0
   -9.0352   -8.4501   -8.9900 H   0  0  0  0  0  0  0  0  0  0  0  0
   -9.4703   -4.2999   -7.7037 H   0  0  0  0  0  0  0  0  0  0  0  0
  1  2  1  0
  2  3  1  0
  2 12  1  0
  2 13  1  0
  3  4  1  0
  3 14  1  0
  3 15  1  0
  4  5  1  0
  4 16  1  0
  4 17  1  0
  5 11  2  0
  5  6  1  0
  6  7  2  0
  6 18  1  0
  7  8  1  0
  8  9  2  0
  8 19  1  0
  9 10  1  0
  9 11  1  0
 11 20  1  0
M  END
>  <i_m_ct_stereo_status>  (86) 
1

>  <s_m_source_file>  (86) 
/var/tmp/pbs.5076255.sched01/tmpgr0kyu9k/0plolsrat.sdf

>  <i_m_source_file_index>  (86) 
38

>  <i_lp_mmshare_version>  (86) 
48012

>  <i_f3d_flags>  (86) 
0

>  <s_epik_input>  (86) 
Q2xbQ0gyXVtDSDJdW0NIMl1jMVtjSF1uW2NIXWMoQnIpW2NIXTE=

>  <s_epik_cmdline>  (86) 
J2VwaWtfcHl0aG9uJywgJy1waHQnLCAnMi4wJywgJy1waCcsICc3LjAnLCAnLXRuJywgJzgnLCAnLW1hJywgJzIwMCcsICctaW1hZScsICc8aW5maWxlLm1hZT4nLCAnLW9tYWUnLCAnPG91dGZpbGUubWFlPic=

>  <r_lp_tautomer_probability>  (86) 
1

>  <r_epik_Ionization_Penalty>  (86) 
0.000173285

>  <r_epik_Ionization_Penalty_Charging>  (86) 
0

>  <r_epik_Ionization_Penalty_Neutral>  (86) 
0.000173285

>  <r_epik_State_Penalty>  (86) 
-0

>  <r_epik_Charging_Adjusted_Penalty>  (86) 
0

>  <i_epik_Tot_Q>  (86) 
0

>  <i_epik_Tot_abs_Q>  (86) 
0

>  <s_lp_Force_Field>  (86) 
OPLS3e

>  <r_lp_Energy>  (86) 
11.1773

>  <b_lp_Chiralities_Consistent>  (86) 
1

>  <s_lp_Variant>  (86) 
26:0-1

>  <s_i_glide_gridfile>  (86) 
pfpi4k_grid

>  <i_i_glide_lignum>  (86) 
38

>  <i_i_glide_rotatable_bonds>  (86) 
3

>  <r_i_docking_score>  (86) 
-4.78531

>  <r_i_glide_ligand_efficiency>  (86) 
-0.435028

>  <r_i_glide_ligand_efficiency_sa>  (86) 
-0.967495

>  <r_i_glide_ligand_efficiency_ln>  (86) 
-1.40832

>  <r_i_glide_gscore>  (86) 
-4.78531

>  <r_i_glide_lipo>  (86) 
-1.63421

>  <r_i_glide_hbond>  (86) 
0

>  <r_i_glide_metal>  (86) 
-0

>  <r_i_glide_rewards>  (86) 
-2.46842

>  <r_i_glide_evdw>  (86) 
-17.2709

>  <r_i_glide_ecoul>  (86) 
-0.876188

>  <r_i_glide_erotb>  (86) 
0.312293

>  <r_i_glide_esite>  (86) 
0

>  <r_i_glide_emodel>  (86) 
-21.2112

>  <r_i_glide_energy>  (86) 
-18.1471

>  <r_i_glide_einternal>  (86) 
3.06654

>  <r_i_glide_intrahb_reward>  (86) 
-0

>  <i_i_glide_confnum>  (86) 
2

>  <i_i_glide_posenum>  (86) 
18

>  <r_i_glide_eff_state_penalty>  (86) 
0

>  <ligand_id>  (86) 
26

>  <original_smiles>  (86) 
ClCCCc1cncc(Br)c1

>  <smiles>  (86) 
[H]c1nc([H])c(C([H])([H])C([H])([H])C([H])([H])Cl)c([H])c1Br

$$$$
27:0:0
     RDKit          3D

 57 61  0  0  1  0  0  0  0  0999 V2000
   -2.6811    3.1439    3.0470 C   0  0  0  0  0  0  0  0  0  0  0  0
   -1.5718    2.8054    3.7281 C   0  0  0  0  0  0  0  0  0  0  0  0
   -0.7337    3.7624    4.4493 C   0  0  0  0  0  0  0  0  0  0  0  0
   -0.9839    4.9442    4.6661 O   0  0  0  0  0  0  0  0  0  0  0  0
    0.3476    3.1199    4.8732 O   0  0  0  0  0  0  0  0  0  0  0  0
    0.5015    1.8419    4.2742 C   0  0  2  0  0  0  0  0  0  0  0  0
   -0.9178    1.4517    3.8197 C   0  0  1  0  0  0  0  0  0  0  0  0
   -1.6502    0.5018    4.7717 C   0  0  0  0  0  0  0  0  0  0  0  0
   -1.5498    0.9344    6.2287 C   0  0  0  0  0  0  0  0  0  0  0  0
   -2.3636    1.7024    6.7352 O   0  0  0  0  0  0  0  0  0  0  0  0
   -0.4544    0.2414    7.0266 C   0  0  2  0  0  0  0  0  0  0  0  0
   -0.3718    0.6749    8.5148 C   0  0  0  0  0  0  0  0  0  0  0  0
    0.9703    1.0911    8.7346 O   0  0  0  0  0  0  0  0  0  0  0  0
    1.4882    1.5037    7.4875 C   0  0  1  0  0  0  0  0  0  0  0  0
    2.9893    1.5880    7.4446 C   0  0  0  0  0  0  0  0  0  0  0  0
    3.6775    1.3771    6.3084 C   0  0  0  0  0  0  0  0  0  0  0  0
    5.1260    1.2931    6.3771 C   0  0  0  0  0  0  0  0  0  0  0  0
    5.8543    0.7728    5.3569 C   0  0  0  0  0  0  0  0  0  0  0  0
    7.2288    0.6669    5.3391 O   0  0  0  0  0  0  0  0  0  0  0  0
    7.9513    1.1731    6.4531 C   0  0  0  0  0  0  0  0  0  0  0  0
    5.2281    0.2156    4.0833 C   0  0  1  0  0  0  0  0  0  0  0  0
    5.8111   -1.0363    3.7574 O   0  0  0  0  0  0  0  0  0  0  0  0
    5.7175   -1.4293    2.3973 C   0  0  0  0  0  0  0  0  0  0  0  0
    3.6923    0.0521    4.1882 C   0  0  0  0  0  0  0  0  0  0  0  0
    2.9709    1.1989    4.9435 C   0  0  2  0  0  0  0  0  0  0  0  0
    3.2468    2.5214    4.1640 C   0  0  0  0  0  0  0  0  0  0  0  0
    1.4087    0.8326    5.0562 C   0  0  1  0  0  0  0  0  0  0  0  0
    1.0000    0.4167    6.5294 C   0  0  2  0  0  0  0  0  0  0  0  0
    1.6399   -0.9734    6.8356 C   0  0  0  0  0  0  0  0  0  0  0  0
   -3.2418    2.4133    2.4811 H   0  0  0  0  0  0  0  0  0  0  0  0
   -3.0355    4.1618    3.0137 H   0  0  0  0  0  0  0  0  0  0  0  0
    0.9893    2.0362    3.3236 H   0  0  0  0  0  0  0  0  0  0  0  0
   -0.8815    1.0011    2.8258 H   0  0  0  0  0  0  0  0  0  0  0  0
   -2.6912    0.4179    4.4780 H   0  0  0  0  0  0  0  0  0  0  0  0
   -1.2370   -0.5010    4.6791 H   0  0  0  0  0  0  0  0  0  0  0  0
   -0.7202   -0.8138    6.9893 H   0  0  0  0  0  0  0  0  0  0  0  0
   -1.0533    1.4819    8.7897 H   0  0  0  0  0  0  0  0  0  0  0  0
   -0.5798   -0.1560    9.1859 H   0  0  0  0  0  0  0  0  0  0  0  0
    1.0594    2.4793    7.2608 H   0  0  0  0  0  0  0  0  0  0  0  0
    3.4891    1.7268    8.3959 H   0  0  0  0  0  0  0  0  0  0  0  0
    5.6159    1.6614    7.2679 H   0  0  0  0  0  0  0  0  0  0  0  0
    9.0122    1.0200    6.2838 H   0  0  0  0  0  0  0  0  0  0  0  0
    7.7013    0.6534    7.3764 H   0  0  0  0  0  0  0  0  0  0  0  0
    7.8071    2.2454    6.5808 H   0  0  0  0  0  0  0  0  0  0  0  0
    5.4863    0.9328    3.3084 H   0  0  0  0  0  0  0  0  0  0  0  0
    6.1858   -2.4063    2.2821 H   0  0  0  0  0  0  0  0  0  0  0  0
    6.2472   -0.7349    1.7460 H   0  0  0  0  0  0  0  0  0  0  0  0
    4.6860   -1.5261    2.0587 H   0  0  0  0  0  0  0  0  0  0  0  0
    3.2656   -0.0569    3.1907 H   0  0  0  0  0  0  0  0  0  0  0  0
    3.5016   -0.8888    4.7012 H   0  0  0  0  0  0  0  0  0  0  0  0
    2.9854    2.4684    3.1056 H   0  0  0  0  0  0  0  0  0  0  0  0
    4.2974    2.7824    4.1832 H   0  0  0  0  0  0  0  0  0  0  0  0
    2.7615    3.3905    4.6079 H   0  0  0  0  0  0  0  0  0  0  0  0
    1.2732   -0.0745    4.4668 H   0  0  0  0  0  0  0  0  0  0  0  0
    2.7241   -0.9913    6.7567 H   0  0  0  0  0  0  0  0  0  0  0  0
    1.2596   -1.7316    6.1500 H   0  0  0  0  0  0  0  0  0  0  0  0
    1.4148   -1.3180    7.8472 H   0  0  0  0  0  0  0  0  0  0  0  0
  1  2  2  0
  1 30  1  0
  1 31  1  0
  2  7  1  0
  2  3  1  0
  3  4  2  0
  3  5  1  0
  5  6  1  0
  6 27  1  0
  6  7  1  0
  6 32  1  6
  7  8  1  0
  7 33  1  6
  8  9  1  0
  8 34  1  0
  8 35  1  0
  9 10  2  0
  9 11  1  0
 11 28  1  0
 11 12  1  0
 11 36  1  1
 12 13  1  0
 12 37  1  0
 12 38  1  0
 13 14  1  0
 14 28  1  0
 14 15  1  0
 14 39  1  6
 15 16  2  0
 15 40  1  0
 16 25  1  0
 16 17  1  0
 17 18  2  0
 17 41  1  0
 18 19  1  0
 18 21  1  0
 19 20  1  0
 20 42  1  0
 20 43  1  0
 20 44  1  0
 21 22  1  0
 21 24  1  0
 21 45  1  6
 22 23  1  0
 23 46  1  0
 23 47  1  0
 23 48  1  0
 24 25  1  0
 24 49  1  0
 24 50  1  0
 25 26  1  6
 25 27  1  0
 26 51  1  0
 26 52  1  0
 26 53  1  0
 27 28  1  0
 27 54  1  6
 28 29  1  1
 29 55  1  0
 29 56  1  0
 29 57  1  0
M  END
>  <i_m_ct_stereo_status>  (87) 
1

>  <s_m_source_file>  (87) 
/var/tmp/pbs.5076255.sched01/tmpgr0kyu9k/0plolsrat.sdf

>  <i_m_source_file_index>  (87) 
39

>  <i_lp_mmshare_version>  (87) 
48012

>  <i_f3d_flags>  (87) 
0

>  <s_epik_input>  (87) 
W0NIMl09QzFDKD1PKU9bQ0BASF0oW0NAQEhdMjMpW0NASF0xW0NIMl1DKD1PKVtDQEhdKFtDSDJdTzQpW0NAXTMoW0NIM10pW0NAQEhdNFtDSF09QyhbQ0BdMjVbQ0gzXSlbQ0hdPUMoT1tDSDNdKVtDQEhdKFtDSDJdNSlPW0NIM10=

>  <s_epik_cmdline>  (87) 
J2VwaWtfcHl0aG9uJywgJy1waHQnLCAnMi4wJywgJy1waCcsICc3LjAnLCAnLXRuJywgJzgnLCAnLW1hJywgJzIwMCcsICctaW1hZScsICc8aW5maWxlLm1hZT4nLCAnLW9tYWUnLCAnPG91dGZpbGUubWFlPic=

>  <r_lp_tautomer_probability>  (87) 
1

>  <r_epik_Ionization_Penalty>  (87) 
1.18226e-11

>  <r_epik_Ionization_Penalty_Charging>  (87) 
0

>  <r_epik_Ionization_Penalty_Neutral>  (87) 
1.18226e-11

>  <r_epik_State_Penalty>  (87) 
-0

>  <r_epik_Charging_Adjusted_Penalty>  (87) 
0

>  <i_epik_Tot_Q>  (87) 
0

>  <i_epik_Tot_abs_Q>  (87) 
0

>  <s_epik_Chemistry_Notes>  (87) 
This compound has an ester and may undergo hydrolysis at high or low pH.

>  <s_lp_Force_Field>  (87) 
OPLS3e

>  <r_lp_Energy>  (87) 
41.175

>  <b_lp_Chiralities_Consistent>  (87) 
1

>  <s_lp_Variant>  (87) 
27:0-1

>  <s_i_glide_gridfile>  (87) 
pfpi4k_grid

>  <i_i_glide_lignum>  (87) 
39

>  <i_i_glide_rotatable_bonds>  (87) 
2

>  <r_i_docking_score>  (87) 
-2.60981

>  <r_i_glide_ligand_efficiency>  (87) 
-0.0899935

>  <r_i_glide_ligand_efficiency_sa>  (87) 
-0.276489

>  <r_i_glide_ligand_efficiency_ln>  (87) 
-0.597581

>  <r_i_glide_gscore>  (87) 
-2.60981

>  <r_i_glide_lipo>  (87) 
-0.437653

>  <r_i_glide_hbond>  (87) 
-0.0501765

>  <r_i_glide_metal>  (87) 
-0

>  <r_i_glide_rewards>  (87) 
-0.678649

>  <r_i_glide_evdw>  (87) 
-18.13

>  <r_i_glide_ecoul>  (87) 
-2.94071

>  <r_i_glide_erotb>  (87) 
0

>  <r_i_glide_esite>  (87) 
-0.0957261

>  <r_i_glide_emodel>  (87) 
-24.5965

>  <r_i_glide_energy>  (87) 
-21.0707

>  <r_i_glide_einternal>  (87) 
0.648304

>  <r_i_glide_intrahb_reward>  (87) 
-0

>  <i_i_glide_confnum>  (87) 
2

>  <i_i_glide_posenum>  (87) 
2

>  <r_i_glide_eff_state_penalty>  (87) 
0

>  <ligand_id>  (87) 
27

>  <original_smiles>  (87) 
C=C1C(=O)OC2C1CC(=O)C1COC3C=C4C=C(OC)C(OC)CC4(C)C2C31C

>  <smiles>  (87) 
[H]C([H])=C1C(=O)OC2([H])C1([H])C([H])([H])C(=O)C1([H])C([H])([H])OC3([H])C([H])=C4C([H])=C(OC([H])([H])[H])C([H])(OC([H])([H])[H])C([H])([H])C4(C([H])([H])[H])C2([H])C31C([H])([H])[H]

$$$$
27:0:1
     RDKit          3D

 57 61  0  0  1  0  0  0  0  0999 V2000
   -2.3596    3.4625    8.5910 C   0  0  0  0  0  0  0  0  0  0  0  0
   -1.5260    3.2321    7.5634 C   0  0  0  0  0  0  0  0  0  0  0  0
   -1.9595    3.1059    6.1772 C   0  0  0  0  0  0  0  0  0  0  0  0
   -3.0694    3.3385    5.7294 O   0  0  0  0  0  0  0  0  0  0  0  0
   -0.9051    2.7157    5.4553 O   0  0  0  0  0  0  0  0  0  0  0  0
    0.1963    2.2993    6.2512 C   0  0  2  0  0  0  0  0  0  0  0  0
   -0.0408    2.9806    7.6152 C   0  0  1  0  0  0  0  0  0  0  0  0
    0.7681    4.2662    7.8547 C   0  0  0  0  0  0  0  0  0  0  0  0
    0.7235    5.2106    6.6623 C   0  0  0  0  0  0  0  0  0  0  0  0
   -0.1860    6.0250    6.5194 O   0  0  0  0  0  0  0  0  0  0  0  0
    1.9045    5.0953    5.7023 C   0  0  2  0  0  0  0  0  0  0  0  0
    1.8536    6.0768    4.5004 C   0  0  0  0  0  0  0  0  0  0  0  0
    2.0030    5.2743    3.3328 O   0  0  0  0  0  0  0  0  0  0  0  0
    1.5297    3.9805    3.6499 C   0  0  1  0  0  0  0  0  0  0  0  0
    1.9665    2.9146    2.6830 C   0  0  0  0  0  0  0  0  0  0  0  0
    2.1554    1.6353    3.0622 C   0  0  0  0  0  0  0  0  0  0  0  0
    2.7432    0.6995    2.1139 C   0  0  0  0  0  0  0  0  0  0  0  0
    3.2531   -0.4883    2.5111 C   0  0  0  0  0  0  0  0  0  0  0  0
    3.8401   -1.4148    1.6785 O   0  0  0  0  0  0  0  0  0  0  0  0
    3.9759   -1.1001    0.3013 C   0  0  0  0  0  0  0  0  0  0  0  0
    3.2830   -0.9387    3.9750 C   0  0  1  0  0  0  0  0  0  0  0  0
    4.5677   -1.4272    4.3609 O   0  0  0  0  0  0  0  0  0  0  0  0
    4.7862   -2.8163    4.1528 C   0  0  0  0  0  0  0  0  0  0  0  0
    2.9272    0.2061    4.9572 C   0  0  0  0  0  0  0  0  0  0  0  0
    1.7837    1.1443    4.4804 C   0  0  2  0  0  0  0  0  0  0  0  0
    0.5095    0.2625    4.2838 C   0  0  0  0  0  0  0  0  0  0  0  0
    1.5980    2.3309    5.5599 C   0  0  1  0  0  0  0  0  0  0  0  0
    2.1459    3.7201    5.0225 C   0  0  2  0  0  0  0  0  0  0  0  0
    3.7038    3.6317    4.9622 C   0  0  0  0  0  0  0  0  0  0  0  0
   -2.0032    3.5147    9.6136 H   0  0  0  0  0  0  0  0  0  0  0  0
   -3.4201    3.5989    8.4338 H   0  0  0  0  0  0  0  0  0  0  0  0
   -0.0067    1.2589    6.4867 H   0  0  0  0  0  0  0  0  0  0  0  0
    0.1727    2.2747    8.4227 H   0  0  0  0  0  0  0  0  0  0  0  0
    0.4052    4.7810    8.7444 H   0  0  0  0  0  0  0  0  0  0  0  0
    1.8082    4.0043    8.0455 H   0  0  0  0  0  0  0  0  0  0  0  0
    2.7705    5.3554    6.3119 H   0  0  0  0  0  0  0  0  0  0  0  0
    0.9309    6.6540    4.4317 H   0  0  0  0  0  0  0  0  0  0  0  0
    2.6726    6.7927    4.5430 H   0  0  0  0  0  0  0  0  0  0  0  0
    0.4408    4.0156    3.6779 H   0  0  0  0  0  0  0  0  0  0  0  0
    2.1952    3.2524    1.6818 H   0  0  0  0  0  0  0  0  0  0  0  0
    2.7593    0.9838    1.0723 H   0  0  0  0  0  0  0  0  0  0  0  0
    4.4360   -1.9496   -0.2018 H   0  0  0  0  0  0  0  0  0  0  0  0
    4.6176   -0.2311    0.1511 H   0  0  0  0  0  0  0  0  0  0  0  0
    3.0150   -0.9273   -0.1788 H   0  0  0  0  0  0  0  0  0  0  0  0
    2.5361   -1.7279    4.0863 H   0  0  0  0  0  0  0  0  0  0  0  0
    5.8034   -3.0656    4.4531 H   0  0  0  0  0  0  0  0  0  0  0  0
    4.6759   -3.1191    3.1130 H   0  0  0  0  0  0  0  0  0  0  0  0
    4.1032   -3.4142    4.7563 H   0  0  0  0  0  0  0  0  0  0  0  0
    2.6820   -0.2228    5.9283 H   0  0  0  0  0  0  0  0  0  0  0  0
    3.8268    0.7956    5.1186 H   0  0  0  0  0  0  0  0  0  0  0  0
    0.2375   -0.3002    5.1757 H   0  0  0  0  0  0  0  0  0  0  0  0
    0.6385   -0.4809    3.4977 H   0  0  0  0  0  0  0  0  0  0  0  0
   -0.3511    0.8469    3.9585 H   0  0  0  0  0  0  0  0  0  0  0  0
    2.2590    2.0800    6.3900 H   0  0  0  0  0  0  0  0  0  0  0  0
    4.0779    2.8357    4.3231 H   0  0  0  0  0  0  0  0  0  0  0  0
    4.1169    3.4666    5.9582 H   0  0  0  0  0  0  0  0  0  0  0  0
    4.1474    4.5530    4.5780 H   0  0  0  0  0  0  0  0  0  0  0  0
  1  2  2  0
  1 30  1  0
  1 31  1  0
  2  7  1  0
  2  3  1  0
  3  4  2  0
  3  5  1  0
  5  6  1  0
  6 27  1  0
  6  7  1  0
  6 32  1  1
  7  8  1  0
  7 33  1  1
  8  9  1  0
  8 34  1  0
  8 35  1  0
  9 10  2  0
  9 11  1  0
 11 28  1  0
 11 12  1  0
 11 36  1  1
 12 13  1  0
 12 37  1  0
 12 38  1  0
 13 14  1  0
 14 28  1  0
 14 15  1  0
 14 39  1  1
 15 16  2  0
 15 40  1  0
 16 25  1  0
 16 17  1  0
 17 18  2  0
 17 41  1  0
 18 19  1  0
 18 21  1  0
 19 20  1  0
 20 42  1  0
 20 43  1  0
 20 44  1  0
 21 22  1  0
 21 24  1  0
 21 45  1  6
 22 23  1  0
 23 46  1  0
 23 47  1  0
 23 48  1  0
 24 25  1  0
 24 49  1  0
 24 50  1  0
 25 26  1  6
 25 27  1  0
 26 51  1  0
 26 52  1  0
 26 53  1  0
 27 28  1  0
 27 54  1  1
 28 29  1  6
 29 55  1  0
 29 56  1  0
 29 57  1  0
M  END
>  <i_m_ct_stereo_status>  (88) 
1

>  <s_m_source_file>  (88) 
/var/tmp/pbs.5076255.sched01/tmpgr0kyu9k/0plolsrat.sdf

>  <i_m_source_file_index>  (88) 
39

>  <i_lp_mmshare_version>  (88) 
48012

>  <i_f3d_flags>  (88) 
0

>  <s_epik_input>  (88) 
W0NIMl09QzFDKD1PKU9bQ0BASF0oW0NAQEhdMjMpW0NASF0xW0NIMl1DKD1PKVtDQEhdKFtDSDJdTzQpW0NAXTMoW0NIM10pW0NAQEhdNFtDSF09QyhbQ0BdMjVbQ0gzXSlbQ0hdPUMoT1tDSDNdKVtDQEhdKFtDSDJdNSlPW0NIM10=

>  <s_epik_cmdline>  (88) 
J2VwaWtfcHl0aG9uJywgJy1waHQnLCAnMi4wJywgJy1waCcsICc3LjAnLCAnLXRuJywgJzgnLCAnLW1hJywgJzIwMCcsICctaW1hZScsICc8aW5maWxlLm1hZT4nLCAnLW9tYWUnLCAnPG91dGZpbGUubWFlPic=

>  <r_lp_tautomer_probability>  (88) 
1

>  <r_epik_Ionization_Penalty>  (88) 
1.18226e-11

>  <r_epik_Ionization_Penalty_Charging>  (88) 
0

>  <r_epik_Ionization_Penalty_Neutral>  (88) 
1.18226e-11

>  <r_epik_State_Penalty>  (88) 
-0

>  <r_epik_Charging_Adjusted_Penalty>  (88) 
0

>  <i_epik_Tot_Q>  (88) 
0

>  <i_epik_Tot_abs_Q>  (88) 
0

>  <s_epik_Chemistry_Notes>  (88) 
This compound has an ester and may undergo hydrolysis at high or low pH.

>  <s_lp_Force_Field>  (88) 
OPLS3e

>  <r_lp_Energy>  (88) 
41.175

>  <b_lp_Chiralities_Consistent>  (88) 
1

>  <s_lp_Variant>  (88) 
27:0-1

>  <s_i_glide_gridfile>  (88) 
pfpi4k_grid

>  <i_i_glide_lignum>  (88) 
39

>  <i_i_glide_rotatable_bonds>  (88) 
2

>  <r_i_docking_score>  (88) 
-2.16167

>  <r_i_glide_ligand_efficiency>  (88) 
-0.0745402

>  <r_i_glide_ligand_efficiency_sa>  (88) 
-0.229011

>  <r_i_glide_ligand_efficiency_ln>  (88) 
-0.494967

>  <r_i_glide_gscore>  (88) 
-2.16167

>  <r_i_glide_lipo>  (88) 
-0.120756

>  <r_i_glide_hbond>  (88) 
0

>  <r_i_glide_metal>  (88) 
-0

>  <r_i_glide_rewards>  (88) 
-0.761427

>  <r_i_glide_evdw>  (88) 
-21.8922

>  <r_i_glide_ecoul>  (88) 
-1.22217

>  <r_i_glide_erotb>  (88) 
0

>  <r_i_glide_esite>  (88) 
-0.00154805

>  <r_i_glide_emodel>  (88) 
-26.2333

>  <r_i_glide_energy>  (88) 
-23.1144

>  <r_i_glide_einternal>  (88) 
0.0630668

>  <r_i_glide_intrahb_reward>  (88) 
-0

>  <i_i_glide_confnum>  (88) 
1

>  <i_i_glide_posenum>  (88) 
10

>  <r_i_glide_eff_state_penalty>  (88) 
0

>  <ligand_id>  (88) 
27

>  <original_smiles>  (88) 
C=C1C(=O)OC2C1CC(=O)C1COC3C=C4C=C(OC)C(OC)CC4(C)C2C31C

>  <smiles>  (88) 
[H]C([H])=C1C(=O)OC2([H])C1([H])C([H])([H])C(=O)C1([H])C([H])([H])OC3([H])C([H])=C4C([H])=C(OC([H])([H])[H])C([H])(OC([H])([H])[H])C([H])([H])C4(C([H])([H])[H])C2([H])C31C([H])([H])[H]

$$$$
27:0:2
     RDKit          3D

 57 61  0  0  1  0  0  0  0  0999 V2000
    2.1332    1.2829    2.2359 C   0  0  0  0  0  0  0  0  0  0  0  0
    2.5039    0.0693    2.6791 C   0  0  0  0  0  0  0  0  0  0  0  0
    3.5219   -0.7556    2.0309 C   0  0  0  0  0  0  0  0  0  0  0  0
    4.2898   -0.4146    1.1336 O   0  0  0  0  0  0  0  0  0  0  0  0
    3.5053   -1.9537    2.6322 O   0  0  0  0  0  0  0  0  0  0  0  0
    2.3813   -2.1415    3.4847 C   0  0  2  0  0  0  0  0  0  0  0  0
    1.9200   -0.7108    3.8288 C   0  0  1  0  0  0  0  0  0  0  0  0
    2.3805   -0.1793    5.1958 C   0  0  0  0  0  0  0  0  0  0  0  0
    3.8565   -0.4428    5.4521 C   0  0  0  0  0  0  0  0  0  0  0  0
    4.7248    0.3360    5.0627 O   0  0  0  0  0  0  0  0  0  0  0  0
    4.1585   -1.7009    6.2647 C   0  0  2  0  0  0  0  0  0  0  0  0
    5.6663   -1.9501    6.5326 C   0  0  0  0  0  0  0  0  0  0  0  0
    5.9407   -3.2724    6.0749 O   0  0  0  0  0  0  0  0  0  0  0  0
    4.9803   -3.5784    5.0838 C   0  0  1  0  0  0  0  0  0  0  0  0
    4.8560   -5.0519    4.7855 C   0  0  0  0  0  0  0  0  0  0  0  0
    3.6943   -5.5991    4.3737 C   0  0  0  0  0  0  0  0  0  0  0  0
    3.5990   -7.0494    4.2753 C   0  0  0  0  0  0  0  0  0  0  0  0
    2.4042   -7.6783    4.1755 C   0  0  0  0  0  0  0  0  0  0  0  0
    2.2367   -9.0388    4.0680 O   0  0  0  0  0  0  0  0  0  0  0  0
    3.3872   -9.8670    4.0085 C   0  0  0  0  0  0  0  0  0  0  0  0
    1.0619   -6.9384    4.1936 C   0  0  1  0  0  0  0  0  0  0  0  0
    0.1276   -7.5202    5.1026 O   0  0  0  0  0  0  0  0  0  0  0  0
   -0.6584   -8.5920    4.5890 C   0  0  0  0  0  0  0  0  0  0  0  0
    1.2115   -5.4507    4.6020 C   0  0  0  0  0  0  0  0  0  0  0  0
    2.4635   -4.7342    4.0191 C   0  0  2  0  0  0  0  0  0  0  0  0
    2.3504   -4.8002    2.4651 C   0  0  0  0  0  0  0  0  0  0  0  0
    2.5278   -3.2295    4.6039 C   0  0  1  0  0  0  0  0  0  0  0  0
    3.6752   -3.0594    5.6862 C   0  0  2  0  0  0  0  0  0  0  0  0
    3.2567   -3.8519    6.9681 C   0  0  0  0  0  0  0  0  0  0  0  0
    1.3524    1.8536    2.7181 H   0  0  0  0  0  0  0  0  0  0  0  0
    2.6085    1.7220    1.3730 H   0  0  0  0  0  0  0  0  0  0  0  0
    1.5788   -2.4772    2.8327 H   0  0  0  0  0  0  0  0  0  0  0  0
    0.8304   -0.6511    3.7822 H   0  0  0  0  0  0  0  0  0  0  0  0
    2.1845    0.8899    5.2741 H   0  0  0  0  0  0  0  0  0  0  0  0
    1.8057   -0.6611    5.9862 H   0  0  0  0  0  0  0  0  0  0  0  0
    3.6743   -1.5195    7.2239 H   0  0  0  0  0  0  0  0  0  0  0  0
    6.3286   -1.2444    6.0324 H   0  0  0  0  0  0  0  0  0  0  0  0
    5.8925   -1.8904    7.5971 H   0  0  0  0  0  0  0  0  0  0  0  0
    5.2565   -3.0480    4.1723 H   0  0  0  0  0  0  0  0  0  0  0  0
    5.7156   -5.6642    5.0122 H   0  0  0  0  0  0  0  0  0  0  0  0
    4.5193   -7.6139    4.2757 H   0  0  0  0  0  0  0  0  0  0  0  0
    3.0607  -10.9037    3.9293 H   0  0  0  0  0  0  0  0  0  0  0  0
    3.9962   -9.7838    4.9086 H   0  0  0  0  0  0  0  0  0  0  0  0
    3.9915   -9.6442    3.1295 H   0  0  0  0  0  0  0  0  0  0  0  0
    0.6554   -6.9783    3.1809 H   0  0  0  0  0  0  0  0  0  0  0  0
   -1.2936   -8.9782    5.3851 H   0  0  0  0  0  0  0  0  0  0  0  0
   -0.0729   -9.4332    4.2226 H   0  0  0  0  0  0  0  0  0  0  0  0
   -1.3053   -8.2502    3.7809 H   0  0  0  0  0  0  0  0  0  0  0  0
    0.3052   -4.9129    4.3240 H   0  0  0  0  0  0  0  0  0  0  0  0
    1.2503   -5.4079    5.6885 H   0  0  0  0  0  0  0  0  0  0  0  0
    1.4171   -4.3810    2.0963 H   0  0  0  0  0  0  0  0  0  0  0  0
    2.3822   -5.8224    2.0888 H   0  0  0  0  0  0  0  0  0  0  0  0
    3.1819   -4.3031    1.9667 H   0  0  0  0  0  0  0  0  0  0  0  0
    1.6031   -3.0932    5.1666 H   0  0  0  0  0  0  0  0  0  0  0  0
    3.0894   -4.9133    6.8014 H   0  0  0  0  0  0  0  0  0  0  0  0
    2.3356   -3.4445    7.3873 H   0  0  0  0  0  0  0  0  0  0  0  0
    4.0160   -3.7935    7.7495 H   0  0  0  0  0  0  0  0  0  0  0  0
  1  2  2  0
  1 30  1  0
  1 31  1  0
  2  7  1  0
  2  3  1  0
  3  4  2  0
  3  5  1  0
  5  6  1  0
  6 27  1  0
  6  7  1  0
  6 32  1  6
  7  8  1  0
  7 33  1  1
  8  9  1  0
  8 34  1  0
  8 35  1  0
  9 10  2  0
  9 11  1  0
 11 28  1  0
 11 12  1  0
 11 36  1  1
 12 13  1  0
 12 37  1  0
 12 38  1  0
 13 14  1  0
 14 28  1  0
 14 15  1  0
 14 39  1  6
 15 16  2  0
 15 40  1  0
 16 25  1  0
 16 17  1  0
 17 18  2  0
 17 41  1  0
 18 19  1  0
 18 21  1  0
 19 20  1  0
 20 42  1  0
 20 43  1  0
 20 44  1  0
 21 22  1  0
 21 24  1  0
 21 45  1  6
 22 23  1  0
 23 46  1  0
 23 47  1  0
 23 48  1  0
 24 25  1  0
 24 49  1  0
 24 50  1  0
 25 26  1  6
 25 27  1  0
 26 51  1  0
 26 52  1  0
 26 53  1  0
 27 28  1  0
 27 54  1  1
 28 29  1  1
 29 55  1  0
 29 56  1  0
 29 57  1  0
M  END
>  <i_m_ct_stereo_status>  (89) 
1

>  <s_m_source_file>  (89) 
/var/tmp/pbs.5076255.sched01/tmpgr0kyu9k/0plolsrat.sdf

>  <i_m_source_file_index>  (89) 
39

>  <i_lp_mmshare_version>  (89) 
48012

>  <i_f3d_flags>  (89) 
0

>  <s_epik_input>  (89) 
W0NIMl09QzFDKD1PKU9bQ0BASF0oW0NAQEhdMjMpW0NASF0xW0NIMl1DKD1PKVtDQEhdKFtDSDJdTzQpW0NAXTMoW0NIM10pW0NAQEhdNFtDSF09QyhbQ0BdMjVbQ0gzXSlbQ0hdPUMoT1tDSDNdKVtDQEhdKFtDSDJdNSlPW0NIM10=

>  <s_epik_cmdline>  (89) 
J2VwaWtfcHl0aG9uJywgJy1waHQnLCAnMi4wJywgJy1waCcsICc3LjAnLCAnLXRuJywgJzgnLCAnLW1hJywgJzIwMCcsICctaW1hZScsICc8aW5maWxlLm1hZT4nLCAnLW9tYWUnLCAnPG91dGZpbGUubWFlPic=

>  <r_lp_tautomer_probability>  (89) 
1

>  <r_epik_Ionization_Penalty>  (89) 
1.18226e-11

>  <r_epik_Ionization_Penalty_Charging>  (89) 
0

>  <r_epik_Ionization_Penalty_Neutral>  (89) 
1.18226e-11

>  <r_epik_State_Penalty>  (89) 
-0

>  <r_epik_Charging_Adjusted_Penalty>  (89) 
0

>  <i_epik_Tot_Q>  (89) 
0

>  <i_epik_Tot_abs_Q>  (89) 
0

>  <s_epik_Chemistry_Notes>  (89) 
This compound has an ester and may undergo hydrolysis at high or low pH.

>  <s_lp_Force_Field>  (89) 
OPLS3e

>  <r_lp_Energy>  (89) 
41.175

>  <b_lp_Chiralities_Consistent>  (89) 
1

>  <s_lp_Variant>  (89) 
27:0-1

>  <s_i_glide_gridfile>  (89) 
pfpi4k_grid

>  <i_i_glide_lignum>  (89) 
39

>  <i_i_glide_rotatable_bonds>  (89) 
2

>  <r_i_docking_score>  (89) 
-1.77241

>  <r_i_glide_ligand_efficiency>  (89) 
-0.0611177

>  <r_i_glide_ligand_efficiency_sa>  (89) 
-0.187773

>  <r_i_glide_ligand_efficiency_ln>  (89) 
-0.405837

>  <r_i_glide_gscore>  (89) 
-1.77241

>  <r_i_glide_lipo>  (89) 
-0.0592312

>  <r_i_glide_hbond>  (89) 
0

>  <r_i_glide_metal>  (89) 
-0

>  <r_i_glide_rewards>  (89) 
-0.678649

>  <r_i_glide_evdw>  (89) 
-17.1918

>  <r_i_glide_ecoul>  (89) 
-1.13656

>  <r_i_glide_erotb>  (89) 
0

>  <r_i_glide_esite>  (89) 
-0.00445755

>  <r_i_glide_emodel>  (89) 
-20.8701

>  <r_i_glide_energy>  (89) 
-18.3284

>  <r_i_glide_einternal>  (89) 
0.0276781

>  <r_i_glide_intrahb_reward>  (89) 
-0

>  <i_i_glide_confnum>  (89) 
1

>  <i_i_glide_posenum>  (89) 
11

>  <r_i_glide_eff_state_penalty>  (89) 
0

>  <ligand_id>  (89) 
27

>  <original_smiles>  (89) 
C=C1C(=O)OC2C1CC(=O)C1COC3C=C4C=C(OC)C(OC)CC4(C)C2C31C

>  <smiles>  (89) 
[H]C([H])=C1C(=O)OC2([H])C1([H])C([H])([H])C(=O)C1([H])C([H])([H])OC3([H])C([H])=C4C([H])=C(OC([H])([H])[H])C([H])(OC([H])([H])[H])C([H])([H])C4(C([H])([H])[H])C2([H])C31C([H])([H])[H]

$$$$
28:0:0
     RDKit          3D

 24 24  0  0  1  0  0  0  0  0999 V2000
   -0.7294   -1.3134    5.0911 C   0  0  0  0  0  0  0  0  0  0  0  0
   -1.1566    0.0767    5.5624 C   0  0  0  0  0  0  0  0  0  0  0  0
   -2.0043    0.1463    6.4569 O   0  0  0  0  0  0  0  0  0  0  0  0
   -0.4875    1.2515    4.9499 C   0  0  0  0  0  0  0  0  0  0  0  0
    0.0335    1.1391    3.6408 C   0  0  0  0  0  0  0  0  0  0  0  0
    0.6466    2.2421    3.0220 C   0  0  0  0  0  0  0  0  0  0  0  0
    1.0867    2.1442    1.7426 O   0  0  0  0  0  0  0  0  0  0  0  0
    0.7558    3.4718    3.6901 C   0  0  0  0  0  0  0  0  0  0  0  0
    0.2462    3.5986    4.9899 C   0  0  0  0  0  0  0  0  0  0  0  0
   -0.4010    2.5123    5.6126 C   0  0  0  0  0  0  0  0  0  0  0  0
   -0.8422    2.7088    6.8958 O   0  0  0  0  0  0  0  0  0  0  0  0
   -2.1318    3.0805    7.1053 C   0  0  0  0  0  0  0  0  0  0  0  0
   -2.9771    3.2833    6.2327 O   0  0  0  0  0  0  0  0  0  0  0  0
   -2.4469    3.2565    8.5950 C   0  0  0  0  0  0  0  0  0  0  0  0
   -4.2068    3.3511    8.8983 Cl  0  0  0  0  0  0  0  0  0  0  0  0
   -1.7213    1.9736    9.6048 Cl  0  0  0  0  0  0  0  0  0  0  0  0
    0.3613   -1.3928    5.0353 H   0  0  0  0  0  0  0  0  0  0  0  0
   -1.1454   -1.5277    4.1059 H   0  0  0  0  0  0  0  0  0  0  0  0
   -1.0906   -2.0808    5.7745 H   0  0  0  0  0  0  0  0  0  0  0  0
   -0.0545    0.2211    3.0752 H   0  0  0  0  0  0  0  0  0  0  0  0
    0.8688    2.9723    1.2847 H   0  0  0  0  0  0  0  0  0  0  0  0
    1.2248    4.3173    3.2065 H   0  0  0  0  0  0  0  0  0  0  0  0
    0.3515    4.5346    5.5255 H   0  0  0  0  0  0  0  0  0  0  0  0
   -2.0124    4.1973    8.9309 H   0  0  0  0  0  0  0  0  0  0  0  0
  1  2  1  0
  1 17  1  0
  1 18  1  0
  1 19  1  0
  2  3  2  0
  2  4  1  0
  4 10  2  0
  4  5  1  0
  5  6  2  0
  5 20  1  0
  6  7  1  0
  6  8  1  0
  7 21  1  0
  8  9  2  0
  8 22  1  0
  9 10  1  0
  9 23  1  0
 10 11  1  0
 11 12  1  0
 12 13  2  0
 12 14  1  0
 14 15  1  0
 14 16  1  0
 14 24  1  0
M  END
>  <i_m_ct_stereo_status>  (90) 
1

>  <s_m_source_file>  (90) 
/var/tmp/pbs.5076255.sched01/tmpgr0kyu9k/0plolsrat.sdf

>  <i_m_source_file_index>  (90) 
40

>  <i_lp_mmshare_version>  (90) 
48012

>  <i_f3d_flags>  (90) 
0

>  <s_epik_input>  (90) 
W0NIM11DKD1PKWMxW2NIXWMoW09IXSlbY0hdW2NIXWMxT0MoPU8pW0NIXShDbClDbA==

>  <s_epik_cmdline>  (90) 
J2VwaWtfcHl0aG9uJywgJy1waHQnLCAnMi4wJywgJy1waCcsICc3LjAnLCAnLXRuJywgJzgnLCAnLW1hJywgJzIwMCcsICctaW1hZScsICc8aW5maWxlLm1hZT4nLCAnLW9tYWUnLCAnPG91dGZpbGUubWFlPic=

>  <r_lp_tautomer_probability>  (90) 
0.99995

>  <r_epik_Ionization_Penalty>  (90) 
0.234707

>  <r_epik_Ionization_Penalty_Charging>  (90) 
0

>  <r_epik_Ionization_Penalty_Neutral>  (90) 
0.234707

>  <r_epik_State_Penalty>  (90) 
0.225481

>  <r_epik_Charging_Adjusted_Penalty>  (90) 
0.225481

>  <i_epik_Tot_Q>  (90) 
0

>  <i_epik_Tot_abs_Q>  (90) 
0

>  <s_lp_Force_Field>  (90) 
OPLS3e

>  <r_lp_Energy>  (90) 
15.6979

>  <b_lp_Chiralities_Consistent>  (90) 
1

>  <s_lp_Variant>  (90) 
28:0-1

>  <s_i_glide_gridfile>  (90) 
pfpi4k_grid

>  <i_i_glide_lignum>  (90) 
40

>  <i_i_glide_rotatable_bonds>  (90) 
5

>  <r_i_docking_score>  (90) 
-3.71813

>  <r_i_glide_ligand_efficiency>  (90) 
-0.232383

>  <r_i_glide_ligand_efficiency_sa>  (90) 
-0.585569

>  <r_i_glide_ligand_efficiency_ln>  (90) 
-0.985564

>  <r_i_glide_gscore>  (90) 
-3.71813

>  <r_i_glide_lipo>  (90) 
-0.0438844

>  <r_i_glide_hbond>  (90) 
-0.32

>  <r_i_glide_metal>  (90) 
-0

>  <r_i_glide_rewards>  (90) 
-1.72673

>  <r_i_glide_evdw>  (90) 
-14.9402

>  <r_i_glide_ecoul>  (90) 
-9.00207

>  <r_i_glide_erotb>  (90) 
0.513008

>  <r_i_glide_esite>  (90) 
-0.0431985

>  <r_i_glide_emodel>  (90) 
-29.2086

>  <r_i_glide_energy>  (90) 
-23.9423

>  <r_i_glide_einternal>  (90) 
2.7569

>  <r_i_glide_intrahb_reward>  (90) 
-0

>  <i_i_glide_confnum>  (90) 
3

>  <i_i_glide_posenum>  (90) 
11

>  <r_i_glide_eff_state_penalty>  (90) 
0

>  <ligand_id>  (90) 
28

>  <original_smiles>  (90) 
CC(=O)c1cc(O)ccc1OC(=O)C(Cl)Cl

>  <smiles>  (90) 
[H]Oc1c([H])c([H])c(OC(=O)C([H])(Cl)Cl)c(C(=O)C([H])([H])[H])c1[H]

$$$$
28:0:1
     RDKit          3D

 24 24  0  0  1  0  0  0  0  0999 V2000
   -3.2708    2.9881    2.7265 C   0  0  0  0  0  0  0  0  0  0  0  0
   -1.9771    3.3550    3.4389 C   0  0  0  0  0  0  0  0  0  0  0  0
   -1.7884    4.5271    3.7718 O   0  0  0  0  0  0  0  0  0  0  0  0
   -1.0686    2.2333    3.7827 C   0  0  0  0  0  0  0  0  0  0  0  0
   -0.5598    1.4117    2.7506 C   0  0  0  0  0  0  0  0  0  0  0  0
    0.3535    0.3816    3.0479 C   0  0  0  0  0  0  0  0  0  0  0  0
    0.8807   -0.4031    2.0645 O   0  0  0  0  0  0  0  0  0  0  0  0
    0.7519    0.1527    4.3751 C   0  0  0  0  0  0  0  0  0  0  0  0
    0.2585    0.9663    5.4089 C   0  0  0  0  0  0  0  0  0  0  0  0
   -0.6577    2.0041    5.1229 C   0  0  0  0  0  0  0  0  0  0  0  0
   -1.1131    2.7919    6.1519 O   0  0  0  0  0  0  0  0  0  0  0  0
   -1.8976    2.2554    7.1122 C   0  0  0  0  0  0  0  0  0  0  0  0
   -2.3697    1.1144    7.0894 O   0  0  0  0  0  0  0  0  0  0  0  0
   -2.1075    3.1773    8.3240 C   0  0  0  0  0  0  0  0  0  0  0  0
   -1.5983    4.8680    8.0522 Cl  0  0  0  0  0  0  0  0  0  0  0  0
   -3.8006    3.1401    8.8894 Cl  0  0  0  0  0  0  0  0  0  0  0  0
   -3.7411    2.1588    3.2515 H   0  0  0  0  0  0  0  0  0  0  0  0
   -3.0866    2.7084    1.6908 H   0  0  0  0  0  0  0  0  0  0  0  0
   -3.9645    3.8293    2.7394 H   0  0  0  0  0  0  0  0  0  0  0  0
   -0.8472    1.6036    1.7275 H   0  0  0  0  0  0  0  0  0  0  0  0
    0.6448   -0.1730    1.1707 H   0  0  0  0  0  0  0  0  0  0  0  0
    1.4495   -0.6401    4.6036 H   0  0  0  0  0  0  0  0  0  0  0  0
    0.5898    0.7954    6.4229 H   0  0  0  0  0  0  0  0  0  0  0  0
   -1.4954    2.7944    9.1379 H   0  0  0  0  0  0  0  0  0  0  0  0
  1  2  1  0
  1 17  1  0
  1 18  1  0
  1 19  1  0
  2  3  2  0
  2  4  1  0
  4 10  2  0
  4  5  1  0
  5  6  2  0
  5 20  1  0
  6  7  1  0
  6  8  1  0
  7 21  1  0
  8  9  2  0
  8 22  1  0
  9 10  1  0
  9 23  1  0
 10 11  1  0
 11 12  1  0
 12 13  2  0
 12 14  1  0
 14 15  1  0
 14 16  1  0
 14 24  1  0
M  END
>  <i_m_ct_stereo_status>  (91) 
1

>  <s_m_source_file>  (91) 
/var/tmp/pbs.5076255.sched01/tmpgr0kyu9k/0plolsrat.sdf

>  <i_m_source_file_index>  (91) 
40

>  <i_lp_mmshare_version>  (91) 
48012

>  <i_f3d_flags>  (91) 
0

>  <s_epik_input>  (91) 
W0NIM11DKD1PKWMxW2NIXWMoW09IXSlbY0hdW2NIXWMxT0MoPU8pW0NIXShDbClDbA==

>  <s_epik_cmdline>  (91) 
J2VwaWtfcHl0aG9uJywgJy1waHQnLCAnMi4wJywgJy1waCcsICc3LjAnLCAnLXRuJywgJzgnLCAnLW1hJywgJzIwMCcsICctaW1hZScsICc8aW5maWxlLm1hZT4nLCAnLW9tYWUnLCAnPG91dGZpbGUubWFlPic=

>  <r_lp_tautomer_probability>  (91) 
0.99995

>  <r_epik_Ionization_Penalty>  (91) 
0.234707

>  <r_epik_Ionization_Penalty_Charging>  (91) 
0

>  <r_epik_Ionization_Penalty_Neutral>  (91) 
0.234707

>  <r_epik_State_Penalty>  (91) 
0.225481

>  <r_epik_Charging_Adjusted_Penalty>  (91) 
0.225481

>  <i_epik_Tot_Q>  (91) 
0

>  <i_epik_Tot_abs_Q>  (91) 
0

>  <s_lp_Force_Field>  (91) 
OPLS3e

>  <r_lp_Energy>  (91) 
15.6979

>  <b_lp_Chiralities_Consistent>  (91) 
1

>  <s_lp_Variant>  (91) 
28:0-1

>  <s_i_glide_gridfile>  (91) 
pfpi4k_grid

>  <i_i_glide_lignum>  (91) 
40

>  <i_i_glide_rotatable_bonds>  (91) 
5

>  <r_i_docking_score>  (91) 
-3.55155

>  <r_i_glide_ligand_efficiency>  (91) 
-0.221972

>  <r_i_glide_ligand_efficiency_sa>  (91) 
-0.559335

>  <r_i_glide_ligand_efficiency_ln>  (91) 
-0.94141

>  <r_i_glide_gscore>  (91) 
-3.55155

>  <r_i_glide_lipo>  (91) 
-0.00715119

>  <r_i_glide_hbond>  (91) 
-0.434344

>  <r_i_glide_metal>  (91) 
-0

>  <r_i_glide_rewards>  (91) 
-1.61541

>  <r_i_glide_evdw>  (91) 
-17.8804

>  <r_i_glide_ecoul>  (91) 
-6.97407

>  <r_i_glide_erotb>  (91) 
0.513008

>  <r_i_glide_esite>  (91) 
-0.0675299

>  <r_i_glide_emodel>  (91) 
-28.611

>  <r_i_glide_energy>  (91) 
-24.8544

>  <r_i_glide_einternal>  (91) 
5.6884

>  <r_i_glide_intrahb_reward>  (91) 
-0

>  <i_i_glide_confnum>  (91) 
5

>  <i_i_glide_posenum>  (91) 
1

>  <r_i_glide_eff_state_penalty>  (91) 
0

>  <ligand_id>  (91) 
28

>  <original_smiles>  (91) 
CC(=O)c1cc(O)ccc1OC(=O)C(Cl)Cl

>  <smiles>  (91) 
[H]Oc1c([H])c([H])c(OC(=O)C([H])(Cl)Cl)c(C(=O)C([H])([H])[H])c1[H]

$$$$
28:0:2
     RDKit          3D

 24 24  0  0  1  0  0  0  0  0999 V2000
    1.5901    0.2379    6.9839 C   0  0  0  0  0  0  0  0  0  0  0  0
    0.1577    0.7695    7.0154 C   0  0  0  0  0  0  0  0  0  0  0  0
   -0.5853    0.4034    7.9273 O   0  0  0  0  0  0  0  0  0  0  0  0
   -0.2542    1.6941    5.9143 C   0  0  0  0  0  0  0  0  0  0  0  0
    0.4623    1.6932    4.6896 C   0  0  0  0  0  0  0  0  0  0  0  0
    0.0877    2.5434    3.6308 C   0  0  0  0  0  0  0  0  0  0  0  0
    0.8153    2.5436    2.4806 O   0  0  0  0  0  0  0  0  0  0  0  0
   -1.0283    3.3945    3.7649 C   0  0  0  0  0  0  0  0  0  0  0  0
   -1.7652    3.3879    4.9662 C   0  0  0  0  0  0  0  0  0  0  0  0
   -1.3817    2.5559    6.0472 C   0  0  0  0  0  0  0  0  0  0  0  0
   -2.1189    2.5794    7.2074 O   0  0  0  0  0  0  0  0  0  0  0  0
   -2.0288    3.6473    8.0306 C   0  0  0  0  0  0  0  0  0  0  0  0
   -1.3626    4.6610    7.8180 O   0  0  0  0  0  0  0  0  0  0  0  0
   -2.8580    3.4720    9.2998 C   0  0  0  0  0  0  0  0  0  0  0  0
   -2.5814    4.7774   10.4807 Cl  0  0  0  0  0  0  0  0  0  0  0  0
   -4.5838    3.3433    8.9087 Cl  0  0  0  0  0  0  0  0  0  0  0  0
    2.2969    1.0456    6.7871 H   0  0  0  0  0  0  0  0  0  0  0  0
    1.7025   -0.5264    6.2147 H   0  0  0  0  0  0  0  0  0  0  0  0
    1.8479   -0.2184    7.9401 H   0  0  0  0  0  0  0  0  0  0  0  0
    1.3181    1.0471    4.5428 H   0  0  0  0  0  0  0  0  0  0  0  0
    0.5412    3.1985    1.8326 H   0  0  0  0  0  0  0  0  0  0  0  0
   -1.3087    4.0449    2.9486 H   0  0  0  0  0  0  0  0  0  0  0  0
   -2.6157    4.0423    5.0718 H   0  0  0  0  0  0  0  0  0  0  0  0
   -2.5674    2.5404    9.7826 H   0  0  0  0  0  0  0  0  0  0  0  0
  1  2  1  0
  1 17  1  0
  1 18  1  0
  1 19  1  0
  2  3  2  0
  2  4  1  0
  4 10  2  0
  4  5  1  0
  5  6  2  0
  5 20  1  0
  6  7  1  0
  6  8  1  0
  7 21  1  0
  8  9  2  0
  8 22  1  0
  9 10  1  0
  9 23  1  0
 10 11  1  0
 11 12  1  0
 12 13  2  0
 12 14  1  0
 14 15  1  0
 14 16  1  0
 14 24  1  0
M  END
>  <i_m_ct_stereo_status>  (92) 
1

>  <s_m_source_file>  (92) 
/var/tmp/pbs.5076255.sched01/tmpgr0kyu9k/0plolsrat.sdf

>  <i_m_source_file_index>  (92) 
40

>  <i_lp_mmshare_version>  (92) 
48012

>  <i_f3d_flags>  (92) 
0

>  <s_epik_input>  (92) 
W0NIM11DKD1PKWMxW2NIXWMoW09IXSlbY0hdW2NIXWMxT0MoPU8pW0NIXShDbClDbA==

>  <s_epik_cmdline>  (92) 
J2VwaWtfcHl0aG9uJywgJy1waHQnLCAnMi4wJywgJy1waCcsICc3LjAnLCAnLXRuJywgJzgnLCAnLW1hJywgJzIwMCcsICctaW1hZScsICc8aW5maWxlLm1hZT4nLCAnLW9tYWUnLCAnPG91dGZpbGUubWFlPic=

>  <r_lp_tautomer_probability>  (92) 
0.99995

>  <r_epik_Ionization_Penalty>  (92) 
0.234707

>  <r_epik_Ionization_Penalty_Charging>  (92) 
0

>  <r_epik_Ionization_Penalty_Neutral>  (92) 
0.234707

>  <r_epik_State_Penalty>  (92) 
0.225481

>  <r_epik_Charging_Adjusted_Penalty>  (92) 
0.225481

>  <i_epik_Tot_Q>  (92) 
0

>  <i_epik_Tot_abs_Q>  (92) 
0

>  <s_lp_Force_Field>  (92) 
OPLS3e

>  <r_lp_Energy>  (92) 
15.6979

>  <b_lp_Chiralities_Consistent>  (92) 
1

>  <s_lp_Variant>  (92) 
28:0-1

>  <s_i_glide_gridfile>  (92) 
pfpi4k_grid

>  <i_i_glide_lignum>  (92) 
40

>  <i_i_glide_rotatable_bonds>  (92) 
5

>  <r_i_docking_score>  (92) 
-3.09831

>  <r_i_glide_ligand_efficiency>  (92) 
-0.193644

>  <r_i_glide_ligand_efficiency_sa>  (92) 
-0.487953

>  <r_i_glide_ligand_efficiency_ln>  (92) 
-0.821269

>  <r_i_glide_gscore>  (92) 
-3.09831

>  <r_i_glide_lipo>  (92) 
-0.0225989

>  <r_i_glide_hbond>  (92) 
-0.19196

>  <r_i_glide_metal>  (92) 
-0

>  <r_i_glide_rewards>  (92) 
-1.65145

>  <r_i_glide_evdw>  (92) 
-15.3731

>  <r_i_glide_ecoul>  (92) 
-6.41652

>  <r_i_glide_erotb>  (92) 
0.513008

>  <r_i_glide_esite>  (92) 
-0.0141721

>  <r_i_glide_emodel>  (92) 
-27.77

>  <r_i_glide_energy>  (92) 
-21.7896

>  <r_i_glide_einternal>  (92) 
0.314092

>  <r_i_glide_intrahb_reward>  (92) 
-0

>  <i_i_glide_confnum>  (92) 
1

>  <i_i_glide_posenum>  (92) 
2

>  <r_i_glide_eff_state_penalty>  (92) 
0

>  <ligand_id>  (92) 
28

>  <original_smiles>  (92) 
CC(=O)c1cc(O)ccc1OC(=O)C(Cl)Cl

>  <smiles>  (92) 
[H]Oc1c([H])c([H])c(OC(=O)C([H])(Cl)Cl)c(C(=O)C([H])([H])[H])c1[H]

$$$$
28:1:0
     RDKit          3D

 23 23  0  0  1  0  0  0  0  0999 V2000
   -3.0987    2.9562    2.5347 C   0  0  0  0  0  0  0  0  0  0  0  0
   -2.1164    3.8016    3.3371 C   0  0  0  0  0  0  0  0  0  0  0  0
   -1.8993    4.9461    2.9298 O   0  0  0  0  0  0  0  0  0  0  0  0
   -1.5465    3.2282    4.5999 C   0  0  0  0  0  0  0  0  0  0  0  0
   -1.9003    1.9088    4.9736 C   0  0  0  0  0  0  0  0  0  0  0  0
   -1.4293    1.3249    6.1646 C   0  0  0  0  0  0  0  0  0  0  0  0
   -1.8117    0.0593    6.4759 O   0  0  0  0  0  0  0  0  0  0  0  0
   -0.5704    2.0504    7.0082 C   0  0  0  0  0  0  0  0  0  0  0  0
   -0.2014    3.3653    6.6582 C   0  0  0  0  0  0  0  0  0  0  0  0
   -0.6642    3.9478    5.4494 C   0  0  0  0  0  0  0  0  0  0  0  0
   -0.2586    5.2190    5.1112 O   0  0  0  0  0  0  0  0  0  0  0  0
    1.0517    5.4887    4.9338 C   0  0  0  0  0  0  0  0  0  0  0  0
    1.9769    4.6947    5.1079 O   0  0  0  0  0  0  0  0  0  0  0  0
    1.3014    6.9112    4.4347 C   0  0  0  0  0  0  0  0  0  0  0  0
    0.2992    8.1029    5.3105 Cl  0  0  0  0  0  0  0  0  0  0  0  0
    3.0284    7.3683    4.5354 Cl  0  0  0  0  0  0  0  0  0  0  0  0
   -3.8709    2.5589    3.1862 H   0  0  0  0  0  0  0  0  0  0  0  0
   -2.5742    2.1370    2.0501 H   0  0  0  0  0  0  0  0  0  0  0  0
   -3.5920    3.5541    1.7694 H   0  0  0  0  0  0  0  0  0  0  0  0
   -2.5646    1.3092    4.3670 H   0  0  0  0  0  0  0  0  0  0  0  0
   -0.1835    1.5930    7.9064 H   0  0  0  0  0  0  0  0  0  0  0  0
    0.4702    3.9003    7.3061 H   0  0  0  0  0  0  0  0  0  0  0  0
    1.0169    6.9456    3.3822 H   0  0  0  0  0  0  0  0  0  0  0  0
  1  2  1  0
  1 17  1  0
  1 18  1  0
  1 19  1  0
  2  3  2  0
  2  4  1  0
  4 10  2  0
  4  5  1  0
  5  6  2  0
  5 20  1  0
  6  7  1  0
  6  8  1  0
  8  9  2  0
  8 21  1  0
  9 10  1  0
  9 22  1  0
 10 11  1  0
 11 12  1  0
 12 13  2  0
 12 14  1  0
 14 15  1  0
 14 16  1  0
 14 23  1  0
M  CHG  1   7  -1
M  END
>  <i_m_ct_stereo_status>  (93) 
1

>  <s_m_source_file>  (93) 
/var/tmp/pbs.5076255.sched01/tmpgr0kyu9k/0plolsrat.sdf

>  <i_m_source_file_index>  (93) 
41

>  <i_lp_mmshare_version>  (93) 
48012

>  <i_f3d_flags>  (93) 
0

>  <s_epik_input>  (93) 
W0NIM11DKD1PKWMxW2NIXWMoW09IXSlbY0hdW2NIXWMxT0MoPU8pW0NIXShDbClDbA==

>  <s_epik_cmdline>  (93) 
J2VwaWtfcHl0aG9uJywgJy1waHQnLCAnMi4wJywgJy1waCcsICc3LjAnLCAnLXRuJywgJzgnLCAnLW1hJywgJzIwMCcsICctaW1hZScsICc8aW5maWxlLm1hZT4nLCAnLW9tYWUnLCAnPG91dGZpbGUubWFlPic=

>  <r_lp_tautomer_probability>  (93) 
0.99995

>  <r_epik_Ionization_Penalty>  (93) 
0.662121

>  <r_epik_Ionization_Penalty_Charging>  (93) 
0.662121

>  <r_epik_Ionization_Penalty_Neutral>  (93) 
4.30196e-14

>  <r_epik_State_Penalty>  (93) 
0.681566

>  <r_epik_Charging_Adjusted_Penalty>  (93) 
1.34369

>  <i_epik_Tot_Q>  (93) 
-1

>  <i_epik_Tot_abs_Q>  (93) 
1

>  <s_lp_Force_Field>  (93) 
OPLS3e

>  <r_lp_Energy>  (93) 
18.3652

>  <b_lp_Chiralities_Consistent>  (93) 
1

>  <s_lp_Variant>  (93) 
28:0-2

>  <s_i_glide_gridfile>  (93) 
pfpi4k_grid

>  <i_i_glide_lignum>  (93) 
41

>  <i_i_glide_rotatable_bonds>  (93) 
4

>  <r_i_docking_score>  (93) 
-3.35916

>  <r_i_glide_ligand_efficiency>  (93) 
-0.209947

>  <r_i_glide_ligand_efficiency_sa>  (93) 
-0.529034

>  <r_i_glide_ligand_efficiency_ln>  (93) 
-0.890411

>  <r_i_glide_gscore>  (93) 
-3.35916

>  <r_i_glide_lipo>  (93) 
-0.000576858

>  <r_i_glide_hbond>  (93) 
-0.36

>  <r_i_glide_metal>  (93) 
-0

>  <r_i_glide_rewards>  (93) 
-1.62228

>  <r_i_glide_evdw>  (93) 
-14.2969

>  <r_i_glide_ecoul>  (93) 
-7.18133

>  <r_i_glide_erotb>  (93) 
0.516415

>  <r_i_glide_esite>  (93) 
-0.100671

>  <r_i_glide_emodel>  (93) 
-28.8397

>  <r_i_glide_energy>  (93) 
-21.4782

>  <r_i_glide_einternal>  (93) 
1.16371

>  <r_i_glide_intrahb_reward>  (93) 
-0

>  <i_i_glide_confnum>  (93) 
3

>  <i_i_glide_posenum>  (93) 
33

>  <r_i_glide_eff_state_penalty>  (93) 
0

>  <ligand_id>  (93) 
28

>  <original_smiles>  (93) 
CC(=O)c1cc(O)ccc1OC(=O)C(Cl)Cl

>  <smiles>  (93) 
[H]c1c([H])c(OC(=O)C([H])(Cl)Cl)c(C(=O)C([H])([H])[H])c([H])c1[O-]

$$$$
28:1:1
     RDKit          3D

 23 23  0  0  1  0  0  0  0  0999 V2000
   -3.1476    2.9694    2.7765 C   0  0  0  0  0  0  0  0  0  0  0  0
   -1.9992    3.6718    3.5023 C   0  0  0  0  0  0  0  0  0  0  0  0
   -1.8078    4.8622    3.2443 O   0  0  0  0  0  0  0  0  0  0  0  0
   -1.2270    2.8929    4.5240 C   0  0  0  0  0  0  0  0  0  0  0  0
   -1.6851    1.6184    4.9297 C   0  0  0  0  0  0  0  0  0  0  0  0
   -1.0034    0.8821    5.9125 C   0  0  0  0  0  0  0  0  0  0  0  0
   -1.4849   -0.3369    6.2820 O   0  0  0  0  0  0  0  0  0  0  0  0
    0.1645    1.3911    6.5007 C   0  0  0  0  0  0  0  0  0  0  0  0
    0.6375    2.6505    6.1077 C   0  0  0  0  0  0  0  0  0  0  0  0
   -0.0416    3.4063    5.1148 C   0  0  0  0  0  0  0  0  0  0  0  0
    0.4622    4.6287    4.7395 O   0  0  0  0  0  0  0  0  0  0  0  0
    1.6459    4.6930    4.0879 C   0  0  0  0  0  0  0  0  0  0  0  0
    2.3891    3.7400    3.8530 O   0  0  0  0  0  0  0  0  0  0  0  0
    1.9977    6.1121    3.6313 C   0  0  0  0  0  0  0  0  0  0  0  0
    1.8870    7.2799    4.9779 Cl  0  0  0  0  0  0  0  0  0  0  0  0
    3.6297    6.1778    2.8954 Cl  0  0  0  0  0  0  0  0  0  0  0  0
   -3.8158    2.4899    3.4889 H   0  0  0  0  0  0  0  0  0  0  0  0
   -2.7534    2.2192    2.0912 H   0  0  0  0  0  0  0  0  0  0  0  0
   -3.7478    3.6740    2.2064 H   0  0  0  0  0  0  0  0  0  0  0  0
   -2.5675    1.1688    4.5093 H   0  0  0  0  0  0  0  0  0  0  0  0
    0.7002    0.8086    7.2347 H   0  0  0  0  0  0  0  0  0  0  0  0
    1.5375    3.0382    6.5552 H   0  0  0  0  0  0  0  0  0  0  0  0
    1.2736    6.4140    2.8720 H   0  0  0  0  0  0  0  0  0  0  0  0
  1  2  1  0
  1 17  1  0
  1 18  1  0
  1 19  1  0
  2  3  2  0
  2  4  1  0
  4 10  2  0
  4  5  1  0
  5  6  2  0
  5 20  1  0
  6  7  1  0
  6  8  1  0
  8  9  2  0
  8 21  1  0
  9 10  1  0
  9 22  1  0
 10 11  1  0
 11 12  1  0
 12 13  2  0
 12 14  1  0
 14 15  1  0
 14 16  1  0
 14 23  1  0
M  CHG  1   7  -1
M  END
>  <i_m_ct_stereo_status>  (94) 
1

>  <s_m_source_file>  (94) 
/var/tmp/pbs.5076255.sched01/tmpgr0kyu9k/0plolsrat.sdf

>  <i_m_source_file_index>  (94) 
41

>  <i_lp_mmshare_version>  (94) 
48012

>  <i_f3d_flags>  (94) 
0

>  <s_epik_input>  (94) 
W0NIM11DKD1PKWMxW2NIXWMoW09IXSlbY0hdW2NIXWMxT0MoPU8pW0NIXShDbClDbA==

>  <s_epik_cmdline>  (94) 
J2VwaWtfcHl0aG9uJywgJy1waHQnLCAnMi4wJywgJy1waCcsICc3LjAnLCAnLXRuJywgJzgnLCAnLW1hJywgJzIwMCcsICctaW1hZScsICc8aW5maWxlLm1hZT4nLCAnLW9tYWUnLCAnPG91dGZpbGUubWFlPic=

>  <r_lp_tautomer_probability>  (94) 
0.99995

>  <r_epik_Ionization_Penalty>  (94) 
0.662121

>  <r_epik_Ionization_Penalty_Charging>  (94) 
0.662121

>  <r_epik_Ionization_Penalty_Neutral>  (94) 
4.30196e-14

>  <r_epik_State_Penalty>  (94) 
0.681566

>  <r_epik_Charging_Adjusted_Penalty>  (94) 
1.34369

>  <i_epik_Tot_Q>  (94) 
-1

>  <i_epik_Tot_abs_Q>  (94) 
1

>  <s_lp_Force_Field>  (94) 
OPLS3e

>  <r_lp_Energy>  (94) 
18.3652

>  <b_lp_Chiralities_Consistent>  (94) 
1

>  <s_lp_Variant>  (94) 
28:0-2

>  <s_i_glide_gridfile>  (94) 
pfpi4k_grid

>  <i_i_glide_lignum>  (94) 
41

>  <i_i_glide_rotatable_bonds>  (94) 
4

>  <r_i_docking_score>  (94) 
-3.17408

>  <r_i_glide_ligand_efficiency>  (94) 
-0.19838

>  <r_i_glide_ligand_efficiency_sa>  (94) 
-0.499886

>  <r_i_glide_ligand_efficiency_ln>  (94) 
-0.841353

>  <r_i_glide_gscore>  (94) 
-3.17408

>  <r_i_glide_lipo>  (94) 
-0.0157963

>  <r_i_glide_hbond>  (94) 
-0.319084

>  <r_i_glide_metal>  (94) 
-0

>  <r_i_glide_rewards>  (94) 
-1.62228

>  <r_i_glide_evdw>  (94) 
-15.1549

>  <r_i_glide_ecoul>  (94) 
-5.79516

>  <r_i_glide_erotb>  (94) 
0.516415

>  <r_i_glide_esite>  (94) 
-0.106317

>  <r_i_glide_emodel>  (94) 
-27.8695

>  <r_i_glide_energy>  (94) 
-20.95

>  <r_i_glide_einternal>  (94) 
1.18548

>  <r_i_glide_intrahb_reward>  (94) 
-0

>  <i_i_glide_confnum>  (94) 
3

>  <i_i_glide_posenum>  (94) 
1

>  <r_i_glide_eff_state_penalty>  (94) 
0

>  <ligand_id>  (94) 
28

>  <original_smiles>  (94) 
CC(=O)c1cc(O)ccc1OC(=O)C(Cl)Cl

>  <smiles>  (94) 
[H]c1c([H])c(OC(=O)C([H])(Cl)Cl)c(C(=O)C([H])([H])[H])c([H])c1[O-]

$$$$
28:1:2
     RDKit          3D

 23 23  0  0  1  0  0  0  0  0999 V2000
   -2.6734    3.0258    2.7600 C   0  0  0  0  0  0  0  0  0  0  0  0
   -1.7655    3.6344    3.8267 C   0  0  0  0  0  0  0  0  0  0  0  0
   -1.4058    4.8036    3.6779 O   0  0  0  0  0  0  0  0  0  0  0  0
   -1.4268    2.7821    5.0148 C   0  0  0  0  0  0  0  0  0  0  0  0
   -1.7730    1.4099    5.0111 C   0  0  0  0  0  0  0  0  0  0  0  0
   -1.4705    0.5766    6.1071 C   0  0  0  0  0  0  0  0  0  0  0  0
   -1.7988   -0.7427    6.0673 O   0  0  0  0  0  0  0  0  0  0  0  0
   -0.8116    1.1093    7.2289 C   0  0  0  0  0  0  0  0  0  0  0  0
   -0.4572    2.4671    7.2486 C   0  0  0  0  0  0  0  0  0  0  0  0
   -0.7416    3.3024    6.1450 C   0  0  0  0  0  0  0  0  0  0  0  0
   -0.3805    4.6241    6.2394 O   0  0  0  0  0  0  0  0  0  0  0  0
    0.9014    4.9784    5.9968 C   0  0  0  0  0  0  0  0  0  0  0  0
    1.8099    4.2293    5.6315 O   0  0  0  0  0  0  0  0  0  0  0  0
    1.1600    6.4585    6.2509 C   0  0  0  0  0  0  0  0  0  0  0  0
    0.0609    7.4847    5.2924 Cl  0  0  0  0  0  0  0  0  0  0  0  0
    0.9952    6.8333    7.9874 Cl  0  0  0  0  0  0  0  0  0  0  0  0
   -3.5416    2.5450    3.2102 H   0  0  0  0  0  0  0  0  0  0  0  0
   -2.1272    2.2876    2.1745 H   0  0  0  0  0  0  0  0  0  0  0  0
   -3.0348    3.7986    2.0823 H   0  0  0  0  0  0  0  0  0  0  0  0
   -2.2706    0.9582    4.1656 H   0  0  0  0  0  0  0  0  0  0  0  0
   -0.5634    0.4762    8.0652 H   0  0  0  0  0  0  0  0  0  0  0  0
    0.0502    2.8708    8.1122 H   0  0  0  0  0  0  0  0  0  0  0  0
    2.1824    6.6970    5.9514 H   0  0  0  0  0  0  0  0  0  0  0  0
  1  2  1  0
  1 17  1  0
  1 18  1  0
  1 19  1  0
  2  3  2  0
  2  4  1  0
  4 10  2  0
  4  5  1  0
  5  6  2  0
  5 20  1  0
  6  7  1  0
  6  8  1  0
  8  9  2  0
  8 21  1  0
  9 10  1  0
  9 22  1  0
 10 11  1  0
 11 12  1  0
 12 13  2  0
 12 14  1  0
 14 15  1  0
 14 16  1  0
 14 23  1  0
M  CHG  1   7  -1
M  END
>  <i_m_ct_stereo_status>  (95) 
1

>  <s_m_source_file>  (95) 
/var/tmp/pbs.5076255.sched01/tmpgr0kyu9k/0plolsrat.sdf

>  <i_m_source_file_index>  (95) 
41

>  <i_lp_mmshare_version>  (95) 
48012

>  <i_f3d_flags>  (95) 
0

>  <s_epik_input>  (95) 
W0NIM11DKD1PKWMxW2NIXWMoW09IXSlbY0hdW2NIXWMxT0MoPU8pW0NIXShDbClDbA==

>  <s_epik_cmdline>  (95) 
J2VwaWtfcHl0aG9uJywgJy1waHQnLCAnMi4wJywgJy1waCcsICc3LjAnLCAnLXRuJywgJzgnLCAnLW1hJywgJzIwMCcsICctaW1hZScsICc8aW5maWxlLm1hZT4nLCAnLW9tYWUnLCAnPG91dGZpbGUubWFlPic=

>  <r_lp_tautomer_probability>  (95) 
0.99995

>  <r_epik_Ionization_Penalty>  (95) 
0.662121

>  <r_epik_Ionization_Penalty_Charging>  (95) 
0.662121

>  <r_epik_Ionization_Penalty_Neutral>  (95) 
4.30196e-14

>  <r_epik_State_Penalty>  (95) 
0.681566

>  <r_epik_Charging_Adjusted_Penalty>  (95) 
1.34369

>  <i_epik_Tot_Q>  (95) 
-1

>  <i_epik_Tot_abs_Q>  (95) 
1

>  <s_lp_Force_Field>  (95) 
OPLS3e

>  <r_lp_Energy>  (95) 
18.3652

>  <b_lp_Chiralities_Consistent>  (95) 
1

>  <s_lp_Variant>  (95) 
28:0-2

>  <s_i_glide_gridfile>  (95) 
pfpi4k_grid

>  <i_i_glide_lignum>  (95) 
41

>  <i_i_glide_rotatable_bonds>  (95) 
4

>  <r_i_docking_score>  (95) 
-2.90583

>  <r_i_glide_ligand_efficiency>  (95) 
-0.181614

>  <r_i_glide_ligand_efficiency_sa>  (95) 
-0.45764

>  <r_i_glide_ligand_efficiency_ln>  (95) 
-0.770248

>  <r_i_glide_gscore>  (95) 
-2.90583

>  <r_i_glide_lipo>  (95) 
0

>  <r_i_glide_hbond>  (95) 
-0.283351

>  <r_i_glide_metal>  (95) 
-0

>  <r_i_glide_rewards>  (95) 
-1.62228

>  <r_i_glide_evdw>  (95) 
-12.378

>  <r_i_glide_ecoul>  (95) 
-5.5517

>  <r_i_glide_erotb>  (95) 
0.516415

>  <r_i_glide_esite>  (95) 
-0.0649601

>  <r_i_glide_emodel>  (95) 
-24.7588

>  <r_i_glide_energy>  (95) 
-17.9297

>  <r_i_glide_einternal>  (95) 
0.244284

>  <r_i_glide_intrahb_reward>  (95) 
-0

>  <i_i_glide_confnum>  (95) 
4

>  <i_i_glide_posenum>  (95) 
10

>  <r_i_glide_eff_state_penalty>  (95) 
0

>  <ligand_id>  (95) 
28

>  <original_smiles>  (95) 
CC(=O)c1cc(O)ccc1OC(=O)C(Cl)Cl

>  <smiles>  (95) 
[H]c1c([H])c(OC(=O)C([H])(Cl)Cl)c(C(=O)C([H])([H])[H])c([H])c1[O-]

$$$$
29:0:0
     RDKit          3D

 54 60  0  0  1  0  0  0  0  0999 V2000
    0.3995   -8.9875    4.6280 C   0  0  0  0  0  0  0  0  0  0  0  0
    1.8669   -9.1586    4.1825 C   0  0  1  0  0  0  0  0  0  0  0  0
    1.9319   -9.3285    2.6464 C   0  0  0  0  0  0  0  0  0  0  0  0
    1.3569   -8.0657    1.9688 C   0  0  1  0  0  0  0  0  0  0  0  0
   -0.1224   -7.9113    2.4076 C   0  0  0  0  0  0  0  0  0  0  0  0
   -0.1984   -7.7389    3.9388 C   0  0  2  0  0  0  0  0  0  0  0  0
    0.6081   -6.4859    4.3540 C   0  0  0  0  0  0  0  0  0  0  0  0
    2.0879   -6.6532    3.9229 C   0  0  1  0  0  0  0  0  0  0  0  0
    2.6644   -7.9092    4.6224 C   0  0  0  0  0  0  0  0  0  0  0  0
    2.1848   -6.8131    2.3738 C   0  0  1  0  0  0  0  0  0  0  0  0
    3.6477   -6.8586    1.8609 C   0  0  0  0  0  0  0  0  0  0  0  0
    4.3337   -5.6310    2.1362 O   0  0  0  0  0  0  0  0  0  0  0  0
    3.6608   -4.4880    1.5785 C   0  0  2  0  0  0  0  0  0  0  0  0
    2.3187   -4.4347    2.0803 O   0  0  0  0  0  0  0  0  0  0  0  0
    1.6210   -5.7019    1.6741 O   0  0  0  0  0  0  0  0  0  0  0  0
    3.7268   -4.5373    0.0201 C   0  0  1  0  0  0  0  0  0  0  0  0
    3.0610   -3.2959   -0.5824 C   0  0  0  0  0  0  0  0  0  0  0  0
    3.8122   -2.0340   -0.1218 C   0  0  2  0  0  0  0  0  0  0  0  0
    5.2804   -2.1026   -0.5995 C   0  0  0  0  0  0  0  0  0  0  0  0
    5.9459   -3.3435    0.0311 C   0  0  2  0  0  0  0  0  0  0  0  0
    5.1993   -4.6105   -0.4297 C   0  0  0  0  0  0  0  0  0  0  0  0
    5.8901   -3.2559    1.5729 C   0  0  0  0  0  0  0  0  0  0  0  0
    4.4176   -3.1999    2.0422 C   0  0  1  0  0  0  0  0  0  0  0  0
    3.7647   -1.9457    1.4178 C   0  0  0  0  0  0  0  0  0  0  0  0
    0.3534   -8.8797    5.7132 H   0  0  0  0  0  0  0  0  0  0  0  0
   -0.1843   -9.8754    4.3831 H   0  0  0  0  0  0  0  0  0  0  0  0
    2.2852  -10.0489    4.6602 H   0  0  0  0  0  0  0  0  0  0  0  0
    2.9598   -9.5134    2.3307 H   0  0  0  0  0  0  0  0  0  0  0  0
    1.3670  -10.2122    2.3402 H   0  0  0  0  0  0  0  0  0  0  0  0
    1.3884   -8.1886    0.8882 H   0  0  0  0  0  0  0  0  0  0  0  0
   -0.5942   -7.0638    1.9120 H   0  0  0  0  0  0  0  0  0  0  0  0
   -0.6970   -8.7894    2.1057 H   0  0  0  0  0  0  0  0  0  0  0  0
   -1.2395   -7.6314    4.2506 H   0  0  0  0  0  0  0  0  0  0  0  0
    0.1765   -5.5913    3.9043 H   0  0  0  0  0  0  0  0  0  0  0  0
    0.5479   -6.3386    5.4352 H   0  0  0  0  0  0  0  0  0  0  0  0
    2.6447   -5.7753    4.2512 H   0  0  0  0  0  0  0  0  0  0  0  0
    2.6146   -7.7967    5.7055 H   0  0  0  0  0  0  0  0  0  0  0  0
    3.7212   -8.0484    4.3974 H   0  0  0  0  0  0  0  0  0  0  0  0
    4.2397   -7.6214    2.3468 H   0  0  0  0  0  0  0  0  0  0  0  0
    3.6745   -7.1004    0.7940 H   0  0  0  0  0  0  0  0  0  0  0  0
    3.1905   -5.3989   -0.3528 H   0  0  0  0  0  0  0  0  0  0  0  0
    3.0667   -3.3715   -1.6686 H   0  0  0  0  0  0  0  0  0  0  0  0
    2.0171   -3.2340   -0.2848 H   0  0  0  0  0  0  0  0  0  0  0  0
    3.3380   -1.1542   -0.5587 H   0  0  0  0  0  0  0  0  0  0  0  0
    5.3186   -2.1656   -1.6874 H   0  0  0  0  0  0  0  0  0  0  0  0
    5.8100   -1.1892   -0.3232 H   0  0  0  0  0  0  0  0  0  0  0  0
    6.9874   -3.3913   -0.2937 H   0  0  0  0  0  0  0  0  0  0  0  0
    5.6932   -5.4909   -0.0219 H   0  0  0  0  0  0  0  0  0  0  0  0
    5.2497   -4.7065   -1.5104 H   0  0  0  0  0  0  0  0  0  0  0  0
    6.4016   -4.1176    2.0078 H   0  0  0  0  0  0  0  0  0  0  0  0
    6.4338   -2.3739    1.9120 H   0  0  0  0  0  0  0  0  0  0  0  0
    4.3848   -3.1189    3.1328 H   0  0  0  0  0  0  0  0  0  0  0  0
    4.2840   -1.0439    1.7429 H   0  0  0  0  0  0  0  0  0  0  0  0
    2.7287   -1.8386    1.7441 H   0  0  0  0  0  0  0  0  0  0  0  0
  1  6  1  0
  1  2  1  0
  1 25  1  0
  1 26  1  0
  2  9  1  0
  2  3  1  0
  2 27  1  1
  3  4  1  0
  3 28  1  0
  3 29  1  0
  4 10  1  0
  4  5  1  0
  4 30  1  6
  5  6  1  0
  5 31  1  0
  5 32  1  0
  6  7  1  0
  6 33  1  1
  7  8  1  0
  7 34  1  0
  7 35  1  0
  8  9  1  0
  8 10  1  0
  8 36  1  1
  9 37  1  0
  9 38  1  0
 10 15  1  6
 10 11  1  0
 11 12  1  0
 11 39  1  0
 11 40  1  0
 13 12  1  1
 13 23  1  0
 13 14  1  0
 13 16  1  0
 14 15  1  0
 16 21  1  0
 16 17  1  0
 16 41  1  6
 17 18  1  0
 17 42  1  0
 17 43  1  0
 18 24  1  0
 18 19  1  0
 18 44  1  6
 19 20  1  0
 19 45  1  0
 19 46  1  0
 20 21  1  0
 20 22  1  0
 20 47  1  1
 21 48  1  0
 21 49  1  0
 22 23  1  0
 22 50  1  0
 22 51  1  0
 23 24  1  0
 23 52  1  1
 24 53  1  0
 24 54  1  0
M  END
>  <i_m_ct_stereo_status>  (96) 
1

>  <s_m_source_file>  (96) 
/var/tmp/pbs.5076255.sched01/tmpgr0kyu9k/0plolsrat.sdf

>  <i_m_source_file_index>  (96) 
42

>  <i_lp_mmshare_version>  (96) 
48012

>  <i_f3d_flags>  (96) 
0

>  <s_epik_input>  (96) 
W0NIMl0xW0NASF0yW0NIMl1bQ0BIXShbQ0gyXTMpW0NIMl1bQ0BASF0xW0NIMl1bQ0BIXTNbQ0BdMjRbQ0gyXU9bQ0BdNShPTzQpW0NAQEhdNltDSDJdW0NASF03W0NIMl1bQ0BASF0oW0NIMl02KVtDSDJdW0NAQEhdNVtDSDJdNw==

>  <s_epik_cmdline>  (96) 
J2VwaWtfcHl0aG9uJywgJy1waHQnLCAnMi4wJywgJy1waCcsICc3LjAnLCAnLXRuJywgJzgnLCAnLW1hJywgJzIwMCcsICctaW1hZScsICc8aW5maWxlLm1hZT4nLCAnLW9tYWUnLCAnPG91dGZpbGUubWFlPic=

>  <r_lp_tautomer_probability>  (96) 
1

>  <r_epik_Ionization_Penalty>  (96) 
3.3942e-14

>  <r_epik_Ionization_Penalty_Charging>  (96) 
0

>  <r_epik_Ionization_Penalty_Neutral>  (96) 
3.3942e-14

>  <r_epik_State_Penalty>  (96) 
-0

>  <r_epik_Charging_Adjusted_Penalty>  (96) 
0

>  <i_epik_Tot_Q>  (96) 
0

>  <i_epik_Tot_abs_Q>  (96) 
0

>  <s_lp_Force_Field>  (96) 
OPLS3e

>  <r_lp_Energy>  (96) 
3.24238

>  <b_lp_Chiralities_Consistent>  (96) 
1

>  <s_lp_Variant>  (96) 
29:0-1

>  <s_i_glide_gridfile>  (96) 
pfpi4k_grid

>  <i_i_glide_lignum>  (96) 
42

>  <i_i_glide_rotatable_bonds>  (96) 
0

>  <r_i_docking_score>  (96) 
-2.91892

>  <r_i_glide_ligand_efficiency>  (96) 
-0.121622

>  <r_i_glide_ligand_efficiency_sa>  (96) 
-0.350818

>  <r_i_glide_ligand_efficiency_ln>  (96) 
-0.698632

>  <r_i_glide_gscore>  (96) 
-2.91892

>  <r_i_glide_lipo>  (96) 
-0.312924

>  <r_i_glide_hbond>  (96) 
-0.0630499

>  <r_i_glide_metal>  (96) 
-0

>  <r_i_glide_rewards>  (96) 
-1.16716

>  <r_i_glide_evdw>  (96) 
-25.2982

>  <r_i_glide_ecoul>  (96) 
-0.73918

>  <r_i_glide_erotb>  (96) 
0

>  <r_i_glide_esite>  (96) 
0

>  <r_i_glide_emodel>  (96) 
-30.8452

>  <r_i_glide_energy>  (96) 
-26.0373

>  <r_i_glide_einternal>  (96) 
0

>  <r_i_glide_intrahb_reward>  (96) 
-0

>  <i_i_glide_confnum>  (96) 
4

>  <i_i_glide_posenum>  (96) 
1

>  <r_i_glide_eff_state_penalty>  (96) 
0

>  <ligand_id>  (96) 
29

>  <original_smiles>  (96) 
C1C2CC3CC1CC(C2)C31COC2(OO1)C1CC3CC(C1)CC2C3

>  <smiles>  (96) 
[H]C1([H])OC2(OOC13C1([H])C([H])([H])C4([H])C([H])([H])C([H])(C1([H])[H])C([H])([H])C3([H])C4([H])[H])C1([H])C([H])([H])C3([H])C([H])([H])C([H])(C1([H])[H])C([H])([H])C2([H])C3([H])[H]

$$$$
29:0:1
     RDKit          3D

 54 60  0  0  1  0  0  0  0  0999 V2000
    5.1862   -1.3483   -1.0575 C   0  0  0  0  0  0  0  0  0  0  0  0
    5.8554   -2.7012   -1.3874 C   0  0  1  0  0  0  0  0  0  0  0  0
    6.8005   -3.1090   -0.2346 C   0  0  0  0  0  0  0  0  0  0  0  0
    5.9796   -3.2594    1.0677 C   0  0  1  0  0  0  0  0  0  0  0  0
    5.3410   -1.8870    1.3999 C   0  0  0  0  0  0  0  0  0  0  0  0
    4.3941   -1.4753    0.2548 C   0  0  2  0  0  0  0  0  0  0  0  0
    3.2930   -2.5476    0.0837 C   0  0  0  0  0  0  0  0  0  0  0  0
    3.9349   -3.9106   -0.2594 C   0  0  1  0  0  0  0  0  0  0  0  0
    4.7405   -3.7526   -1.5775 C   0  0  0  0  0  0  0  0  0  0  0  0
    4.8821   -4.3598    0.8901 C   0  0  1  0  0  0  0  0  0  0  0  0
    5.4640   -5.7906    0.6896 C   0  0  0  0  0  0  0  0  0  0  0  0
    4.4440   -6.7792    0.6698 O   0  0  0  0  0  0  0  0  0  0  0  0
    3.6465   -6.7585    1.8474 C   0  0  2  0  0  0  0  0  0  0  0  0
    3.0710   -5.4581    2.0197 O   0  0  0  0  0  0  0  0  0  0  0  0
    4.2130   -4.4646    2.1475 O   0  0  0  0  0  0  0  0  0  0  0  0
    4.5035   -7.2175    3.0797 C   0  0  1  0  0  0  0  0  0  0  0  0
    3.6404   -7.2608    4.3517 C   0  0  0  0  0  0  0  0  0  0  0  0
    2.4996   -8.2752    4.1643 C   0  0  2  0  0  0  0  0  0  0  0  0
    3.0861   -9.6736    3.8971 C   0  0  0  0  0  0  0  0  0  0  0  0
    3.9302   -9.6305    2.6093 C   0  0  2  0  0  0  0  0  0  0  0  0
    5.0854   -8.6287    2.7926 C   0  0  0  0  0  0  0  0  0  0  0  0
    3.0540   -9.1879    1.4160 C   0  0  0  0  0  0  0  0  0  0  0  0
    2.4799   -7.7716    1.6905 C   0  0  1  0  0  0  0  0  0  0  0  0
    1.6236   -7.8404    2.9732 C   0  0  0  0  0  0  0  0  0  0  0  0
    4.5252   -1.0517   -1.8747 H   0  0  0  0  0  0  0  0  0  0  0  0
    5.9293   -0.5589   -0.9554 H   0  0  0  0  0  0  0  0  0  0  0  0
    6.4311   -2.6145   -2.3074 H   0  0  0  0  0  0  0  0  0  0  0  0
    7.3188   -4.0354   -0.4791 H   0  0  0  0  0  0  0  0  0  0  0  0
    7.5783   -2.3587   -0.0966 H   0  0  0  0  0  0  0  0  0  0  0  0
    6.6363   -3.5434    1.8907 H   0  0  0  0  0  0  0  0  0  0  0  0
    4.7899   -1.9265    2.3367 H   0  0  0  0  0  0  0  0  0  0  0  0
    6.1129   -1.1367    1.5352 H   0  0  0  0  0  0  0  0  0  0  0  0
    3.9358   -0.5092    0.4845 H   0  0  0  0  0  0  0  0  0  0  0  0
    2.6893   -2.6124    0.9920 H   0  0  0  0  0  0  0  0  0  0  0  0
    2.6158   -2.2544   -0.7156 H   0  0  0  0  0  0  0  0  0  0  0  0
    3.1416   -4.6384   -0.4136 H   0  0  0  0  0  0  0  0  0  0  0  0
    4.0690   -3.4515   -2.3853 H   0  0  0  0  0  0  0  0  0  0  0  0
    5.1664   -4.6969   -1.9044 H   0  0  0  0  0  0  0  0  0  0  0  0
    5.9568   -5.8916   -0.2713 H   0  0  0  0  0  0  0  0  0  0  0  0
    6.2256   -6.0064    1.4426 H   0  0  0  0  0  0  0  0  0  0  0  0
    5.3253   -6.5285    3.2875 H   0  0  0  0  0  0  0  0  0  0  0  0
    4.2620   -7.5358    5.1970 H   0  0  0  0  0  0  0  0  0  0  0  0
    3.2378   -6.2718    4.5630 H   0  0  0  0  0  0  0  0  0  0  0  0
    1.8944   -8.3108    5.0663 H   0  0  0  0  0  0  0  0  0  0  0  0
    3.7062   -9.9902    4.7446 H   0  0  0  0  0  0  0  0  0  0  0  0
    2.2864  -10.4156    3.8172 H   0  0  0  0  0  0  0  0  0  0  0  0
    4.3306  -10.6225    2.4135 H   0  0  0  0  0  0  0  0  0  0  0  0
    5.7005   -8.6189    1.8944 H   0  0  0  0  0  0  0  0  0  0  0  0
    5.7343   -8.9351    3.6075 H   0  0  0  0  0  0  0  0  0  0  0  0
    3.6458   -9.2095    0.5042 H   0  0  0  0  0  0  0  0  0  0  0  0
    2.2435   -9.9043    1.2735 H   0  0  0  0  0  0  0  0  0  0  0  0
    1.8105   -7.4639    0.8812 H   0  0  0  0  0  0  0  0  0  0  0  0
    0.8130   -8.5568    2.8417 H   0  0  0  0  0  0  0  0  0  0  0  0
    1.1632   -6.8804    3.1800 H   0  0  0  0  0  0  0  0  0  0  0  0
  1  6  1  0
  1  2  1  0
  1 25  1  0
  1 26  1  0
  2  9  1  0
  2  3  1  0
  2 27  1  6
  3  4  1  0
  3 28  1  0
  3 29  1  0
  4 10  1  0
  4  5  1  0
  4 30  1  1
  5  6  1  0
  5 31  1  0
  5 32  1  0
  6  7  1  0
  6 33  1  1
  7  8  1  0
  7 34  1  0
  7 35  1  0
  8  9  1  0
  8 10  1  0
  8 36  1  6
  9 37  1  0
  9 38  1  0
 10 15  1  1
 10 11  1  0
 11 12  1  0
 11 39  1  0
 11 40  1  0
 13 12  1  6
 13 23  1  0
 13 14  1  0
 13 16  1  0
 14 15  1  0
 16 21  1  0
 16 17  1  0
 16 41  1  1
 17 18  1  0
 17 42  1  0
 17 43  1  0
 18 24  1  0
 18 19  1  0
 18 44  1  1
 19 20  1  0
 19 45  1  0
 19 46  1  0
 20 21  1  0
 20 22  1  0
 20 47  1  6
 21 48  1  0
 21 49  1  0
 22 23  1  0
 22 50  1  0
 22 51  1  0
 23 24  1  0
 23 52  1  6
 24 53  1  0
 24 54  1  0
M  END
>  <i_m_ct_stereo_status>  (97) 
1

>  <s_m_source_file>  (97) 
/var/tmp/pbs.5076255.sched01/tmpgr0kyu9k/0plolsrat.sdf

>  <i_m_source_file_index>  (97) 
42

>  <i_lp_mmshare_version>  (97) 
48012

>  <i_f3d_flags>  (97) 
0

>  <s_epik_input>  (97) 
W0NIMl0xW0NASF0yW0NIMl1bQ0BIXShbQ0gyXTMpW0NIMl1bQ0BASF0xW0NIMl1bQ0BIXTNbQ0BdMjRbQ0gyXU9bQ0BdNShPTzQpW0NAQEhdNltDSDJdW0NASF03W0NIMl1bQ0BASF0oW0NIMl02KVtDSDJdW0NAQEhdNVtDSDJdNw==

>  <s_epik_cmdline>  (97) 
J2VwaWtfcHl0aG9uJywgJy1waHQnLCAnMi4wJywgJy1waCcsICc3LjAnLCAnLXRuJywgJzgnLCAnLW1hJywgJzIwMCcsICctaW1hZScsICc8aW5maWxlLm1hZT4nLCAnLW9tYWUnLCAnPG91dGZpbGUubWFlPic=

>  <r_lp_tautomer_probability>  (97) 
1

>  <r_epik_Ionization_Penalty>  (97) 
3.3942e-14

>  <r_epik_Ionization_Penalty_Charging>  (97) 
0

>  <r_epik_Ionization_Penalty_Neutral>  (97) 
3.3942e-14

>  <r_epik_State_Penalty>  (97) 
-0

>  <r_epik_Charging_Adjusted_Penalty>  (97) 
0

>  <i_epik_Tot_Q>  (97) 
0

>  <i_epik_Tot_abs_Q>  (97) 
0

>  <s_lp_Force_Field>  (97) 
OPLS3e

>  <r_lp_Energy>  (97) 
3.24238

>  <b_lp_Chiralities_Consistent>  (97) 
1

>  <s_lp_Variant>  (97) 
29:0-1

>  <s_i_glide_gridfile>  (97) 
pfpi4k_grid

>  <i_i_glide_lignum>  (97) 
42

>  <i_i_glide_rotatable_bonds>  (97) 
0

>  <r_i_docking_score>  (97) 
-2.91807

>  <r_i_glide_ligand_efficiency>  (97) 
-0.121586

>  <r_i_glide_ligand_efficiency_sa>  (97) 
-0.350716

>  <r_i_glide_ligand_efficiency_ln>  (97) 
-0.698429

>  <r_i_glide_gscore>  (97) 
-2.91807

>  <r_i_glide_lipo>  (97) 
-0.396628

>  <r_i_glide_hbond>  (97) 
0

>  <r_i_glide_metal>  (97) 
-0

>  <r_i_glide_rewards>  (97) 
-1.20559

>  <r_i_glide_evdw>  (97) 
-25.5793

>  <r_i_glide_ecoul>  (97) 
-0.2459

>  <r_i_glide_erotb>  (97) 
0

>  <r_i_glide_esite>  (97) 
0

>  <r_i_glide_emodel>  (97) 
-30.5652

>  <r_i_glide_energy>  (97) 
-25.8252

>  <r_i_glide_einternal>  (97) 
0

>  <r_i_glide_intrahb_reward>  (97) 
-0

>  <i_i_glide_confnum>  (97) 
4

>  <i_i_glide_posenum>  (97) 
29

>  <r_i_glide_eff_state_penalty>  (97) 
0

>  <ligand_id>  (97) 
29

>  <original_smiles>  (97) 
C1C2CC3CC1CC(C2)C31COC2(OO1)C1CC3CC(C1)CC2C3

>  <smiles>  (97) 
[H]C1([H])OC2(OOC13C1([H])C([H])([H])C4([H])C([H])([H])C([H])(C1([H])[H])C([H])([H])C3([H])C4([H])[H])C1([H])C([H])([H])C3([H])C([H])([H])C([H])(C1([H])[H])C([H])([H])C2([H])C3([H])[H]

$$$$
29:0:2
     RDKit          3D

 54 60  0  0  1  0  0  0  0  0999 V2000
    4.9382   -1.0613   -1.5179 C   0  0  0  0  0  0  0  0  0  0  0  0
    5.2862   -1.2023   -0.0214 C   0  0  1  0  0  0  0  0  0  0  0  0
    4.0430   -1.7138    0.7446 C   0  0  0  0  0  0  0  0  0  0  0  0
    3.6431   -3.1083    0.2054 C   0  0  1  0  0  0  0  0  0  0  0  0
    3.2970   -2.9616   -1.2975 C   0  0  0  0  0  0  0  0  0  0  0  0
    4.5227   -2.4414   -2.0750 C   0  0  2  0  0  0  0  0  0  0  0  0
    5.6878   -3.4342   -1.9058 C   0  0  0  0  0  0  0  0  0  0  0  0
    6.0393   -3.5772   -0.4026 C   0  0  1  0  0  0  0  0  0  0  0  0
    6.4639   -2.1911    0.1318 C   0  0  0  0  0  0  0  0  0  0  0  0
    4.8169   -4.1142    0.3998 C   0  0  1  0  0  0  0  0  0  0  0  0
    5.1583   -4.3905    1.8892 C   0  0  0  0  0  0  0  0  0  0  0  0
    4.0794   -5.0398    2.5675 O   0  0  0  0  0  0  0  0  0  0  0  0
    3.6950   -6.2626    1.9200 C   0  0  2  0  0  0  0  0  0  0  0  0
    3.3053   -5.9675    0.5767 O   0  0  0  0  0  0  0  0  0  0  0  0
    4.5068   -5.4016   -0.1260 O   0  0  0  0  0  0  0  0  0  0  0  0
    2.4592   -6.8488    2.6897 C   0  0  1  0  0  0  0  0  0  0  0  0
    2.0296   -8.1997    2.0659 C   0  0  0  0  0  0  0  0  0  0  0  0
    3.2012   -9.2021    2.1393 C   0  0  2  0  0  0  0  0  0  0  0  0
    3.5843   -9.4417    3.6171 C   0  0  0  0  0  0  0  0  0  0  0  0
    4.0003   -8.0960    4.2476 C   0  0  2  0  0  0  0  0  0  0  0  0
    2.8210   -7.1030    4.1733 C   0  0  0  0  0  0  0  0  0  0  0  0
    5.2123   -7.5180    3.4905 C   0  0  0  0  0  0  0  0  0  0  0  0
    4.8536   -7.3134    2.0049 C   0  0  1  0  0  0  0  0  0  0  0  0
    4.4110   -8.6373    1.3786 C   0  0  0  0  0  0  0  0  0  0  0  0
    5.7963   -0.6810   -2.0684 H   0  0  0  0  0  0  0  0  0  0  0  0
    4.1364   -0.3377   -1.6581 H   0  0  0  0  0  0  0  0  0  0  0  0
    5.5735   -0.2232    0.3729 H   0  0  0  0  0  0  0  0  0  0  0  0
    4.2565   -1.7430    1.8138 H   0  0  0  0  0  0  0  0  0  0  0  0
    3.2125   -1.0125    0.6311 H   0  0  0  0  0  0  0  0  0  0  0  0
    2.7528   -3.4547    0.7313 H   0  0  0  0  0  0  0  0  0  0  0  0
    2.9624   -3.9106   -1.7147 H   0  0  0  0  0  0  0  0  0  0  0  0
    2.4658   -2.2694   -1.4331 H   0  0  0  0  0  0  0  0  0  0  0  0
    4.2626   -2.3373   -3.1302 H   0  0  0  0  0  0  0  0  0  0  0  0
    5.4080   -4.3949   -2.3424 H   0  0  0  0  0  0  0  0  0  0  0  0
    6.5570   -3.0928   -2.4738 H   0  0  0  0  0  0  0  0  0  0  0  0
    6.8713   -4.2709   -0.3102 H   0  0  0  0  0  0  0  0  0  0  0  0
    7.3318   -1.8332   -0.4225 H   0  0  0  0  0  0  0  0  0  0  0  0
    6.7825   -2.2413    1.1734 H   0  0  0  0  0  0  0  0  0  0  0  0
    6.0770   -4.9809    1.9648 H   0  0  0  0  0  0  0  0  0  0  0  0
    5.3484   -3.4920    2.4624 H   0  0  0  0  0  0  0  0  0  0  0  0
    1.6189   -6.1515    2.6481 H   0  0  0  0  0  0  0  0  0  0  0  0
    1.1663   -8.6117    2.5942 H   0  0  0  0  0  0  0  0  0  0  0  0
    1.7129   -8.0748    1.0304 H   0  0  0  0  0  0  0  0  0  0  0  0
    2.9126  -10.1548    1.6957 H   0  0  0  0  0  0  0  0  0  0  0  0
    2.7450   -9.8798    4.1636 H   0  0  0  0  0  0  0  0  0  0  0  0
    4.3996  -10.1634    3.6816 H   0  0  0  0  0  0  0  0  0  0  0  0
    4.2652   -8.2663    5.2936 H   0  0  0  0  0  0  0  0  0  0  0  0
    3.0819   -6.1740    4.6776 H   0  0  0  0  0  0  0  0  0  0  0  0
    1.9618   -7.5072    4.7141 H   0  0  0  0  0  0  0  0  0  0  0  0
    5.5007   -6.5780    3.9613 H   0  0  0  0  0  0  0  0  0  0  0  0
    6.0654   -8.1804    3.5798 H   0  0  0  0  0  0  0  0  0  0  0  0
    5.7301   -6.9995    1.4458 H   0  0  0  0  0  0  0  0  0  0  0  0
    5.2363   -9.3415    1.4129 H   0  0  0  0  0  0  0  0  0  0  0  0
    4.1635   -8.4957    0.3262 H   0  0  0  0  0  0  0  0  0  0  0  0
  1  6  1  0
  1  2  1  0
  1 25  1  0
  1 26  1  0
  2  9  1  0
  2  3  1  0
  2 27  1  1
  3  4  1  0
  3 28  1  0
  3 29  1  0
  4 10  1  0
  4  5  1  0
  4 30  1  1
  5  6  1  0
  5 31  1  0
  5 32  1  0
  6  7  1  0
  6 33  1  6
  7  8  1  0
  7 34  1  0
  7 35  1  0
  8  9  1  0
  8 10  1  0
  8 36  1  6
  9 37  1  0
  9 38  1  0
 10 15  1  6
 10 11  1  0
 11 12  1  0
 11 39  1  0
 11 40  1  0
 13 12  1  1
 13 23  1  0
 13 14  1  0
 13 16  1  0
 14 15  1  0
 16 21  1  0
 16 17  1  0
 16 41  1  1
 17 18  1  0
 17 42  1  0
 17 43  1  0
 18 24  1  0
 18 19  1  0
 18 44  1  6
 19 20  1  0
 19 45  1  0
 19 46  1  0
 20 21  1  0
 20 22  1  0
 20 47  1  1
 21 48  1  0
 21 49  1  0
 22 23  1  0
 22 50  1  0
 22 51  1  0
 23 24  1  0
 23 52  1  6
 24 53  1  0
 24 54  1  0
M  END
>  <i_m_ct_stereo_status>  (98) 
1

>  <s_m_source_file>  (98) 
/var/tmp/pbs.5076255.sched01/tmpgr0kyu9k/0plolsrat.sdf

>  <i_m_source_file_index>  (98) 
42

>  <i_lp_mmshare_version>  (98) 
48012

>  <i_f3d_flags>  (98) 
0

>  <s_epik_input>  (98) 
W0NIMl0xW0NASF0yW0NIMl1bQ0BIXShbQ0gyXTMpW0NIMl1bQ0BASF0xW0NIMl1bQ0BIXTNbQ0BdMjRbQ0gyXU9bQ0BdNShPTzQpW0NAQEhdNltDSDJdW0NASF03W0NIMl1bQ0BASF0oW0NIMl02KVtDSDJdW0NAQEhdNVtDSDJdNw==

>  <s_epik_cmdline>  (98) 
J2VwaWtfcHl0aG9uJywgJy1waHQnLCAnMi4wJywgJy1waCcsICc3LjAnLCAnLXRuJywgJzgnLCAnLW1hJywgJzIwMCcsICctaW1hZScsICc8aW5maWxlLm1hZT4nLCAnLW9tYWUnLCAnPG91dGZpbGUubWFlPic=

>  <r_lp_tautomer_probability>  (98) 
1

>  <r_epik_Ionization_Penalty>  (98) 
3.3942e-14

>  <r_epik_Ionization_Penalty_Charging>  (98) 
0

>  <r_epik_Ionization_Penalty_Neutral>  (98) 
3.3942e-14

>  <r_epik_State_Penalty>  (98) 
-0

>  <r_epik_Charging_Adjusted_Penalty>  (98) 
0

>  <i_epik_Tot_Q>  (98) 
0

>  <i_epik_Tot_abs_Q>  (98) 
0

>  <s_lp_Force_Field>  (98) 
OPLS3e

>  <r_lp_Energy>  (98) 
3.24238

>  <b_lp_Chiralities_Consistent>  (98) 
1

>  <s_lp_Variant>  (98) 
29:0-1

>  <s_i_glide_gridfile>  (98) 
pfpi4k_grid

>  <i_i_glide_lignum>  (98) 
42

>  <i_i_glide_rotatable_bonds>  (98) 
0

>  <r_i_docking_score>  (98) 
-2.86571

>  <r_i_glide_ligand_efficiency>  (98) 
-0.119405

>  <r_i_glide_ligand_efficiency_sa>  (98) 
-0.344423

>  <r_i_glide_ligand_efficiency_ln>  (98) 
-0.685896

>  <r_i_glide_gscore>  (98) 
-2.86571

>  <r_i_glide_lipo>  (98) 
-0.381503

>  <r_i_glide_hbond>  (98) 
0

>  <r_i_glide_metal>  (98) 
-0

>  <r_i_glide_rewards>  (98) 
-1.19152

>  <r_i_glide_evdw>  (98) 
-27.0226

>  <r_i_glide_ecoul>  (98) 
0.389581

>  <r_i_glide_erotb>  (98) 
0

>  <r_i_glide_esite>  (98) 
0

>  <r_i_glide_emodel>  (98) 
-31.2915

>  <r_i_glide_energy>  (98) 
-26.633

>  <r_i_glide_einternal>  (98) 
0

>  <r_i_glide_intrahb_reward>  (98) 
-0

>  <i_i_glide_confnum>  (98) 
3

>  <i_i_glide_posenum>  (98) 
16

>  <r_i_glide_eff_state_penalty>  (98) 
0

>  <ligand_id>  (98) 
29

>  <original_smiles>  (98) 
C1C2CC3CC1CC(C2)C31COC2(OO1)C1CC3CC(C1)CC2C3

>  <smiles>  (98) 
[H]C1([H])OC2(OOC13C1([H])C([H])([H])C4([H])C([H])([H])C([H])(C1([H])[H])C([H])([H])C3([H])C4([H])[H])C1([H])C([H])([H])C3([H])C([H])([H])C([H])(C1([H])[H])C([H])([H])C2([H])C3([H])[H]

$$$$
30:0:0
     RDKit          3D

 48 51  0  0  1  0  0  0  0  0999 V2000
    4.1743   -2.0402   -3.0835 C   0  0  0  0  0  0  0  0  0  0  0  0
    4.8609   -1.8987   -1.7121 C   0  0  2  0  0  0  0  0  0  0  0  0
    5.8709   -3.0292   -1.5120 C   0  0  0  0  0  0  0  0  0  0  0  0
    6.6439   -2.9460   -0.1873 C   0  0  0  0  0  0  0  0  0  0  0  0
    6.1632   -3.8727    0.9715 C   0  0  2  0  0  0  0  0  0  0  0  0
    6.5532   -5.3173    0.5860 C   0  0  0  0  0  0  0  0  0  0  0  0
    6.3509   -6.3089    1.7204 C   0  0  0  0  0  0  0  0  0  0  0  0
    4.8912   -6.3071    2.1489 C   0  0  1  0  0  0  0  0  0  0  0  0
    4.6402   -7.3320    3.2754 C   0  0  0  0  0  0  0  0  0  0  0  0
    4.3974   -4.8762    2.4925 C   0  0  1  0  0  0  0  0  0  0  0  0
    4.9624   -4.2683    3.7828 C   0  0  0  0  0  0  0  0  0  0  0  0
    5.0009   -2.8623    3.5730 O   0  0  0  0  0  0  0  0  0  0  0  0
    4.3184   -2.5273    2.3681 C   0  0  1  0  0  0  0  0  0  0  0  0
    2.8346   -2.3642    2.8217 C   0  0  0  0  0  0  0  0  0  0  0  0
    4.8436   -1.1835    1.8542 C   0  0  0  0  0  0  0  0  0  0  0  0
    4.1737   -0.6762    0.5590 C   0  0  0  0  0  0  0  0  0  0  0  0
    3.8439   -1.6970   -0.5611 C   0  0  2  0  0  0  0  0  0  0  0  0
    3.0149   -2.7713   -0.0871 O   0  0  0  0  0  0  0  0  0  0  0  0
    3.8717   -4.0244    0.2924 O   0  0  0  0  0  0  0  0  0  0  0  0
    4.6592   -3.7459    1.4501 C   0  0  1  0  0  0  0  0  0  0  0  0
    3.5450   -2.9329   -3.1301 H   0  0  0  0  0  0  0  0  0  0  0  0
    4.9163   -2.1167   -3.8788 H   0  0  0  0  0  0  0  0  0  0  0  0
    3.5523   -1.1744   -3.3195 H   0  0  0  0  0  0  0  0  0  0  0  0
    5.4209   -0.9672   -1.7737 H   0  0  0  0  0  0  0  0  0  0  0  0
    5.3935   -3.9983   -1.6528 H   0  0  0  0  0  0  0  0  0  0  0  0
    6.5955   -2.9557   -2.3258 H   0  0  0  0  0  0  0  0  0  0  0  0
    7.6749   -3.2303   -0.4141 H   0  0  0  0  0  0  0  0  0  0  0  0
    6.7532   -1.9058    0.0954 H   0  0  0  0  0  0  0  0  0  0  0  0
    6.7940   -3.6106    1.8177 H   0  0  0  0  0  0  0  0  0  0  0  0
    5.9500   -5.6576   -0.2617 H   0  0  0  0  0  0  0  0  0  0  0  0
    7.5964   -5.3655    0.2699 H   0  0  0  0  0  0  0  0  0  0  0  0
    6.6389   -7.3059    1.3920 H   0  0  0  0  0  0  0  0  0  0  0  0
    7.0050   -6.0489    2.5559 H   0  0  0  0  0  0  0  0  0  0  0  0
    4.2986   -6.6455    1.2959 H   0  0  0  0  0  0  0  0  0  0  0  0
    5.2362   -7.1208    4.1652 H   0  0  0  0  0  0  0  0  0  0  0  0
    4.9217   -8.3322    2.9337 H   0  0  0  0  0  0  0  0  0  0  0  0
    3.5918   -7.3760    3.5696 H   0  0  0  0  0  0  0  0  0  0  0  0
    3.3187   -4.9742    2.6201 H   0  0  0  0  0  0  0  0  0  0  0  0
    4.3555   -4.5044    4.6584 H   0  0  0  0  0  0  0  0  0  0  0  0
    5.9774   -4.6005    4.0076 H   0  0  0  0  0  0  0  0  0  0  0  0
    2.1285   -2.1802    2.0137 H   0  0  0  0  0  0  0  0  0  0  0  0
    2.7609   -1.5048    3.4887 H   0  0  0  0  0  0  0  0  0  0  0  0
    2.4510   -3.2024    3.4035 H   0  0  0  0  0  0  0  0  0  0  0  0
    4.6618   -0.4390    2.6314 H   0  0  0  0  0  0  0  0  0  0  0  0
    5.9258   -1.1988    1.7959 H   0  0  0  0  0  0  0  0  0  0  0  0
    3.2278   -0.2178    0.8606 H   0  0  0  0  0  0  0  0  0  0  0  0
    4.7765    0.1374    0.1538 H   0  0  0  0  0  0  0  0  0  0  0  0
    3.0570   -1.1233   -1.0654 H   0  0  0  0  0  0  0  0  0  0  0  0
  1  2  1  0
  1 21  1  0
  1 22  1  0
  1 23  1  0
  2 17  1  0
  2  3  1  0
  2 24  1  6
  3  4  1  0
  3 25  1  0
  3 26  1  0
  4  5  1  0
  4 27  1  0
  4 28  1  0
  5 20  1  0
  5  6  1  0
  5 29  1  1
  6  7  1  0
  6 30  1  0
  6 31  1  0
  7  8  1  0
  7 32  1  0
  7 33  1  0
  8  9  1  0
  8 10  1  0
  8 34  1  6
  9 35  1  0
  9 36  1  0
  9 37  1  0
 10 20  1  0
 10 11  1  0
 10 38  1  1
 11 12  1  0
 11 39  1  0
 11 40  1  0
 12 13  1  0
 13 20  1  0
 13 14  1  1
 13 15  1  0
 14 41  1  0
 14 42  1  0
 14 43  1  0
 15 16  1  0
 15 44  1  0
 15 45  1  0
 16 17  1  0
 16 46  1  0
 16 47  1  0
 17 18  1  0
 17 48  1  6
 18 19  1  0
 20 19  1  6
M  END
>  <i_m_ct_stereo_status>  (99) 
1

>  <s_m_source_file>  (99) 
/var/tmp/pbs.5076255.sched01/tmpgr0kyu9k/0plolsrat.sdf

>  <i_m_source_file_index>  (99) 
43

>  <i_lp_mmshare_version>  (99) 
48012

>  <i_f3d_flags>  (99) 
0

>  <s_epik_input>  (99) 
W0NAXTEyM1tDQEBIXTRbQ0gyXVtDSDJdW0NAQEhdKFtDSDNdKVtDQEBIXShPTzMpW0NIMl1bQ0gyXVtDQF0yKFtDSDNdKU9bQ0gyXVtDQEBIXTFbQ0BIXShbQ0gzXSlbQ0gyXVtDSDJdNA==

>  <s_epik_cmdline>  (99) 
J2VwaWtfcHl0aG9uJywgJy1waHQnLCAnMi4wJywgJy1waCcsICc3LjAnLCAnLXRuJywgJzgnLCAnLW1hJywgJzIwMCcsICctaW1hZScsICc8aW5maWxlLm1hZT4nLCAnLW9tYWUnLCAnPG91dGZpbGUubWFlPic=

>  <r_lp_tautomer_probability>  (99) 
1

>  <r_epik_Ionization_Penalty>  (99) 
5.03381e-12

>  <r_epik_Ionization_Penalty_Charging>  (99) 
0

>  <r_epik_Ionization_Penalty_Neutral>  (99) 
5.03381e-12

>  <r_epik_State_Penalty>  (99) 
-0

>  <r_epik_Charging_Adjusted_Penalty>  (99) 
0

>  <i_epik_Tot_Q>  (99) 
0

>  <i_epik_Tot_abs_Q>  (99) 
0

>  <s_lp_Force_Field>  (99) 
OPLS3e

>  <r_lp_Energy>  (99) 
36.2092

>  <b_lp_Chiralities_Consistent>  (99) 
1

>  <s_lp_Variant>  (99) 
30:0-1

>  <s_i_glide_gridfile>  (99) 
pfpi4k_grid

>  <i_i_glide_lignum>  (99) 
43

>  <i_i_glide_rotatable_bonds>  (99) 
0

>  <r_i_docking_score>  (99) 
-3.33503

>  <r_i_glide_ligand_efficiency>  (99) 
-0.166751

>  <r_i_glide_ligand_efficiency_sa>  (99) 
-0.452633

>  <r_i_glide_ligand_efficiency_ln>  (99) 
-0.834648

>  <r_i_glide_gscore>  (99) 
-3.33503

>  <r_i_glide_lipo>  (99) 
-0.728389

>  <r_i_glide_hbond>  (99) 
0

>  <r_i_glide_metal>  (99) 
-0

>  <r_i_glide_rewards>  (99) 
-1.49726

>  <r_i_glide_evdw>  (99) 
-22.8301

>  <r_i_glide_ecoul>  (99) 
0.214142

>  <r_i_glide_erotb>  (99) 
0

>  <r_i_glide_esite>  (99) 
0

>  <r_i_glide_emodel>  (99) 
-27.1032

>  <r_i_glide_energy>  (99) 
-22.616

>  <r_i_glide_einternal>  (99) 
0

>  <r_i_glide_intrahb_reward>  (99) 
-0

>  <i_i_glide_confnum>  (99) 
1

>  <i_i_glide_posenum>  (99) 
1

>  <r_i_glide_eff_state_penalty>  (99) 
0

>  <ligand_id>  (99) 
30

>  <original_smiles>  (99) 
CC1CCC2CCC(C)C3COC4(C)CCC1OOC234

>  <smiles>  (99) 
[H]C([H])([H])C1([H])C([H])([H])C([H])([H])C2([H])C([H])([H])C([H])([H])C([H])(C([H])([H])[H])C3([H])C([H])([H])OC4(C([H])([H])[H])C([H])([H])C([H])([H])C1([H])OOC234

$$$$
30:0:1
     RDKit          3D

 48 51  0  0  1  0  0  0  0  0999 V2000
    4.4767   -2.6993   -3.0488 C   0  0  0  0  0  0  0  0  0  0  0  0
    5.1326   -2.7959   -1.6595 C   0  0  2  0  0  0  0  0  0  0  0  0
    4.9218   -4.1935   -1.0797 C   0  0  0  0  0  0  0  0  0  0  0  0
    5.6064   -4.4272    0.2749 C   0  0  0  0  0  0  0  0  0  0  0  0
    4.6944   -4.3557    1.5330 C   0  0  2  0  0  0  0  0  0  0  0  0
    3.8063   -5.6302    1.5146 C   0  0  0  0  0  0  0  0  0  0  0  0
    3.0192   -5.8062    2.8028 C   0  0  0  0  0  0  0  0  0  0  0  0
    2.1195   -4.5992    3.0320 C   0  0  1  0  0  0  0  0  0  0  0  0
    1.2683   -4.7663    4.3069 C   0  0  0  0  0  0  0  0  0  0  0  0
    2.9214   -3.2678    2.9879 C   0  0  1  0  0  0  0  0  0  0  0  0
    3.8570   -3.0194    4.1806 C   0  0  0  0  0  0  0  0  0  0  0  0
    4.9331   -2.2359    3.6756 O   0  0  0  0  0  0  0  0  0  0  0  0
    4.6458   -1.8029    2.3494 C   0  0  1  0  0  0  0  0  0  0  0  0
    3.8606   -0.4760    2.5643 C   0  0  0  0  0  0  0  0  0  0  0  0
    5.9619   -1.5057    1.6308 C   0  0  0  0  0  0  0  0  0  0  0  0
    5.8190   -0.9997    0.1817 C   0  0  0  0  0  0  0  0  0  0  0  0
    4.7321   -1.6145   -0.7353 C   0  0  2  0  0  0  0  0  0  0  0  0
    3.4357   -1.5521   -0.1256 O   0  0  0  0  0  0  0  0  0  0  0  0
    3.0662   -2.8669    0.6004 O   0  0  0  0  0  0  0  0  0  0  0  0
    3.8594   -3.0355    1.7769 C   0  0  1  0  0  0  0  0  0  0  0  0
    3.3899   -2.7842   -2.9844 H   0  0  0  0  0  0  0  0  0  0  0  0
    4.8305   -3.4993   -3.7001 H   0  0  0  0  0  0  0  0  0  0  0  0
    4.7151   -1.7600   -3.5504 H   0  0  0  0  0  0  0  0  0  0  0  0
    6.2000   -2.6899   -1.8459 H   0  0  0  0  0  0  0  0  0  0  0  0
    3.8647   -4.4480   -1.0635 H   0  0  0  0  0  0  0  0  0  0  0  0
    5.3292   -4.8993   -1.7981 H   0  0  0  0  0  0  0  0  0  0  0  0
    6.0313   -5.4331    0.2422 H   0  0  0  0  0  0  0  0  0  0  0  0
    6.4984   -3.8116    0.3342 H   0  0  0  0  0  0  0  0  0  0  0  0
    5.3671   -4.4742    2.3827 H   0  0  0  0  0  0  0  0  0  0  0  0
    3.0978   -5.5893    0.6854 H   0  0  0  0  0  0  0  0  0  0  0  0
    4.4179   -6.5208    1.3562 H   0  0  0  0  0  0  0  0  0  0  0  0
    2.4146   -6.7109    2.7410 H   0  0  0  0  0  0  0  0  0  0  0  0
    3.7081   -5.9445    3.6394 H   0  0  0  0  0  0  0  0  0  0  0  0
    1.4190   -4.5597    2.1995 H   0  0  0  0  0  0  0  0  0  0  0  0
    1.8858   -4.8735    5.2021 H   0  0  0  0  0  0  0  0  0  0  0  0
    0.6605   -5.6703    4.2300 H   0  0  0  0  0  0  0  0  0  0  0  0
    0.5881   -3.9285    4.4615 H   0  0  0  0  0  0  0  0  0  0  0  0
    2.1637   -2.4841    2.9892 H   0  0  0  0  0  0  0  0  0  0  0  0
    3.3620   -2.4966    4.9985 H   0  0  0  0  0  0  0  0  0  0  0  0
    4.2829   -3.9313    4.5958 H   0  0  0  0  0  0  0  0  0  0  0  0
    3.4779   -0.0177    1.6529 H   0  0  0  0  0  0  0  0  0  0  0  0
    4.5237    0.2616    3.0146 H   0  0  0  0  0  0  0  0  0  0  0  0
    3.0219   -0.5588    3.2566 H   0  0  0  0  0  0  0  0  0  0  0  0
    6.4826   -0.7337    2.2012 H   0  0  0  0  0  0  0  0  0  0  0  0
    6.6290   -2.3537    1.7167 H   0  0  0  0  0  0  0  0  0  0  0  0
    5.5958    0.0684    0.2605 H   0  0  0  0  0  0  0  0  0  0  0  0
    6.7973   -1.0680   -0.2931 H   0  0  0  0  0  0  0  0  0  0  0  0
    4.6265   -0.7964   -1.4470 H   0  0  0  0  0  0  0  0  0  0  0  0
  1  2  1  0
  1 21  1  0
  1 22  1  0
  1 23  1  0
  2 17  1  0
  2  3  1  0
  2 24  1  6
  3  4  1  0
  3 25  1  0
  3 26  1  0
  4  5  1  0
  4 27  1  0
  4 28  1  0
  5 20  1  0
  5  6  1  0
  5 29  1  1
  6  7  1  0
  6 30  1  0
  6 31  1  0
  7  8  1  0
  7 32  1  0
  7 33  1  0
  8  9  1  0
  8 10  1  0
  8 34  1  6
  9 35  1  0
  9 36  1  0
  9 37  1  0
 10 20  1  0
 10 11  1  0
 10 38  1  6
 11 12  1  0
 11 39  1  0
 11 40  1  0
 12 13  1  0
 13 20  1  0
 13 14  1  1
 13 15  1  0
 14 41  1  0
 14 42  1  0
 14 43  1  0
 15 16  1  0
 15 44  1  0
 15 45  1  0
 16 17  1  0
 16 46  1  0
 16 47  1  0
 17 18  1  0
 17 48  1  6
 18 19  1  0
 20 19  1  6
M  END
>  <i_m_ct_stereo_status>  (100) 
1

>  <s_m_source_file>  (100) 
/var/tmp/pbs.5076255.sched01/tmpgr0kyu9k/0plolsrat.sdf

>  <i_m_source_file_index>  (100) 
43

>  <i_lp_mmshare_version>  (100) 
48012

>  <i_f3d_flags>  (100) 
0

>  <s_epik_input>  (100) 
W0NAXTEyM1tDQEBIXTRbQ0gyXVtDSDJdW0NAQEhdKFtDSDNdKVtDQEBIXShPTzMpW0NIMl1bQ0gyXVtDQF0yKFtDSDNdKU9bQ0gyXVtDQEBIXTFbQ0BIXShbQ0gzXSlbQ0gyXVtDSDJdNA==

>  <s_epik_cmdline>  (100) 
J2VwaWtfcHl0aG9uJywgJy1waHQnLCAnMi4wJywgJy1waCcsICc3LjAnLCAnLXRuJywgJzgnLCAnLW1hJywgJzIwMCcsICctaW1hZScsICc8aW5maWxlLm1hZT4nLCAnLW9tYWUnLCAnPG91dGZpbGUubWFlPic=

>  <r_lp_tautomer_probability>  (100) 
1

>  <r_epik_Ionization_Penalty>  (100) 
5.03381e-12

>  <r_epik_Ionization_Penalty_Charging>  (100) 
0

>  <r_epik_Ionization_Penalty_Neutral>  (100) 
5.03381e-12

>  <r_epik_State_Penalty>  (100) 
-0

>  <r_epik_Charging_Adjusted_Penalty>  (100) 
0

>  <i_epik_Tot_Q>  (100) 
0

>  <i_epik_Tot_abs_Q>  (100) 
0

>  <s_lp_Force_Field>  (100) 
OPLS3e

>  <r_lp_Energy>  (100) 
36.2092

>  <b_lp_Chiralities_Consistent>  (100) 
1

>  <s_lp_Variant>  (100) 
30:0-1

>  <s_i_glide_gridfile>  (100) 
pfpi4k_grid

>  <i_i_glide_lignum>  (100) 
43

>  <i_i_glide_rotatable_bonds>  (100) 
0

>  <r_i_docking_score>  (100) 
-3.00551

>  <r_i_glide_ligand_efficiency>  (100) 
-0.150276

>  <r_i_glide_ligand_efficiency_sa>  (100) 
-0.407911

>  <r_i_glide_ligand_efficiency_ln>  (100) 
-0.75218

>  <r_i_glide_gscore>  (100) 
-3.00551

>  <r_i_glide_lipo>  (100) 
-0.547532

>  <r_i_glide_hbond>  (100) 
0

>  <r_i_glide_metal>  (100) 
-0

>  <r_i_glide_rewards>  (100) 
-1.49726

>  <r_i_glide_evdw>  (100) 
-21.9445

>  <r_i_glide_ecoul>  (100) 
0.910006

>  <r_i_glide_erotb>  (100) 
0

>  <r_i_glide_esite>  (100) 
0

>  <r_i_glide_emodel>  (100) 
-25.0716

>  <r_i_glide_energy>  (100) 
-21.0345

>  <r_i_glide_einternal>  (100) 
0

>  <r_i_glide_intrahb_reward>  (100) 
-0

>  <i_i_glide_confnum>  (100) 
1

>  <i_i_glide_posenum>  (100) 
29

>  <r_i_glide_eff_state_penalty>  (100) 
0

>  <ligand_id>  (100) 
30

>  <original_smiles>  (100) 
CC1CCC2CCC(C)C3COC4(C)CCC1OOC234

>  <smiles>  (100) 
[H]C([H])([H])C1([H])C([H])([H])C([H])([H])C2([H])C([H])([H])C([H])([H])C([H])(C([H])([H])[H])C3([H])C([H])([H])OC4(C([H])([H])[H])C([H])([H])C([H])([H])C1([H])OOC234

$$$$
30:0:2
     RDKit          3D

 48 51  0  0  1  0  0  0  0  0999 V2000
    2.0112   -1.3851    4.7255 C   0  0  0  0  0  0  0  0  0  0  0  0
    3.2658   -1.9361    4.0212 C   0  0  2  0  0  0  0  0  0  0  0  0
    3.7917   -0.9085    3.0115 C   0  0  0  0  0  0  0  0  0  0  0  0
    5.0775   -1.3406    2.2959 C   0  0  0  0  0  0  0  0  0  0  0  0
    4.9197   -1.9068    0.8512 C   0  0  2  0  0  0  0  0  0  0  0  0
    4.5544   -0.7168   -0.0601 C   0  0  0  0  0  0  0  0  0  0  0  0
    4.5947   -1.0751   -1.5428 C   0  0  0  0  0  0  0  0  0  0  0  0
    3.6202   -2.2104   -1.8274 C   0  0  1  0  0  0  0  0  0  0  0  0
    3.6010   -2.5708   -3.3306 C   0  0  0  0  0  0  0  0  0  0  0  0
    3.8680   -3.4239   -0.8972 C   0  0  1  0  0  0  0  0  0  0  0  0
    5.1521   -4.2143   -1.1689 C   0  0  0  0  0  0  0  0  0  0  0  0
    5.5696   -4.7510    0.0791 O   0  0  0  0  0  0  0  0  0  0  0  0
    4.5549   -4.5496    1.0544 C   0  0  1  0  0  0  0  0  0  0  0  0
    3.6391   -5.8033    0.8863 C   0  0  0  0  0  0  0  0  0  0  0  0
    5.2003   -4.5776    2.4462 C   0  0  0  0  0  0  0  0  0  0  0  0
    4.2227   -4.3956    3.6290 C   0  0  0  0  0  0  0  0  0  0  0  0
    3.0604   -3.3784    3.4906 C   0  0  2  0  0  0  0  0  0  0  0  0
    2.2655   -3.6399    2.3305 O   0  0  0  0  0  0  0  0  0  0  0  0
    2.6938   -2.7618    1.1310 O   0  0  0  0  0  0  0  0  0  0  0  0
    3.9704   -3.1595    0.6380 C   0  0  1  0  0  0  0  0  0  0  0  0
    1.1733   -1.2836    4.0330 H   0  0  0  0  0  0  0  0  0  0  0  0
    2.2071   -0.4010    5.1537 H   0  0  0  0  0  0  0  0  0  0  0  0
    1.6953   -2.0238    5.5525 H   0  0  0  0  0  0  0  0  0  0  0  0
    4.0175   -2.0112    4.8070 H   0  0  0  0  0  0  0  0  0  0  0  0
    3.0055   -0.6174    2.3177 H   0  0  0  0  0  0  0  0  0  0  0  0
    4.0168   -0.0002    3.5736 H   0  0  0  0  0  0  0  0  0  0  0  0
    5.7066   -0.4495    2.2208 H   0  0  0  0  0  0  0  0  0  0  0  0
    5.6601   -1.9687    2.9574 H   0  0  0  0  0  0  0  0  0  0  0  0
    5.9232   -2.2095    0.5589 H   0  0  0  0  0  0  0  0  0  0  0  0
    3.5480   -0.3539    0.1688 H   0  0  0  0  0  0  0  0  0  0  0  0
    5.2273    0.1218    0.1196 H   0  0  0  0  0  0  0  0  0  0  0  0
    4.3247   -0.2055   -2.1394 H   0  0  0  0  0  0  0  0  0  0  0  0
    5.6109   -1.3527   -1.8295 H   0  0  0  0  0  0  0  0  0  0  0  0
    2.6164   -1.8485   -1.5972 H   0  0  0  0  0  0  0  0  0  0  0  0
    4.5790   -2.8956   -3.6887 H   0  0  0  0  0  0  0  0  0  0  0  0
    3.3152   -1.6925   -3.9153 H   0  0  0  0  0  0  0  0  0  0  0  0
    2.8774   -3.3544   -3.5525 H   0  0  0  0  0  0  0  0  0  0  0  0
    3.0263   -4.0945   -1.0715 H   0  0  0  0  0  0  0  0  0  0  0  0
    5.0154   -5.0189   -1.8931 H   0  0  0  0  0  0  0  0  0  0  0  0
    5.9670   -3.5995   -1.5533 H   0  0  0  0  0  0  0  0  0  0  0  0
    2.7465   -5.7952    1.5063 H   0  0  0  0  0  0  0  0  0  0  0  0
    4.1957   -6.6972    1.1690 H   0  0  0  0  0  0  0  0  0  0  0  0
    3.3212   -5.9839   -0.1400 H   0  0  0  0  0  0  0  0  0  0  0  0
    5.6827   -5.5494    2.5700 H   0  0  0  0  0  0  0  0  0  0  0  0
    6.0413   -3.8949    2.4797 H   0  0  0  0  0  0  0  0  0  0  0  0
    3.7663   -5.3728    3.7981 H   0  0  0  0  0  0  0  0  0  0  0  0
    4.8016   -4.1846    4.5318 H   0  0  0  0  0  0  0  0  0  0  0  0
    2.3846   -3.7958    4.2467 H   0  0  0  0  0  0  0  0  0  0  0  0
  1  2  1  0
  1 21  1  0
  1 22  1  0
  1 23  1  0
  2 17  1  0
  2  3  1  0
  2 24  1  1
  3  4  1  0
  3 25  1  0
  3 26  1  0
  4  5  1  0
  4 27  1  0
  4 28  1  0
  5 20  1  0
  5  6  1  0
  5 29  1  6
  6  7  1  0
  6 30  1  0
  6 31  1  0
  7  8  1  0
  7 32  1  0
  7 33  1  0
  8  9  1  0
  8 10  1  0
  8 34  1  1
  9 35  1  0
  9 36  1  0
  9 37  1  0
 10 20  1  0
 10 11  1  0
 10 38  1  1
 11 12  1  0
 11 39  1  0
 11 40  1  0
 12 13  1  0
 13 20  1  0
 13 14  1  1
 13 15  1  0
 14 41  1  0
 14 42  1  0
 14 43  1  0
 15 16  1  0
 15 44  1  0
 15 45  1  0
 16 17  1  0
 16 46  1  0
 16 47  1  0
 17 18  1  0
 17 48  1  1
 18 19  1  0
 20 19  1  1
M  END
>  <i_m_ct_stereo_status>  (101) 
1

>  <s_m_source_file>  (101) 
/var/tmp/pbs.5076255.sched01/tmpgr0kyu9k/0plolsrat.sdf

>  <i_m_source_file_index>  (101) 
43

>  <i_lp_mmshare_version>  (101) 
48012

>  <i_f3d_flags>  (101) 
0

>  <s_epik_input>  (101) 
W0NAXTEyM1tDQEBIXTRbQ0gyXVtDSDJdW0NAQEhdKFtDSDNdKVtDQEBIXShPTzMpW0NIMl1bQ0gyXVtDQF0yKFtDSDNdKU9bQ0gyXVtDQEBIXTFbQ0BIXShbQ0gzXSlbQ0gyXVtDSDJdNA==

>  <s_epik_cmdline>  (101) 
J2VwaWtfcHl0aG9uJywgJy1waHQnLCAnMi4wJywgJy1waCcsICc3LjAnLCAnLXRuJywgJzgnLCAnLW1hJywgJzIwMCcsICctaW1hZScsICc8aW5maWxlLm1hZT4nLCAnLW9tYWUnLCAnPG91dGZpbGUubWFlPic=

>  <r_lp_tautomer_probability>  (101) 
1

>  <r_epik_Ionization_Penalty>  (101) 
5.03381e-12

>  <r_epik_Ionization_Penalty_Charging>  (101) 
0

>  <r_epik_Ionization_Penalty_Neutral>  (101) 
5.03381e-12

>  <r_epik_State_Penalty>  (101) 
-0

>  <r_epik_Charging_Adjusted_Penalty>  (101) 
0

>  <i_epik_Tot_Q>  (101) 
0

>  <i_epik_Tot_abs_Q>  (101) 
0

>  <s_lp_Force_Field>  (101) 
OPLS3e

>  <r_lp_Energy>  (101) 
36.2092

>  <b_lp_Chiralities_Consistent>  (101) 
1

>  <s_lp_Variant>  (101) 
30:0-1

>  <s_i_glide_gridfile>  (101) 
pfpi4k_grid

>  <i_i_glide_lignum>  (101) 
43

>  <i_i_glide_rotatable_bonds>  (101) 
0

>  <r_i_docking_score>  (101) 
-2.9898

>  <r_i_glide_ligand_efficiency>  (101) 
-0.14949

>  <r_i_glide_ligand_efficiency_sa>  (101) 
-0.405779

>  <r_i_glide_ligand_efficiency_ln>  (101) 
-0.748249

>  <r_i_glide_gscore>  (101) 
-2.9898

>  <r_i_glide_lipo>  (101) 
-0.401879

>  <r_i_glide_hbond>  (101) 
0

>  <r_i_glide_metal>  (101) 
-0

>  <r_i_glide_rewards>  (101) 
-1.49726

>  <r_i_glide_evdw>  (101) 
-22.3993

>  <r_i_glide_ecoul>  (101) 
0.195331

>  <r_i_glide_erotb>  (101) 
0

>  <r_i_glide_esite>  (101) 
0

>  <r_i_glide_emodel>  (101) 
-26.2235

>  <r_i_glide_energy>  (101) 
-22.204

>  <r_i_glide_einternal>  (101) 
0

>  <r_i_glide_intrahb_reward>  (101) 
-0

>  <i_i_glide_confnum>  (101) 
1

>  <i_i_glide_posenum>  (101) 
7

>  <r_i_glide_eff_state_penalty>  (101) 
0

>  <ligand_id>  (101) 
30

>  <original_smiles>  (101) 
CC1CCC2CCC(C)C3COC4(C)CCC1OOC234

>  <smiles>  (101) 
[H]C([H])([H])C1([H])C([H])([H])C([H])([H])C2([H])C([H])([H])C([H])([H])C([H])(C([H])([H])[H])C3([H])C([H])([H])OC4(C([H])([H])[H])C([H])([H])C([H])([H])C1([H])OOC234

$$$$
31:0:0
     RDKit          3D

 56 61  0  0  1  0  0  0  0  0999 V2000
    8.7211   -5.4808    1.5493 C   0  0  0  0  0  0  0  0  0  0  0  0
    8.0210   -4.2285    1.4493 O   0  0  0  0  0  0  0  0  0  0  0  0
    6.6163   -4.2137    1.2872 C   0  0  2  0  0  0  0  0  0  0  0  0
    6.1873   -5.5913    0.7206 C   0  0  0  0  0  0  0  0  0  0  0  0
    4.6702   -5.5886    0.5937 C   0  0  0  0  0  0  0  0  0  0  0  0
    3.8891   -4.1965    0.8643 C   0  0  1  0  0  0  0  0  0  0  0  0
    4.2585   -3.8473   -0.7074 C   0  0  0  0  0  0  0  0  0  0  0  0
    5.3471   -4.1651   -1.5963 C   0  0  0  0  0  0  0  0  0  0  0  0
    5.0746   -3.8422   -2.9463 C   0  0  0  0  0  0  0  0  0  0  0  0
    4.2982   -2.7028   -3.2231 C   0  0  0  0  0  0  0  0  0  0  0  0
    3.8497   -1.9012   -2.1360 C   0  0  0  0  0  0  0  0  0  0  0  0
    3.3670   -0.6565   -2.3108 O   0  0  0  0  0  0  0  0  0  0  0  0
    3.9791   -2.5260   -0.8924 C   0  0  0  0  0  0  0  0  0  0  0  0
    4.8461   -2.0985    0.2674 C   0  0  2  0  0  0  0  0  0  0  0  0
    5.1431   -0.7111    0.1907 O   0  0  0  0  0  0  0  0  0  0  0  0
    6.3129   -2.8813    0.3572 C   0  0  2  0  0  0  0  0  0  0  0  0
    6.5922   -3.4168   -1.0555 C   0  0  0  0  0  0  0  0  0  0  0  0
    3.9340   -2.6002    1.3493 C   0  0  2  0  0  0  0  0  0  0  0  0
    4.4415   -1.6892    2.5795 C   0  0  0  0  0  0  0  0  0  0  0  0
    2.3869   -2.4027    1.4417 C   0  0  0  0  0  0  0  0  0  0  0  0
    1.7551   -3.0883    2.7108 C   0  0  0  0  0  0  0  0  0  0  0  0
    2.0044   -4.6092    2.9487 C   0  0  0  0  0  0  0  0  0  0  0  0
    1.0571   -5.3882    2.8242 O   0  0  0  0  0  0  0  0  0  0  0  0
    3.4244   -5.1317    3.3677 C   0  0  0  0  0  0  0  0  0  0  0  0
    3.6338   -4.7339    4.8715 C   0  0  0  0  0  0  0  0  0  0  0  0
    3.4392   -6.6863    3.3943 C   0  0  0  0  0  0  0  0  0  0  0  0
    4.4896   -4.4909    2.3441 C   0  0  1  0  0  0  0  0  0  0  0  0
    5.9125   -4.2395    2.4995 O   0  0  0  0  0  0  0  0  0  0  0  0
    9.7904   -5.2980    1.5466 H   0  0  0  0  0  0  0  0  0  0  0  0
    8.4145   -6.1161    0.7258 H   0  0  0  0  0  0  0  0  0  0  0  0
    8.5403   -6.0174    2.4806 H   0  0  0  0  0  0  0  0  0  0  0  0
    6.7354   -5.8674   -0.1882 H   0  0  0  0  0  0  0  0  0  0  0  0
    6.5047   -6.3871    1.4236 H   0  0  0  0  0  0  0  0  0  0  0  0
    4.3678   -6.0651   -0.3468 H   0  0  0  0  0  0  0  0  0  0  0  0
    4.3066   -6.4122    1.1826 H   0  0  0  0  0  0  0  0  0  0  0  0
    5.6173   -4.2744   -3.7765 H   0  0  0  0  0  0  0  0  0  0  0  0
    4.1307   -2.3654   -4.2239 H   0  0  0  0  0  0  0  0  0  0  0  0
    2.6719   -0.4404   -1.7040 H   0  0  0  0  0  0  0  0  0  0  0  0
    4.3277   -0.2408    0.1287 H   0  0  0  0  0  0  0  0  0  0  0  0
    7.0776   -2.1630    0.6375 H   0  0  0  0  0  0  0  0  0  0  0  0
    7.5183   -3.9945   -1.0655 H   0  0  0  0  0  0  0  0  0  0  0  0
    6.7814   -2.5821   -1.7302 H   0  0  0  0  0  0  0  0  0  0  0  0
    4.1900   -0.6409    2.4192 H   0  0  0  0  0  0  0  0  0  0  0  0
    5.5228   -1.7303    2.7368 H   0  0  0  0  0  0  0  0  0  0  0  0
    3.9688   -1.8821    3.5437 H   0  0  0  0  0  0  0  0  0  0  0  0
    2.1446   -1.3410    1.4465 H   0  0  0  0  0  0  0  0  0  0  0  0
    1.8795   -2.7914    0.5582 H   0  0  0  0  0  0  0  0  0  0  0  0
    2.0248   -2.5535    3.6159 H   0  0  0  0  0  0  0  0  0  0  0  0
    0.6803   -2.9501    2.6519 H   0  0  0  0  0  0  0  0  0  0  0  0
    4.6095   -5.0648    5.2257 H   0  0  0  0  0  0  0  0  0  0  0  0
    2.8826   -5.1923    5.5195 H   0  0  0  0  0  0  0  0  0  0  0  0
    3.5675   -3.6586    5.0495 H   0  0  0  0  0  0  0  0  0  0  0  0
    4.4635   -7.0566    3.4469 H   0  0  0  0  0  0  0  0  0  0  0  0
    2.9522   -7.1382    2.5280 H   0  0  0  0  0  0  0  0  0  0  0  0
    2.9078   -7.0861    4.2583 H   0  0  0  0  0  0  0  0  0  0  0  0
    4.5012   -3.7745    3.1073 H   0  0  0  0  0  0  0  0  0  0  0  0
  1  2  1  0
  1 29  1  0
  1 30  1  0
  1 31  1  0
  3  2  1  1
  3 16  1  0
  3 28  1  0
  3  4  1  0
  4  5  1  0
  4 32  1  0
  4 33  1  0
  6  5  1  1
  5 34  1  0
  5 35  1  0
  6 18  1  0
  6 27  1  0
  6  7  1  0
  7 13  2  0
  7  8  1  0
  8 17  1  0
  8  9  2  0
  9 10  1  0
  9 36  1  0
 10 11  2  0
 10 37  1  0
 11 12  1  0
 11 13  1  0
 12 38  1  0
 13 14  1  0
 14 15  1  1
 14 16  1  0
 14 18  1  0
 15 39  1  0
 16 17  1  0
 16 40  1  1
 17 41  1  0
 17 42  1  0
 18 19  1  1
 18 20  1  0
 19 43  1  0
 19 44  1  0
 19 45  1  0
 20 21  1  0
 20 46  1  0
 20 47  1  0
 21 22  1  0
 21 48  1  0
 21 49  1  0
 22 23  2  0
 22 24  1  0
 24 25  1  0
 24 26  1  0
 24 27  1  0
 25 50  1  0
 25 51  1  0
 25 52  1  0
 26 53  1  0
 26 54  1  0
 26 55  1  0
 27 28  1  0
 27 56  1  1
M  END
>  <i_m_ct_stereo_status>  (102) 
1

>  <s_m_source_file>  (102) 
/var/tmp/pbs.5076255.sched01/tmpgr0kyu9k/0plolsrat.sdf

>  <i_m_source_file_index>  (102) 
44

>  <i_lp_mmshare_version>  (102) 
48012

>  <i_f3d_flags>  (102) 
0

>  <s_epik_input>  (102) 
W0NIM11bQ0BdMTJbQ0gyXVtDSDJdQyg9TylDKFtDSDNdKShbQ0gzXSlbQ0BIXTNPW0NAQF0oT1tDSDNdKShbQ0gyXVtDSDJdNClbQ0BASF0oW0NIMl01KVtDQEBdMihbT0hdKWM2YyhbT0hdKVtjSF1bY0hdYzVjNltDQF0xMzQ=

>  <s_epik_cmdline>  (102) 
J2VwaWtfcHl0aG9uJywgJy1waHQnLCAnMi4wJywgJy1waCcsICc3LjAnLCAnLXRuJywgJzgnLCAnLW1hJywgJzIwMCcsICctaW1hZScsICc8aW5maWxlLm1hZT4nLCAnLW9tYWUnLCAnPG91dGZpbGUubWFlPic=

>  <r_lp_tautomer_probability>  (102) 
1

>  <r_epik_Ionization_Penalty>  (102) 
5.8887e-05

>  <r_epik_Ionization_Penalty_Charging>  (102) 
0

>  <r_epik_Ionization_Penalty_Neutral>  (102) 
5.8887e-05

>  <r_epik_State_Penalty>  (102) 
-0

>  <r_epik_Charging_Adjusted_Penalty>  (102) 
0

>  <i_epik_Tot_Q>  (102) 
0

>  <i_epik_Tot_abs_Q>  (102) 
0

>  <s_lp_Force_Field>  (102) 
OPLS3e

>  <r_lp_Energy>  (102) 
419.606

>  <b_lp_Chiralities_Consistent>  (102) 
1

>  <s_lp_Variant>  (102) 
31:0-1

>  <s_i_glide_gridfile>  (102) 
pfpi4k_grid

>  <i_i_glide_lignum>  (102) 
44

>  <i_i_glide_rotatable_bonds>  (102) 
3

>  <r_i_docking_score>  (102) 
-2.67706

>  <r_i_glide_ligand_efficiency>  (102) 
-0.0956093

>  <r_i_glide_ligand_efficiency_sa>  (102) 
-0.290326

>  <r_i_glide_ligand_efficiency_ln>  (102) 
-0.617944

>  <r_i_glide_gscore>  (102) 
-2.67706

>  <r_i_glide_lipo>  (102) 
-0.62465

>  <r_i_glide_hbond>  (102) 
0

>  <r_i_glide_metal>  (102) 
-0

>  <r_i_glide_rewards>  (102) 
-0.918671

>  <r_i_glide_evdw>  (102) 
-18.7957

>  <r_i_glide_ecoul>  (102) 
-1.24633

>  <r_i_glide_erotb>  (102) 
0

>  <r_i_glide_esite>  (102) 
-0.00700699

>  <r_i_glide_emodel>  (102) 
-7.01838

>  <r_i_glide_energy>  (102) 
-20.042

>  <r_i_glide_einternal>  (102) 
28.7191

>  <r_i_glide_intrahb_reward>  (102) 
-0

>  <i_i_glide_confnum>  (102) 
2

>  <i_i_glide_posenum>  (102) 
38

>  <r_i_glide_eff_state_penalty>  (102) 
0

>  <ligand_id>  (102) 
31

>  <original_smiles>  (102) 
COC12CCC34c5c6ccc(O)c5C(O)(C1C6)C3(C)CCC(=O)C(C)(C)C4O2

>  <smiles>  (102) 
[H]Oc1c([H])c([H])c2c3c1C1(O[H])C([H])(C2([H])[H])C2(OC([H])([H])[H])OC4([H])C(C([H])([H])[H])(C([H])([H])[H])C(=O)C([H])([H])C([H])([H])C1(C([H])([H])[H])C34C([H])([H])C2([H])[H]

$$$$
31:0:1
     RDKit          3D

 56 61  0  0  1  0  0  0  0  0999 V2000
    8.8920   -4.2895    0.3208 C   0  0  0  0  0  0  0  0  0  0  0  0
    7.9464   -3.7419    1.2508 O   0  0  0  0  0  0  0  0  0  0  0  0
    6.5666   -3.8232    1.0209 C   0  0  2  0  0  0  0  0  0  0  0  0
    6.2116   -5.2574    0.6250 C   0  0  0  0  0  0  0  0  0  0  0  0
    4.6741   -5.3259    0.5823 C   0  0  0  0  0  0  0  0  0  0  0  0
    3.8404   -3.9535    0.7966 C   0  0  1  0  0  0  0  0  0  0  0  0
    4.0698   -3.6943   -0.8151 C   0  0  0  0  0  0  0  0  0  0  0  0
    5.0611   -4.0974   -1.7733 C   0  0  0  0  0  0  0  0  0  0  0  0
    4.6770   -3.8652   -3.1128 C   0  0  0  0  0  0  0  0  0  0  0  0
    3.8987   -2.7398   -3.4062 C   0  0  0  0  0  0  0  0  0  0  0  0
    3.5235   -1.8686   -2.3652 C   0  0  0  0  0  0  0  0  0  0  0  0
    3.0001   -0.6842   -2.6482 O   0  0  0  0  0  0  0  0  0  0  0  0
    3.7060   -2.4073   -1.0713 C   0  0  0  0  0  0  0  0  0  0  0  0
    4.6525   -1.9089   -0.0057 C   0  0  2  0  0  0  0  0  0  0  0  0
    4.9115   -0.5340   -0.1624 O   0  0  0  0  0  0  0  0  0  0  0  0
    6.1608   -2.5954   -0.0006 C   0  0  2  0  0  0  0  0  0  0  0  0
    6.2875   -3.2193   -1.4393 C   0  0  0  0  0  0  0  0  0  0  0  0
    3.8496   -2.3333    1.1813 C   0  0  2  0  0  0  0  0  0  0  0  0
    4.4017   -1.3082    2.2988 C   0  0  0  0  0  0  0  0  0  0  0  0
    2.3138   -2.1631    1.3501 C   0  0  0  0  0  0  0  0  0  0  0  0
    1.7735   -2.7634    2.6902 C   0  0  0  0  0  0  0  0  0  0  0  0
    2.0981   -4.2510    3.0109 C   0  0  0  0  0  0  0  0  0  0  0  0
    1.1687   -5.0572    3.0146 O   0  0  0  0  0  0  0  0  0  0  0  0
    3.5553   -4.7053    3.3767 C   0  0  0  0  0  0  0  0  0  0  0  0
    3.8404   -4.1942    4.8339 C   0  0  0  0  0  0  0  0  0  0  0  0
    3.6135   -6.2509    3.5169 C   0  0  0  0  0  0  0  0  0  0  0  0
    4.5287   -4.1255    2.2414 C   0  0  1  0  0  0  0  0  0  0  0  0
    5.9260   -3.7770    2.2677 O   0  0  0  0  0  0  0  0  0  0  0  0
    9.8394   -3.8667    0.6085 H   0  0  0  0  0  0  0  0  0  0  0  0
    8.8043   -3.9410   -0.7035 H   0  0  0  0  0  0  0  0  0  0  0  0
    8.9597   -5.3955    0.3396 H   0  0  0  0  0  0  0  0  0  0  0  0
    6.6495   -5.5592   -0.3158 H   0  0  0  0  0  0  0  0  0  0  0  0
    6.6105   -5.9574    1.3612 H   0  0  0  0  0  0  0  0  0  0  0  0
    4.3645   -5.8821   -0.3096 H   0  0  0  0  0  0  0  0  0  0  0  0
    4.4061   -6.1287    1.2481 H   0  0  0  0  0  0  0  0  0  0  0  0
    5.2468   -4.2930   -3.9244 H   0  0  0  0  0  0  0  0  0  0  0  0
    3.6671   -2.4685   -4.4184 H   0  0  0  0  0  0  0  0  0  0  0  0
    2.3523   -0.4345   -1.9864 H   0  0  0  0  0  0  0  0  0  0  0  0
    4.1019   -0.0567   -0.2318 H   0  0  0  0  0  0  0  0  0  0  0  0
    6.9309   -1.8415    0.1837 H   0  0  0  0  0  0  0  0  0  0  0  0
    7.1224   -3.8084   -1.6674 H   0  0  0  0  0  0  0  0  0  0  0  0
    6.4032   -2.3751   -2.1287 H   0  0  0  0  0  0  0  0  0  0  0  0
    4.1007   -0.2800    2.0721 H   0  0  0  0  0  0  0  0  0  0  0  0
    5.4926   -1.3045    2.3785 H   0  0  0  0  0  0  0  0  0  0  0  0
    3.9902   -1.4435    3.2958 H   0  0  0  0  0  0  0  0  0  0  0  0
    2.0308   -1.1148    1.2834 H   0  0  0  0  0  0  0  0  0  0  0  0
    1.7955   -2.6383    0.5238 H   0  0  0  0  0  0  0  0  0  0  0  0
    2.0703   -2.1534    3.5391 H   0  0  0  0  0  0  0  0  0  0  0  0
    0.6902   -2.6611    2.6847 H   0  0  0  0  0  0  0  0  0  0  0  0
    4.8426   -4.4727    5.1561 H   0  0  0  0  0  0  0  0  0  0  0  0
    3.1515   -4.6205    5.5646 H   0  0  0  0  0  0  0  0  0  0  0  0
    3.7500   -3.1127    4.9501 H   0  0  0  0  0  0  0  0  0  0  0  0
    4.6493   -6.5879    3.5305 H   0  0  0  0  0  0  0  0  0  0  0  0
    3.0950   -6.7742    2.7130 H   0  0  0  0  0  0  0  0  0  0  0  0
    3.1519   -6.6047    4.4412 H   0  0  0  0  0  0  0  0  0  0  0  0
    4.5679   -3.3598    2.9590 H   0  0  0  0  0  0  0  0  0  0  0  0
  1  2  1  0
  1 29  1  0
  1 30  1  0
  1 31  1  0
  3  2  1  1
  3 16  1  0
  3 28  1  0
  3  4  1  0
  4  5  1  0
  4 32  1  0
  4 33  1  0
  6  5  1  1
  5 34  1  0
  5 35  1  0
  6 18  1  0
  6 27  1  0
  6  7  1  0
  7 13  2  0
  7  8  1  0
  8 17  1  0
  8  9  2  0
  9 10  1  0
  9 36  1  0
 10 11  2  0
 10 37  1  0
 11 12  1  0
 11 13  1  0
 12 38  1  0
 13 14  1  0
 14 15  1  1
 14 16  1  0
 14 18  1  0
 15 39  1  0
 16 17  1  0
 16 40  1  6
 17 41  1  0
 17 42  1  0
 18 19  1  1
 18 20  1  0
 19 43  1  0
 19 44  1  0
 19 45  1  0
 20 21  1  0
 20 46  1  0
 20 47  1  0
 21 22  1  0
 21 48  1  0
 21 49  1  0
 22 23  2  0
 22 24  1  0
 24 25  1  0
 24 26  1  0
 24 27  1  0
 25 50  1  0
 25 51  1  0
 25 52  1  0
 26 53  1  0
 26 54  1  0
 26 55  1  0
 27 28  1  0
 27 56  1  1
M  END
>  <i_m_ct_stereo_status>  (103) 
1

>  <s_m_source_file>  (103) 
/var/tmp/pbs.5076255.sched01/tmpgr0kyu9k/0plolsrat.sdf

>  <i_m_source_file_index>  (103) 
44

>  <i_lp_mmshare_version>  (103) 
48012

>  <i_f3d_flags>  (103) 
0

>  <s_epik_input>  (103) 
W0NIM11bQ0BdMTJbQ0gyXVtDSDJdQyg9TylDKFtDSDNdKShbQ0gzXSlbQ0BIXTNPW0NAQF0oT1tDSDNdKShbQ0gyXVtDSDJdNClbQ0BASF0oW0NIMl01KVtDQEBdMihbT0hdKWM2YyhbT0hdKVtjSF1bY0hdYzVjNltDQF0xMzQ=

>  <s_epik_cmdline>  (103) 
J2VwaWtfcHl0aG9uJywgJy1waHQnLCAnMi4wJywgJy1waCcsICc3LjAnLCAnLXRuJywgJzgnLCAnLW1hJywgJzIwMCcsICctaW1hZScsICc8aW5maWxlLm1hZT4nLCAnLW9tYWUnLCAnPG91dGZpbGUubWFlPic=

>  <r_lp_tautomer_probability>  (103) 
1

>  <r_epik_Ionization_Penalty>  (103) 
5.8887e-05

>  <r_epik_Ionization_Penalty_Charging>  (103) 
0

>  <r_epik_Ionization_Penalty_Neutral>  (103) 
5.8887e-05

>  <r_epik_State_Penalty>  (103) 
-0

>  <r_epik_Charging_Adjusted_Penalty>  (103) 
0

>  <i_epik_Tot_Q>  (103) 
0

>  <i_epik_Tot_abs_Q>  (103) 
0

>  <s_lp_Force_Field>  (103) 
OPLS3e

>  <r_lp_Energy>  (103) 
419.606

>  <b_lp_Chiralities_Consistent>  (103) 
1

>  <s_lp_Variant>  (103) 
31:0-1

>  <s_i_glide_gridfile>  (103) 
pfpi4k_grid

>  <i_i_glide_lignum>  (103) 
44

>  <i_i_glide_rotatable_bonds>  (103) 
3

>  <r_i_docking_score>  (103) 
-2.44879

>  <r_i_glide_ligand_efficiency>  (103) 
-0.0874567

>  <r_i_glide_ligand_efficiency_sa>  (103) 
-0.26557

>  <r_i_glide_ligand_efficiency_ln>  (103) 
-0.565252

>  <r_i_glide_gscore>  (103) 
-2.44879

>  <r_i_glide_lipo>  (103) 
-0.553153

>  <r_i_glide_hbond>  (103) 
0

>  <r_i_glide_metal>  (103) 
-0

>  <r_i_glide_rewards>  (103) 
-0.910727

>  <r_i_glide_evdw>  (103) 
-20.1552

>  <r_i_glide_ecoul>  (103) 
0.178942

>  <r_i_glide_erotb>  (103) 
0

>  <r_i_glide_esite>  (103) 
-0.00399019

>  <r_i_glide_emodel>  (103) 
-17.4871

>  <r_i_glide_energy>  (103) 
-19.9762

>  <r_i_glide_einternal>  (103) 
8.63395

>  <r_i_glide_intrahb_reward>  (103) 
-0

>  <i_i_glide_confnum>  (103) 
2

>  <i_i_glide_posenum>  (103) 
16

>  <r_i_glide_eff_state_penalty>  (103) 
0

>  <ligand_id>  (103) 
31

>  <original_smiles>  (103) 
COC12CCC34c5c6ccc(O)c5C(O)(C1C6)C3(C)CCC(=O)C(C)(C)C4O2

>  <smiles>  (103) 
[H]Oc1c([H])c([H])c2c3c1C1(O[H])C([H])(C2([H])[H])C2(OC([H])([H])[H])OC4([H])C(C([H])([H])[H])(C([H])([H])[H])C(=O)C([H])([H])C([H])([H])C1(C([H])([H])[H])C34C([H])([H])C2([H])[H]

$$$$
31:0:2
     RDKit          3D

 56 61  0  0  1  0  0  0  0  0999 V2000
    9.0974   -4.1250    1.2095 C   0  0  0  0  0  0  0  0  0  0  0  0
    8.3133   -3.0514    0.7069 O   0  0  0  0  0  0  0  0  0  0  0  0
    6.9192   -3.1264    0.7286 C   0  0  2  0  0  0  0  0  0  0  0  0
    6.5055   -4.6173    0.7694 C   0  0  0  0  0  0  0  0  0  0  0  0
    5.0170   -4.6905    0.8620 C   0  0  0  0  0  0  0  0  0  0  0  0
    4.1736   -3.3089    0.7080 C   0  0  1  0  0  0  0  0  0  0  0  0
    4.3141   -3.5324   -0.9302 C   0  0  0  0  0  0  0  0  0  0  0  0
    5.2986   -4.1075   -1.7983 C   0  0  0  0  0  0  0  0  0  0  0  0
    4.8319   -4.2557   -3.1246 C   0  0  0  0  0  0  0  0  0  0  0  0
    3.9659   -3.3267   -3.6739 C   0  0  0  0  0  0  0  0  0  0  0  0
    3.5661   -2.2043   -2.8724 C   0  0  0  0  0  0  0  0  0  0  0  0
    2.9930   -1.1295   -3.4624 O   0  0  0  0  0  0  0  0  0  0  0  0
    3.8875   -2.3778   -1.5216 C   0  0  0  0  0  0  0  0  0  0  0  0
    4.8796   -1.5809   -0.7408 C   0  0  2  0  0  0  0  0  0  0  0  0
    5.0006   -0.3747   -1.4333 O   0  0  0  0  0  0  0  0  0  0  0  0
    6.4230   -2.2266   -0.5639 C   0  0  2  0  0  0  0  0  0  0  0  0
    6.5955   -3.2587   -1.7112 C   0  0  0  0  0  0  0  0  0  0  0  0
    4.1822   -1.6478    0.5758 C   0  0  2  0  0  0  0  0  0  0  0  0
    4.7686   -0.3215    1.2870 C   0  0  0  0  0  0  0  0  0  0  0  0
    2.6578   -1.4887    0.8441 C   0  0  0  0  0  0  0  0  0  0  0  0
    2.2083   -1.6333    2.3276 C   0  0  0  0  0  0  0  0  0  0  0  0
    2.5886   -2.9427    3.0590 C   0  0  0  0  0  0  0  0  0  0  0  0
    1.6914   -3.7323    3.3493 O   0  0  0  0  0  0  0  0  0  0  0  0
    4.0881   -3.2351    3.4244 C   0  0  0  0  0  0  0  0  0  0  0  0
    4.4548   -2.2980    4.6246 C   0  0  0  0  0  0  0  0  0  0  0  0
    4.2166   -4.6646    4.0186 C   0  0  0  0  0  0  0  0  0  0  0  0
    4.9668   -3.0116    2.0954 C   0  0  1  0  0  0  0  0  0  0  0  0
    6.3625   -2.6751    1.9343 O   0  0  0  0  0  0  0  0  0  0  0  0
   10.1422   -3.8255    1.0663 H   0  0  0  0  0  0  0  0  0  0  0  0
    8.7603   -5.0323    0.7212 H   0  0  0  0  0  0  0  0  0  0  0  0
    9.0181   -4.2736    2.2866 H   0  0  0  0  0  0  0  0  0  0  0  0
    6.9788   -5.2028   -0.0372 H   0  0  0  0  0  0  0  0  0  0  0  0
    7.0036   -5.0798    1.6641 H   0  0  0  0  0  0  0  0  0  0  0  0
    4.6217   -5.4753    0.2043 H   0  0  0  0  0  0  0  0  0  0  0  0
    4.7753   -5.2260    1.7603 H   0  0  0  0  0  0  0  0  0  0  0  0
    5.2747   -4.9901   -3.7906 H   0  0  0  0  0  0  0  0  0  0  0  0
    3.6218   -3.4300   -4.6759 H   0  0  0  0  0  0  0  0  0  0  0  0
    2.5904   -1.3533   -4.2879 H   0  0  0  0  0  0  0  0  0  0  0  0
    5.2506    0.2883   -0.8176 H   0  0  0  0  0  0  0  0  0  0  0  0
    7.1738   -1.4528   -0.6616 H   0  0  0  0  0  0  0  0  0  0  0  0
    7.4995   -3.8130   -1.6604 H   0  0  0  0  0  0  0  0  0  0  0  0
    6.6399   -2.6893   -2.6476 H   0  0  0  0  0  0  0  0  0  0  0  0
    4.4121    0.5752    0.7780 H   0  0  0  0  0  0  0  0  0  0  0  0
    5.8583   -0.2704    1.2927 H   0  0  0  0  0  0  0  0  0  0  0  0
    4.4291   -0.1395    2.3094 H   0  0  0  0  0  0  0  0  0  0  0  0
    2.3292   -0.5069    0.4984 H   0  0  0  0  0  0  0  0  0  0  0  0
    2.1182   -2.2571    0.2739 H   0  0  0  0  0  0  0  0  0  0  0  0
    2.5417   -0.7785    2.9080 H   0  0  0  0  0  0  0  0  0  0  0  0
    1.1258   -1.5611    2.3237 H   0  0  0  0  0  0  0  0  0  0  0  0
    5.4850   -2.4530    4.9331 H   0  0  0  0  0  0  0  0  0  0  0  0
    3.8198   -2.4925    5.4943 H   0  0  0  0  0  0  0  0  0  0  0  0
    4.3335   -1.2337    4.3984 H   0  0  0  0  0  0  0  0  0  0  0  0
    5.2633   -4.9661    4.0577 H   0  0  0  0  0  0  0  0  0  0  0  0
    3.6586   -5.4176    3.4576 H   0  0  0  0  0  0  0  0  0  0  0  0
    3.8245   -4.7175    5.0323 H   0  0  0  0  0  0  0  0  0  0  0  0
    5.0229   -2.0575    2.5342 H   0  0  0  0  0  0  0  0  0  0  0  0
  1  2  1  0
  1 29  1  0
  1 30  1  0
  1 31  1  0
  3  2  1  1
  3 16  1  0
  3 28  1  0
  3  4  1  0
  4  5  1  0
  4 32  1  0
  4 33  1  0
  6  5  1  6
  5 34  1  0
  5 35  1  0
  6 18  1  0
  6 27  1  0
  6  7  1  0
  7 13  2  0
  7  8  1  0
  8 17  1  0
  8  9  2  0
  9 10  1  0
  9 36  1  0
 10 11  2  0
 10 37  1  0
 11 12  1  0
 11 13  1  0
 12 38  1  0
 13 14  1  0
 14 15  1  6
 14 16  1  0
 14 18  1  0
 15 39  1  0
 16 17  1  0
 16 40  1  6
 17 41  1  0
 17 42  1  0
 18 19  1  1
 18 20  1  0
 19 43  1  0
 19 44  1  0
 19 45  1  0
 20 21  1  0
 20 46  1  0
 20 47  1  0
 21 22  1  0
 21 48  1  0
 21 49  1  0
 22 23  2  0
 22 24  1  0
 24 25  1  0
 24 26  1  0
 24 27  1  0
 25 50  1  0
 25 51  1  0
 25 52  1  0
 26 53  1  0
 26 54  1  0
 26 55  1  0
 27 28  1  0
 27 56  1  6
M  END
>  <i_m_ct_stereo_status>  (104) 
1

>  <s_m_source_file>  (104) 
/var/tmp/pbs.5076255.sched01/tmpgr0kyu9k/0plolsrat.sdf

>  <i_m_source_file_index>  (104) 
44

>  <i_lp_mmshare_version>  (104) 
48012

>  <i_f3d_flags>  (104) 
0

>  <s_epik_input>  (104) 
W0NIM11bQ0BdMTJbQ0gyXVtDSDJdQyg9TylDKFtDSDNdKShbQ0gzXSlbQ0BIXTNPW0NAQF0oT1tDSDNdKShbQ0gyXVtDSDJdNClbQ0BASF0oW0NIMl01KVtDQEBdMihbT0hdKWM2YyhbT0hdKVtjSF1bY0hdYzVjNltDQF0xMzQ=

>  <s_epik_cmdline>  (104) 
J2VwaWtfcHl0aG9uJywgJy1waHQnLCAnMi4wJywgJy1waCcsICc3LjAnLCAnLXRuJywgJzgnLCAnLW1hJywgJzIwMCcsICctaW1hZScsICc8aW5maWxlLm1hZT4nLCAnLW9tYWUnLCAnPG91dGZpbGUubWFlPic=

>  <r_lp_tautomer_probability>  (104) 
1

>  <r_epik_Ionization_Penalty>  (104) 
5.8887e-05

>  <r_epik_Ionization_Penalty_Charging>  (104) 
0

>  <r_epik_Ionization_Penalty_Neutral>  (104) 
5.8887e-05

>  <r_epik_State_Penalty>  (104) 
-0

>  <r_epik_Charging_Adjusted_Penalty>  (104) 
0

>  <i_epik_Tot_Q>  (104) 
0

>  <i_epik_Tot_abs_Q>  (104) 
0

>  <s_lp_Force_Field>  (104) 
OPLS3e

>  <r_lp_Energy>  (104) 
419.606

>  <b_lp_Chiralities_Consistent>  (104) 
1

>  <s_lp_Variant>  (104) 
31:0-1

>  <s_i_glide_gridfile>  (104) 
pfpi4k_grid

>  <i_i_glide_lignum>  (104) 
44

>  <i_i_glide_rotatable_bonds>  (104) 
3

>  <r_i_docking_score>  (104) 
-1.94063

>  <r_i_glide_ligand_efficiency>  (104) 
-0.0693081

>  <r_i_glide_ligand_efficiency_sa>  (104) 
-0.21046

>  <r_i_glide_ligand_efficiency_ln>  (104) 
-0.447954

>  <r_i_glide_gscore>  (104) 
-1.94063

>  <r_i_glide_lipo>  (104) 
-0.724118

>  <r_i_glide_hbond>  (104) 
0

>  <r_i_glide_metal>  (104) 
-0

>  <r_i_glide_rewards>  (104) 
-0.913079

>  <r_i_glide_evdw>  (104) 
-8.08935

>  <r_i_glide_ecoul>  (104) 
-0.959741

>  <r_i_glide_erotb>  (104) 
0

>  <r_i_glide_esite>  (104) 
-0.000979688

>  <r_i_glide_emodel>  (104) 
6.80436

>  <r_i_glide_energy>  (104) 
-9.04909

>  <r_i_glide_einternal>  (104) 
28.069

>  <r_i_glide_intrahb_reward>  (104) 
-0

>  <i_i_glide_confnum>  (104) 
2

>  <i_i_glide_posenum>  (104) 
1

>  <r_i_glide_eff_state_penalty>  (104) 
0

>  <ligand_id>  (104) 
31

>  <original_smiles>  (104) 
COC12CCC34c5c6ccc(O)c5C(O)(C1C6)C3(C)CCC(=O)C(C)(C)C4O2

>  <smiles>  (104) 
[H]Oc1c([H])c([H])c2c3c1C1(O[H])C([H])(C2([H])[H])C2(OC([H])([H])[H])OC4([H])C(C([H])([H])[H])(C([H])([H])[H])C(=O)C([H])([H])C([H])([H])C1(C([H])([H])[H])C34C([H])([H])C2([H])[H]

$$$$
32:0:0
     RDKit          3D

 30 31  0  0  1  0  0  0  0  0999 V2000
    5.7947   -0.6286    0.3880 O   0  0  0  0  0  0  0  0  0  0  0  0
    4.5650   -0.6573    0.4305 C   0  0  0  0  0  0  0  0  0  0  0  0
    3.7843   -0.2239    1.5831 C   0  0  0  0  0  0  0  0  0  0  0  0
    2.4947    0.1640    1.4903 C   0  0  0  0  0  0  0  0  0  0  0  0
    1.6305    0.6085    2.5919 C   0  0  0  0  0  0  0  0  0  0  0  0
    2.0852    0.7034    3.9228 C   0  0  0  0  0  0  0  0  0  0  0  0
    1.2166    1.1293    4.9416 C   0  0  0  0  0  0  0  0  0  0  0  0
   -0.1148    1.4634    4.6361 C   0  0  0  0  0  0  0  0  0  0  0  0
   -0.5790    1.3714    3.3118 C   0  0  0  0  0  0  0  0  0  0  0  0
    0.2959    0.9461    2.2983 C   0  0  0  0  0  0  0  0  0  0  0  0
    3.8240   -1.0896   -0.6040 N   0  0  0  0  0  0  0  0  0  0  0  0
    4.3529   -1.4177   -1.9244 C   0  0  2  0  0  0  0  0  0  0  0  0
    3.2033   -1.5813   -2.9194 C   0  0  0  0  0  0  0  0  0  0  0  0
    3.6445   -2.7272   -3.8179 C   0  0  0  0  0  0  0  0  0  0  0  0
    4.5582   -3.4605   -3.0348 O   0  0  0  0  0  0  0  0  0  0  0  0
    5.0075   -2.8111   -1.9656 C   0  0  0  0  0  0  0  0  0  0  0  0
    5.8199   -3.2595   -1.1587 O   0  0  0  0  0  0  0  0  0  0  0  0
    4.2870   -0.2264    2.5384 H   0  0  0  0  0  0  0  0  0  0  0  0
    2.0087    0.1705    0.5295 H   0  0  0  0  0  0  0  0  0  0  0  0
    3.1010    0.4566    4.1813 H   0  0  0  0  0  0  0  0  0  0  0  0
    1.5821    1.2036    5.9571 H   0  0  0  0  0  0  0  0  0  0  0  0
   -0.7814    1.7979    5.4190 H   0  0  0  0  0  0  0  0  0  0  0  0
   -1.5979    1.6311    3.0630 H   0  0  0  0  0  0  0  0  0  0  0  0
   -0.0653    0.8873    1.2844 H   0  0  0  0  0  0  0  0  0  0  0  0
    2.8157   -1.0913   -0.5002 H   0  0  0  0  0  0  0  0  0  0  0  0
    5.0500   -0.6462   -2.2617 H   0  0  0  0  0  0  0  0  0  0  0  0
    2.2777   -1.8568   -2.4138 H   0  0  0  0  0  0  0  0  0  0  0  0
    2.9972   -0.6699   -3.4798 H   0  0  0  0  0  0  0  0  0  0  0  0
    2.8108   -3.3444   -4.1433 H   0  0  0  0  0  0  0  0  0  0  0  0
    4.1700   -2.3486   -4.6921 H   0  0  0  0  0  0  0  0  0  0  0  0
  1  2  2  0
  2  3  1  0
  2 11  1  0
  3  4  2  3
  3 18  1  0
  4  5  1  0
  4 19  1  0
  5 10  1  0
  5  6  2  0
  6  7  1  0
  6 20  1  0
  7  8  2  0
  7 21  1  0
  8  9  1  0
  8 22  1  0
  9 10  2  0
  9 23  1  0
 10 24  1  0
 11 12  1  0
 11 25  1  0
 12 16  1  0
 12 13  1  0
 12 26  1  6
 13 14  1  0
 13 27  1  0
 13 28  1  0
 14 15  1  0
 14 29  1  0
 14 30  1  0
 15 16  1  0
 16 17  2  0
M  END
>  <i_m_ct_stereo_status>  (105) 
1

>  <s_m_source_file>  (105) 
/var/tmp/pbs.5076255.sched01/tmprtix0sri/443g93ja_l.sdf

>  <i_m_source_file_index>  (105) 
1

>  <i_lp_mmshare_version>  (105) 
48012

>  <i_f3d_flags>  (105) 
0

>  <s_epik_input>  (105) 
Tz1DMU9bQ0gyXVtDSDJdW0NASF0xW05IXUMoPU8pL1tDSF09W0NIXS9jMltjSF1bY0hdW2NIXVtjSF1bY0hdMg==

>  <s_epik_cmdline>  (105) 
J2VwaWtfcHl0aG9uJywgJy1waHQnLCAnMi4wJywgJy1waCcsICc3LjAnLCAnLXRuJywgJzgnLCAnLW1hJywgJzIwMCcsICctaW1hZScsICc8aW5maWxlLm1hZT4nLCAnLW9tYWUnLCAnPG91dGZpbGUubWFlPic=

>  <r_lp_tautomer_probability>  (105) 
1

>  <r_epik_Ionization_Penalty>  (105) 
3.88249e-07

>  <r_epik_Ionization_Penalty_Charging>  (105) 
0

>  <r_epik_Ionization_Penalty_Neutral>  (105) 
3.88249e-07

>  <r_epik_State_Penalty>  (105) 
-0

>  <r_epik_Charging_Adjusted_Penalty>  (105) 
0

>  <i_epik_Tot_Q>  (105) 
0

>  <i_epik_Tot_abs_Q>  (105) 
0

>  <s_epik_Chemistry_Notes>  (105) 
This compound has an ester and may undergo hydrolysis at high or low pH.

>  <s_lp_Force_Field>  (105) 
OPLS3e

>  <r_lp_Energy>  (105) 
12.9472

>  <b_lp_Chiralities_Consistent>  (105) 
1

>  <s_lp_Variant>  (105) 
32:0-1

>  <s_i_glide_gridfile>  (105) 
pfpi4k_grid

>  <i_i_glide_lignum>  (105) 
1

>  <i_i_glide_rotatable_bonds>  (105) 
4

>  <r_i_docking_score>  (105) 
-3.315

>  <r_i_glide_ligand_efficiency>  (105) 
-0.195

>  <r_i_glide_ligand_efficiency_sa>  (105) 
-0.5014

>  <r_i_glide_ligand_efficiency_ln>  (105) 
-0.864809

>  <r_i_glide_gscore>  (105) 
-3.315

>  <r_i_glide_lipo>  (105) 
-0.156347

>  <r_i_glide_hbond>  (105) 
-0.127686

>  <r_i_glide_metal>  (105) 
-0

>  <r_i_glide_rewards>  (105) 
-2.0577

>  <r_i_glide_evdw>  (105) 
-26.201

>  <r_i_glide_ecoul>  (105) 
-1.60141

>  <r_i_glide_erotb>  (105) 
0.639687

>  <r_i_glide_esite>  (105) 
-0.0626913

>  <r_i_glide_emodel>  (105) 
-32.4147

>  <r_i_glide_energy>  (105) 
-27.8024

>  <r_i_glide_einternal>  (105) 
3.73817

>  <r_i_glide_intrahb_reward>  (105) 
-0

>  <i_i_glide_confnum>  (105) 
4

>  <i_i_glide_posenum>  (105) 
5

>  <r_i_glide_eff_state_penalty>  (105) 
0

>  <ligand_id>  (105) 
32

>  <original_smiles>  (105) 
O=C(C=Cc1ccccc1)NC1CCOC1=O

>  <smiles>  (105) 
[H]C(C(=O)N([H])C1([H])C(=O)OC([H])([H])C1([H])[H])=C([H])c1c([H])c([H])c([H])c([H])c1[H]

$$$$
32:0:1
     RDKit          3D

 30 31  0  0  1  0  0  0  0  0999 V2000
    4.5992   -0.2535    1.8949 O   0  0  0  0  0  0  0  0  0  0  0  0
    3.5283   -0.3366    1.2881 C   0  0  0  0  0  0  0  0  0  0  0  0
    2.2583    0.2106    1.7167 C   0  0  0  0  0  0  0  0  0  0  0  0
    2.0986    0.8070    2.9171 C   0  0  0  0  0  0  0  0  0  0  0  0
    0.8414    1.4110    3.4018 C   0  0  0  0  0  0  0  0  0  0  0  0
    0.7215    1.8216    4.7497 C   0  0  0  0  0  0  0  0  0  0  0  0
   -0.4817    2.3817    5.2265 C   0  0  0  0  0  0  0  0  0  0  0  0
   -1.5833    2.5327    4.3640 C   0  0  0  0  0  0  0  0  0  0  0  0
   -1.4726    2.1317    3.0208 C   0  0  0  0  0  0  0  0  0  0  0  0
   -0.2733    1.5761    2.5449 C   0  0  0  0  0  0  0  0  0  0  0  0
    3.4144   -0.9546    0.1027 N   0  0  0  0  0  0  0  0  0  0  0  0
    4.5503   -1.5021   -0.6301 C   0  0  2  0  0  0  0  0  0  0  0  0
    4.2052   -1.6245   -2.1183 C   0  0  0  0  0  0  0  0  0  0  0  0
    3.6874   -3.0487   -2.2830 C   0  0  0  0  0  0  0  0  0  0  0  0
    4.2999   -3.7484   -1.2184 O   0  0  0  0  0  0  0  0  0  0  0  0
    4.7660   -2.9677   -0.2419 C   0  0  0  0  0  0  0  0  0  0  0  0
    5.2827   -3.3712    0.7981 O   0  0  0  0  0  0  0  0  0  0  0  0
    1.4217    0.1372    1.0384 H   0  0  0  0  0  0  0  0  0  0  0  0
    2.9511    0.8639    3.5811 H   0  0  0  0  0  0  0  0  0  0  0  0
    1.5579    1.7104    5.4258 H   0  0  0  0  0  0  0  0  0  0  0  0
   -0.5652    2.6906    6.2595 H   0  0  0  0  0  0  0  0  0  0  0  0
   -2.5105    2.9549    4.7189 H   0  0  0  0  0  0  0  0  0  0  0  0
   -2.3032    2.2404    2.3431 H   0  0  0  0  0  0  0  0  0  0  0  0
   -0.2410    1.2996    1.5065 H   0  0  0  0  0  0  0  0  0  0  0  0
    2.4829   -1.0203   -0.3127 H   0  0  0  0  0  0  0  0  0  0  0  0
    5.4527   -0.9037   -0.4770 H   0  0  0  0  0  0  0  0  0  0  0  0
    3.4963   -0.8759   -2.4773 H   0  0  0  0  0  0  0  0  0  0  0  0
    5.1169   -1.5082   -2.7048 H   0  0  0  0  0  0  0  0  0  0  0  0
    2.6036   -3.0906   -2.1757 H   0  0  0  0  0  0  0  0  0  0  0  0
    3.9554   -3.4817   -3.2451 H   0  0  0  0  0  0  0  0  0  0  0  0
  1  2  2  0
  2  3  1  0
  2 11  1  0
  3  4  2  3
  3 18  1  0
  4  5  1  0
  4 19  1  0
  5 10  1  0
  5  6  2  0
  6  7  1  0
  6 20  1  0
  7  8  2  0
  7 21  1  0
  8  9  1  0
  8 22  1  0
  9 10  2  0
  9 23  1  0
 10 24  1  0
 11 12  1  0
 11 25  1  0
 12 16  1  0
 12 13  1  0
 12 26  1  6
 13 14  1  0
 13 27  1  0
 13 28  1  0
 14 15  1  0
 14 29  1  0
 14 30  1  0
 15 16  1  0
 16 17  2  0
M  END
>  <i_m_ct_stereo_status>  (106) 
1

>  <s_m_source_file>  (106) 
/var/tmp/pbs.5076255.sched01/tmprtix0sri/443g93ja_l.sdf

>  <i_m_source_file_index>  (106) 
1

>  <i_lp_mmshare_version>  (106) 
48012

>  <i_f3d_flags>  (106) 
0

>  <s_epik_input>  (106) 
Tz1DMU9bQ0gyXVtDSDJdW0NASF0xW05IXUMoPU8pL1tDSF09W0NIXS9jMltjSF1bY0hdW2NIXVtjSF1bY0hdMg==

>  <s_epik_cmdline>  (106) 
J2VwaWtfcHl0aG9uJywgJy1waHQnLCAnMi4wJywgJy1waCcsICc3LjAnLCAnLXRuJywgJzgnLCAnLW1hJywgJzIwMCcsICctaW1hZScsICc8aW5maWxlLm1hZT4nLCAnLW9tYWUnLCAnPG91dGZpbGUubWFlPic=

>  <r_lp_tautomer_probability>  (106) 
1

>  <r_epik_Ionization_Penalty>  (106) 
3.88249e-07

>  <r_epik_Ionization_Penalty_Charging>  (106) 
0

>  <r_epik_Ionization_Penalty_Neutral>  (106) 
3.88249e-07

>  <r_epik_State_Penalty>  (106) 
-0

>  <r_epik_Charging_Adjusted_Penalty>  (106) 
0

>  <i_epik_Tot_Q>  (106) 
0

>  <i_epik_Tot_abs_Q>  (106) 
0

>  <s_epik_Chemistry_Notes>  (106) 
This compound has an ester and may undergo hydrolysis at high or low pH.

>  <s_lp_Force_Field>  (106) 
OPLS3e

>  <r_lp_Energy>  (106) 
12.9472

>  <b_lp_Chiralities_Consistent>  (106) 
1

>  <s_lp_Variant>  (106) 
32:0-1

>  <s_i_glide_gridfile>  (106) 
pfpi4k_grid

>  <i_i_glide_lignum>  (106) 
1

>  <i_i_glide_rotatable_bonds>  (106) 
4

>  <r_i_docking_score>  (106) 
-3.09358

>  <r_i_glide_ligand_efficiency>  (106) 
-0.181975

>  <r_i_glide_ligand_efficiency_sa>  (106) 
-0.46791

>  <r_i_glide_ligand_efficiency_ln>  (106) 
-0.807047

>  <r_i_glide_gscore>  (106) 
-3.09358

>  <r_i_glide_lipo>  (106) 
0

>  <r_i_glide_hbond>  (106) 
-0.165549

>  <r_i_glide_metal>  (106) 
-0

>  <r_i_glide_rewards>  (106) 
-1.85253

>  <r_i_glide_evdw>  (106) 
-21.7501

>  <r_i_glide_ecoul>  (106) 
-3.65517

>  <r_i_glide_erotb>  (106) 
0.639687

>  <r_i_glide_esite>  (106) 
-0.0794127

>  <r_i_glide_emodel>  (106) 
-30.8821

>  <r_i_glide_energy>  (106) 
-25.4053

>  <r_i_glide_einternal>  (106) 
1.07581

>  <r_i_glide_intrahb_reward>  (106) 
-0

>  <i_i_glide_confnum>  (106) 
5

>  <i_i_glide_posenum>  (106) 
15

>  <r_i_glide_eff_state_penalty>  (106) 
0

>  <ligand_id>  (106) 
32

>  <original_smiles>  (106) 
O=C(C=Cc1ccccc1)NC1CCOC1=O

>  <smiles>  (106) 
[H]C(C(=O)N([H])C1([H])C(=O)OC([H])([H])C1([H])[H])=C([H])c1c([H])c([H])c([H])c([H])c1[H]

$$$$
32:0:2
     RDKit          3D

 30 31  0  0  1  0  0  0  0  0999 V2000
    2.7732    0.5011    3.7774 O   0  0  0  0  0  0  0  0  0  0  0  0
    2.3267    0.5586    2.6324 C   0  0  0  0  0  0  0  0  0  0  0  0
    2.9569    0.0079    1.4442 C   0  0  0  0  0  0  0  0  0  0  0  0
    4.1263   -0.6577    1.5078 C   0  0  0  0  0  0  0  0  0  0  0  0
    4.8010   -1.2906    0.3545 C   0  0  0  0  0  0  0  0  0  0  0  0
    6.1330   -1.7459    0.4756 C   0  0  0  0  0  0  0  0  0  0  0  0
    6.7973   -2.3324   -0.6234 C   0  0  0  0  0  0  0  0  0  0  0  0
    6.1345   -2.4654   -1.8607 C   0  0  0  0  0  0  0  0  0  0  0  0
    4.8118   -2.0112   -1.9928 C   0  0  0  0  0  0  0  0  0  0  0  0
    4.1518   -1.4351   -0.8952 C   0  0  0  0  0  0  0  0  0  0  0  0
    1.1448    1.1231    2.3477 N   0  0  0  0  0  0  0  0  0  0  0  0
    0.2199    1.6229    3.3625 C   0  0  2  0  0  0  0  0  0  0  0  0
   -1.2052    1.6735    2.8094 C   0  0  0  0  0  0  0  0  0  0  0  0
   -1.8121    2.9271    3.4241 C   0  0  0  0  0  0  0  0  0  0  0  0
   -0.6994    3.7440    3.7143 O   0  0  0  0  0  0  0  0  0  0  0  0
    0.4755    3.1028    3.6942 C   0  0  0  0  0  0  0  0  0  0  0  0
    1.5675    3.6184    3.9316 O   0  0  0  0  0  0  0  0  0  0  0  0
    2.4542    0.1324    0.5001 H   0  0  0  0  0  0  0  0  0  0  0  0
    4.6142   -0.7613    2.4679 H   0  0  0  0  0  0  0  0  0  0  0  0
    6.6506   -1.6478    1.4179 H   0  0  0  0  0  0  0  0  0  0  0  0
    7.8177   -2.6780   -0.5240 H   0  0  0  0  0  0  0  0  0  0  0  0
    6.6393   -2.9110   -2.7090 H   0  0  0  0  0  0  0  0  0  0  0  0
    4.2856   -2.1026   -2.9310 H   0  0  0  0  0  0  0  0  0  0  0  0
    3.1336   -1.1227   -1.0415 H   0  0  0  0  0  0  0  0  0  0  0  0
    0.8474    1.1641    1.3803 H   0  0  0  0  0  0  0  0  0  0  0  0
    0.2611    1.0187    4.2727 H   0  0  0  0  0  0  0  0  0  0  0  0
   -1.2014    1.7585    1.7224 H   0  0  0  0  0  0  0  0  0  0  0  0
   -1.7740    0.7796    3.0632 H   0  0  0  0  0  0  0  0  0  0  0  0
   -2.5159    3.4182    2.7588 H   0  0  0  0  0  0  0  0  0  0  0  0
   -2.3247    2.6941    4.3565 H   0  0  0  0  0  0  0  0  0  0  0  0
  1  2  2  0
  2  3  1  0
  2 11  1  0
  3  4  2  3
  3 18  1  0
  4  5  1  0
  4 19  1  0
  5 10  1  0
  5  6  2  0
  6  7  1  0
  6 20  1  0
  7  8  2  0
  7 21  1  0
  8  9  1  0
  8 22  1  0
  9 10  2  0
  9 23  1  0
 10 24  1  0
 11 12  1  0
 11 25  1  0
 12 16  1  0
 12 13  1  0
 12 26  1  1
 13 14  1  0
 13 27  1  0
 13 28  1  0
 14 15  1  0
 14 29  1  0
 14 30  1  0
 15 16  1  0
 16 17  2  0
M  END
>  <i_m_ct_stereo_status>  (107) 
1

>  <s_m_source_file>  (107) 
/var/tmp/pbs.5076255.sched01/tmprtix0sri/443g93ja_l.sdf

>  <i_m_source_file_index>  (107) 
1

>  <i_lp_mmshare_version>  (107) 
48012

>  <i_f3d_flags>  (107) 
0

>  <s_epik_input>  (107) 
Tz1DMU9bQ0gyXVtDSDJdW0NASF0xW05IXUMoPU8pL1tDSF09W0NIXS9jMltjSF1bY0hdW2NIXVtjSF1bY0hdMg==

>  <s_epik_cmdline>  (107) 
J2VwaWtfcHl0aG9uJywgJy1waHQnLCAnMi4wJywgJy1waCcsICc3LjAnLCAnLXRuJywgJzgnLCAnLW1hJywgJzIwMCcsICctaW1hZScsICc8aW5maWxlLm1hZT4nLCAnLW9tYWUnLCAnPG91dGZpbGUubWFlPic=

>  <r_lp_tautomer_probability>  (107) 
1

>  <r_epik_Ionization_Penalty>  (107) 
3.88249e-07

>  <r_epik_Ionization_Penalty_Charging>  (107) 
0

>  <r_epik_Ionization_Penalty_Neutral>  (107) 
3.88249e-07

>  <r_epik_State_Penalty>  (107) 
-0

>  <r_epik_Charging_Adjusted_Penalty>  (107) 
0

>  <i_epik_Tot_Q>  (107) 
0

>  <i_epik_Tot_abs_Q>  (107) 
0

>  <s_epik_Chemistry_Notes>  (107) 
This compound has an ester and may undergo hydrolysis at high or low pH.

>  <s_lp_Force_Field>  (107) 
OPLS3e

>  <r_lp_Energy>  (107) 
12.9472

>  <b_lp_Chiralities_Consistent>  (107) 
1

>  <s_lp_Variant>  (107) 
32:0-1

>  <s_i_glide_gridfile>  (107) 
pfpi4k_grid

>  <i_i_glide_lignum>  (107) 
1

>  <i_i_glide_rotatable_bonds>  (107) 
4

>  <r_i_docking_score>  (107) 
-2.946

>  <r_i_glide_ligand_efficiency>  (107) 
-0.173294

>  <r_i_glide_ligand_efficiency_sa>  (107) 
-0.445588

>  <r_i_glide_ligand_efficiency_ln>  (107) 
-0.768547

>  <r_i_glide_gscore>  (107) 
-2.946

>  <r_i_glide_lipo>  (107) 
-0.185968

>  <r_i_glide_hbond>  (107) 
0

>  <r_i_glide_metal>  (107) 
-0

>  <r_i_glide_rewards>  (107) 
-1.83241

>  <r_i_glide_evdw>  (107) 
-23.2823

>  <r_i_glide_ecoul>  (107) 
-1.92847

>  <r_i_glide_erotb>  (107) 
0.639687

>  <r_i_glide_esite>  (107) 
-0.113933

>  <r_i_glide_emodel>  (107) 
-30.2925

>  <r_i_glide_energy>  (107) 
-25.2107

>  <r_i_glide_einternal>  (107) 
1.31085

>  <r_i_glide_intrahb_reward>  (107) 
-0

>  <i_i_glide_confnum>  (107) 
3

>  <i_i_glide_posenum>  (107) 
11

>  <r_i_glide_eff_state_penalty>  (107) 
0

>  <ligand_id>  (107) 
32

>  <original_smiles>  (107) 
O=C(C=Cc1ccccc1)NC1CCOC1=O

>  <smiles>  (107) 
[H]C(C(=O)N([H])C1([H])C(=O)OC([H])([H])C1([H])[H])=C([H])c1c([H])c([H])c([H])c([H])c1[H]

$$$$
33:0:0
     RDKit          3D

 46 48  0  0  1  0  0  0  0  0999 V2000
    5.7394   -4.7428    3.0948 C   0  0  0  0  0  0  0  0  0  0  0  0
    5.2666   -3.4424    3.4629 O   0  0  0  0  0  0  0  0  0  0  0  0
    4.6828   -2.5364    2.5006 C   0  0  2  0  0  0  0  0  0  0  0  0
    5.0120   -1.1376    3.1199 C   0  0  0  0  0  0  0  0  0  0  0  0
    5.7670   -0.3206    2.6160 O   0  0  0  0  0  0  0  0  0  0  0  0
    4.3903   -0.8118    4.4911 C   0  0  0  0  0  0  0  0  0  0  0  0
    3.0642   -1.5420    4.7628 C   0  0  0  0  0  0  0  0  0  0  0  0
    2.2993   -1.9074    3.4788 C   0  0  0  0  0  0  0  0  0  0  0  0
    1.1208   -1.6294    3.3572 O   0  0  0  0  0  0  0  0  0  0  0  0
    3.0883   -2.7578    2.4211 C   0  0  2  0  0  0  0  0  0  0  0  0
    2.6511   -4.2104    2.7246 C   0  0  0  0  0  0  0  0  0  0  0  0
    2.5214   -2.4992    0.9814 C   0  0  0  0  0  0  0  0  0  0  0  0
    3.2944   -1.5079    0.1302 C   0  0  1  0  0  0  0  0  0  0  0  0
    4.7780   -1.6167    0.1161 C   0  0  1  0  0  0  0  0  0  0  0  0
    5.3310   -2.6708    1.0698 C   0  0  1  0  0  0  0  0  0  0  0  0
    6.7557   -2.5873    1.0894 O   0  0  0  0  0  0  0  0  0  0  0  0
    7.4665   -2.9872    0.0162 C   0  0  0  0  0  0  0  0  0  0  0  0
    8.9665   -2.9106    0.2392 C   0  0  0  0  0  0  0  0  0  0  0  0
    7.0133   -3.3620   -1.0571 O   0  0  0  0  0  0  0  0  0  0  0  0
    4.0098   -1.9123   -1.1520 C   0  0  0  0  0  0  0  0  0  0  0  0
    3.9241   -3.3181   -1.7344 C   0  0  0  0  0  0  0  0  0  0  0  0
    4.1280   -0.9146   -2.2940 C   0  0  0  0  0  0  0  0  0  0  0  0
    6.2401   -5.1700    3.9632 H   0  0  0  0  0  0  0  0  0  0  0  0
    6.4760   -4.7307    2.2931 H   0  0  0  0  0  0  0  0  0  0  0  0
    4.9688   -5.4583    2.8179 H   0  0  0  0  0  0  0  0  0  0  0  0
    5.1149   -1.0074    5.2841 H   0  0  0  0  0  0  0  0  0  0  0  0
    4.1956    0.2651    4.5141 H   0  0  0  0  0  0  0  0  0  0  0  0
    3.2838   -2.4704    5.2901 H   0  0  0  0  0  0  0  0  0  0  0  0
    2.4242   -0.9557    5.4292 H   0  0  0  0  0  0  0  0  0  0  0  0
    3.0708   -4.9034    1.9969 H   0  0  0  0  0  0  0  0  0  0  0  0
    1.5705   -4.3366    2.6463 H   0  0  0  0  0  0  0  0  0  0  0  0
    2.9370   -4.5281    3.7258 H   0  0  0  0  0  0  0  0  0  0  0  0
    2.4656   -3.4403    0.4399 H   0  0  0  0  0  0  0  0  0  0  0  0
    1.4958   -2.1446    1.0035 H   0  0  0  0  0  0  0  0  0  0  0  0
    2.9022   -0.4970    0.1698 H   0  0  0  0  0  0  0  0  0  0  0  0
    5.3258   -0.6817    0.1186 H   0  0  0  0  0  0  0  0  0  0  0  0
    5.0588   -3.6483    0.6968 H   0  0  0  0  0  0  0  0  0  0  0  0
    9.2662   -3.6176    1.0090 H   0  0  0  0  0  0  0  0  0  0  0  0
    9.2583   -1.9045    0.5327 H   0  0  0  0  0  0  0  0  0  0  0  0
    9.4722   -3.1614   -0.6925 H   0  0  0  0  0  0  0  0  0  0  0  0
    4.7605   -3.5060   -2.4089 H   0  0  0  0  0  0  0  0  0  0  0  0
    2.9907   -3.4449   -2.2882 H   0  0  0  0  0  0  0  0  0  0  0  0
    3.9585   -4.0946   -0.9650 H   0  0  0  0  0  0  0  0  0  0  0  0
    5.0123   -1.1360   -2.8912 H   0  0  0  0  0  0  0  0  0  0  0  0
    4.2261    0.0979   -1.9087 H   0  0  0  0  0  0  0  0  0  0  0  0
    3.2408   -0.9585   -2.9304 H   0  0  0  0  0  0  0  0  0  0  0  0
  1  2  1  0
  1 23  1  0
  1 24  1  0
  1 25  1  0
  3  2  1  1
  3 10  1  0
  3 15  1  0
  3  4  1  0
  4  5  2  0
  4  6  1  0
  6  7  1  0
  6 26  1  0
  6 27  1  0
  7  8  1  0
  7 28  1  0
  7 29  1  0
  8  9  2  0
  8 10  1  0
 10 11  1  1
 10 12  1  0
 11 30  1  0
 11 31  1  0
 11 32  1  0
 12 13  1  0
 12 33  1  0
 12 34  1  0
 13 20  1  0
 13 14  1  0
 13 35  1  6
 14 15  1  0
 14 20  1  0
 14 36  1  6
 15 16  1  0
 15 37  1  6
 16 17  1  0
 17 18  1  0
 17 19  2  0
 18 38  1  0
 18 39  1  0
 18 40  1  0
 20 21  1  0
 20 22  1  0
 21 41  1  0
 21 42  1  0
 21 43  1  0
 22 44  1  0
 22 45  1  0
 22 46  1  0
M  END
>  <i_m_ct_stereo_status>  (108) 
1

>  <s_m_source_file>  (108) 
/var/tmp/pbs.5076255.sched01/tmprtix0sri/443g93ja_l.sdf

>  <i_m_source_file_index>  (108) 
3

>  <i_lp_mmshare_version>  (108) 
48012

>  <i_f3d_flags>  (108) 
0

>  <s_epik_input>  (108) 
Tz1DMVtDSDJdW0NIMl1DKD1PKVtDQF0oW0NIM10pKFtDQF0xMk9bQ0gzXSlbQ0gyXVtDQEhdM1tDQEhdKEMzKFtDSDNdKVtDSDNdKVtDSF0yT0MoPU8pW0NIM10=

>  <s_epik_cmdline>  (108) 
J2VwaWtfcHl0aG9uJywgJy1waHQnLCAnMi4wJywgJy1waCcsICc3LjAnLCAnLXRuJywgJzgnLCAnLW1hJywgJzIwMCcsICctaW1hZScsICc8aW5maWxlLm1hZT4nLCAnLW9tYWUnLCAnPG91dGZpbGUubWFlPic=

>  <r_lp_tautomer_probability>  (108) 
1

>  <r_epik_Ionization_Penalty>  (108) 
1.20581e-10

>  <r_epik_Ionization_Penalty_Charging>  (108) 
0

>  <r_epik_Ionization_Penalty_Neutral>  (108) 
1.20581e-10

>  <r_epik_State_Penalty>  (108) 
-0

>  <r_epik_Charging_Adjusted_Penalty>  (108) 
0

>  <i_epik_Tot_Q>  (108) 
0

>  <i_epik_Tot_abs_Q>  (108) 
0

>  <s_epik_Chemistry_Notes>  (108) 
This compound has an ester and may undergo hydrolysis at high or low pH.

>  <s_lp_Force_Field>  (108) 
OPLS3e

>  <r_lp_Energy>  (108) 
38.6953

>  <b_lp_Chiralities_Consistent>  (108) 
1

>  <s_lp_Variant>  (108) 
33:0-1

>  <s_i_glide_gridfile>  (108) 
pfpi4k_grid

>  <i_i_glide_lignum>  (108) 
3

>  <i_i_glide_rotatable_bonds>  (108) 
3

>  <r_i_docking_score>  (108) 
-2.60164

>  <r_i_glide_ligand_efficiency>  (108) 
-0.118256

>  <r_i_glide_ligand_efficiency_sa>  (108) 
-0.331359

>  <r_i_glide_ligand_efficiency_ln>  (108) 
-0.635936

>  <r_i_glide_gscore>  (108) 
-2.60164

>  <r_i_glide_lipo>  (108) 
-0.112847

>  <r_i_glide_hbond>  (108) 
-0.140333

>  <r_i_glide_metal>  (108) 
-0

>  <r_i_glide_rewards>  (108) 
-1.61863

>  <r_i_glide_evdw>  (108) 
-19.6682

>  <r_i_glide_ecoul>  (108) 
0.393506

>  <r_i_glide_erotb>  (108) 
0.194555

>  <r_i_glide_esite>  (108) 
0

>  <r_i_glide_emodel>  (108) 
-19.9625

>  <r_i_glide_energy>  (108) 
-19.2747

>  <r_i_glide_einternal>  (108) 
4.42854

>  <r_i_glide_intrahb_reward>  (108) 
-0

>  <i_i_glide_confnum>  (108) 
3

>  <i_i_glide_posenum>  (108) 
6

>  <r_i_glide_eff_state_penalty>  (108) 
0

>  <ligand_id>  (108) 
33

>  <original_smiles>  (108) 
COC12C(=O)CCC(=O)C1(C)CC1C(C2OC(C)=O)C1(C)C

>  <smiles>  (108) 
[H]C([H])([H])OC12C(=O)C([H])([H])C([H])([H])C(=O)C1(C([H])([H])[H])C([H])([H])C1([H])C([H])(C2([H])OC(=O)C([H])([H])[H])C1(C([H])([H])[H])C([H])([H])[H]

$$$$
33:0:1
     RDKit          3D

 46 48  0  0  1  0  0  0  0  0999 V2000
    5.7491   -5.1995    1.7157 C   0  0  0  0  0  0  0  0  0  0  0  0
    5.7973   -3.8225    1.2059 O   0  0  0  0  0  0  0  0  0  0  0  0
    4.6160   -3.0068    1.0366 C   0  0  2  0  0  0  0  0  0  0  0  0
    3.6880   -3.7281    0.0131 C   0  0  0  0  0  0  0  0  0  0  0  0
    2.5484   -4.1250    0.2904 O   0  0  0  0  0  0  0  0  0  0  0  0
    4.2767   -4.0117   -1.3641 C   0  0  0  0  0  0  0  0  0  0  0  0
    5.4038   -3.0484   -1.7902 C   0  0  0  0  0  0  0  0  0  0  0  0
    5.2663   -1.6705   -1.1417 C   0  0  0  0  0  0  0  0  0  0  0  0
    5.2606   -0.6584   -1.8586 O   0  0  0  0  0  0  0  0  0  0  0  0
    5.2059   -1.6289    0.4063 C   0  0  2  0  0  0  0  0  0  0  0  0
    6.6720   -1.3691    0.8476 C   0  0  0  0  0  0  0  0  0  0  0  0
    4.4245   -0.3388    0.8971 C   0  0  0  0  0  0  0  0  0  0  0  0
    2.9785   -0.5377    1.2955 C   0  0  1  0  0  0  0  0  0  0  0  0
    2.6768   -1.7550    2.1586 C   0  0  1  0  0  0  0  0  0  0  0  0
    3.8937   -2.6687    2.3855 C   0  0  1  0  0  0  0  0  0  0  0  0
    3.3789   -3.8194    3.0749 O   0  0  0  0  0  0  0  0  0  0  0  0
    4.0269   -4.3468    4.1170 C   0  0  0  0  0  0  0  0  0  0  0  0
    3.3681   -5.6208    4.6352 C   0  0  0  0  0  0  0  0  0  0  0  0
    5.1359   -3.9788    4.5477 O   0  0  0  0  0  0  0  0  0  0  0  0
    2.4750   -0.3612    2.7305 C   0  0  0  0  0  0  0  0  0  0  0  0
    3.3812    0.1532    3.8455 C   0  0  0  0  0  0  0  0  0  0  0  0
    1.0516    0.1150    2.9378 C   0  0  0  0  0  0  0  0  0  0  0  0
    6.6254   -5.7043    1.3372 H   0  0  0  0  0  0  0  0  0  0  0  0
    4.8742   -5.7423    1.2770 H   0  0  0  0  0  0  0  0  0  0  0  0
    5.7751   -5.2320    2.7046 H   0  0  0  0  0  0  0  0  0  0  0  0
    4.6357   -5.0446   -1.3713 H   0  0  0  0  0  0  0  0  0  0  0  0
    3.4750   -3.9432   -2.1030 H   0  0  0  0  0  0  0  0  0  0  0  0
    6.3650   -3.4724   -1.4941 H   0  0  0  0  0  0  0  0  0  0  0  0
    5.4276   -2.9469   -2.8722 H   0  0  0  0  0  0  0  0  0  0  0  0
    6.7617   -1.3458    1.9327 H   0  0  0  0  0  0  0  0  0  0  0  0
    7.0312   -0.4046    0.4854 H   0  0  0  0  0  0  0  0  0  0  0  0
    7.3702   -2.1210    0.4751 H   0  0  0  0  0  0  0  0  0  0  0  0
    4.9458    0.0603    1.7652 H   0  0  0  0  0  0  0  0  0  0  0  0
    4.4790    0.4933    0.1860 H   0  0  0  0  0  0  0  0  0  0  0  0
    2.2639   -0.2934    0.5147 H   0  0  0  0  0  0  0  0  0  0  0  0
    1.7647   -2.2875    1.9077 H   0  0  0  0  0  0  0  0  0  0  0  0
    4.6015   -2.1466    3.0217 H   0  0  0  0  0  0  0  0  0  0  0  0
    3.2129   -6.3217    3.8333 H   0  0  0  0  0  0  0  0  0  0  0  0
    2.4071   -5.3674    5.0899 H   0  0  0  0  0  0  0  0  0  0  0  0
    3.9969   -6.1084    5.3992 H   0  0  0  0  0  0  0  0  0  0  0  0
    2.9695   -0.1289    4.8140 H   0  0  0  0  0  0  0  0  0  0  0  0
    3.4528    1.2393    3.7941 H   0  0  0  0  0  0  0  0  0  0  0  0
    4.3850   -0.2500    3.7967 H   0  0  0  0  0  0  0  0  0  0  0  0
    0.6674   -0.2380    3.8929 H   0  0  0  0  0  0  0  0  0  0  0  0
    0.3903   -0.2591    2.1544 H   0  0  0  0  0  0  0  0  0  0  0  0
    0.9999    1.2015    2.9229 H   0  0  0  0  0  0  0  0  0  0  0  0
  1  2  1  0
  1 23  1  0
  1 24  1  0
  1 25  1  0
  3  2  1  1
  3 10  1  0
  3 15  1  0
  3  4  1  0
  4  5  2  0
  4  6  1  0
  6  7  1  0
  6 26  1  0
  6 27  1  0
  7  8  1  0
  7 28  1  0
  7 29  1  0
  8  9  2  0
  8 10  1  0
 10 11  1  1
 10 12  1  0
 11 30  1  0
 11 31  1  0
 11 32  1  0
 12 13  1  0
 12 33  1  0
 12 34  1  0
 13 20  1  0
 13 14  1  0
 13 35  1  6
 14 15  1  0
 14 20  1  0
 14 36  1  6
 15 16  1  0
 15 37  1  1
 16 17  1  0
 17 18  1  0
 17 19  2  0
 18 38  1  0
 18 39  1  0
 18 40  1  0
 20 21  1  0
 20 22  1  0
 21 41  1  0
 21 42  1  0
 21 43  1  0
 22 44  1  0
 22 45  1  0
 22 46  1  0
M  END
>  <i_m_ct_stereo_status>  (109) 
1

>  <s_m_source_file>  (109) 
/var/tmp/pbs.5076255.sched01/tmprtix0sri/443g93ja_l.sdf

>  <i_m_source_file_index>  (109) 
3

>  <i_lp_mmshare_version>  (109) 
48012

>  <i_f3d_flags>  (109) 
0

>  <s_epik_input>  (109) 
Tz1DMVtDSDJdW0NIMl1DKD1PKVtDQF0oW0NIM10pKFtDQF0xMk9bQ0gzXSlbQ0gyXVtDQEhdM1tDQEhdKEMzKFtDSDNdKVtDSDNdKVtDSF0yT0MoPU8pW0NIM10=

>  <s_epik_cmdline>  (109) 
J2VwaWtfcHl0aG9uJywgJy1waHQnLCAnMi4wJywgJy1waCcsICc3LjAnLCAnLXRuJywgJzgnLCAnLW1hJywgJzIwMCcsICctaW1hZScsICc8aW5maWxlLm1hZT4nLCAnLW9tYWUnLCAnPG91dGZpbGUubWFlPic=

>  <r_lp_tautomer_probability>  (109) 
1

>  <r_epik_Ionization_Penalty>  (109) 
1.20581e-10

>  <r_epik_Ionization_Penalty_Charging>  (109) 
0

>  <r_epik_Ionization_Penalty_Neutral>  (109) 
1.20581e-10

>  <r_epik_State_Penalty>  (109) 
-0

>  <r_epik_Charging_Adjusted_Penalty>  (109) 
0

>  <i_epik_Tot_Q>  (109) 
0

>  <i_epik_Tot_abs_Q>  (109) 
0

>  <s_epik_Chemistry_Notes>  (109) 
This compound has an ester and may undergo hydrolysis at high or low pH.

>  <s_lp_Force_Field>  (109) 
OPLS3e

>  <r_lp_Energy>  (109) 
38.6953

>  <b_lp_Chiralities_Consistent>  (109) 
1

>  <s_lp_Variant>  (109) 
33:0-1

>  <s_i_glide_gridfile>  (109) 
pfpi4k_grid

>  <i_i_glide_lignum>  (109) 
3

>  <i_i_glide_rotatable_bonds>  (109) 
3

>  <r_i_docking_score>  (109) 
-2.59755

>  <r_i_glide_ligand_efficiency>  (109) 
-0.118071

>  <r_i_glide_ligand_efficiency_sa>  (109) 
-0.330839

>  <r_i_glide_ligand_efficiency_ln>  (109) 
-0.634937

>  <r_i_glide_gscore>  (109) 
-2.59755

>  <r_i_glide_lipo>  (109) 
-0.362739

>  <r_i_glide_hbond>  (109) 
0

>  <r_i_glide_metal>  (109) 
-0

>  <r_i_glide_rewards>  (109) 
-1.30657

>  <r_i_glide_evdw>  (109) 
-17.3816

>  <r_i_glide_ecoul>  (109) 
-1.41909

>  <r_i_glide_erotb>  (109) 
0.194555

>  <r_i_glide_esite>  (109) 
-0.0408543

>  <r_i_glide_emodel>  (109) 
-21.0984

>  <r_i_glide_energy>  (109) 
-18.8007

>  <r_i_glide_einternal>  (109) 
0.00308156

>  <r_i_glide_intrahb_reward>  (109) 
-0

>  <i_i_glide_confnum>  (109) 
3

>  <i_i_glide_posenum>  (109) 
1

>  <r_i_glide_eff_state_penalty>  (109) 
0

>  <ligand_id>  (109) 
33

>  <original_smiles>  (109) 
COC12C(=O)CCC(=O)C1(C)CC1C(C2OC(C)=O)C1(C)C

>  <smiles>  (109) 
[H]C([H])([H])OC12C(=O)C([H])([H])C([H])([H])C(=O)C1(C([H])([H])[H])C([H])([H])C1([H])C([H])(C2([H])OC(=O)C([H])([H])[H])C1(C([H])([H])[H])C([H])([H])[H]

$$$$
33:0:2
     RDKit          3D

 46 48  0  0  1  0  0  0  0  0999 V2000
    2.3606   -0.8518    3.8134 C   0  0  0  0  0  0  0  0  0  0  0  0
    2.3768    0.5198    4.2158 O   0  0  0  0  0  0  0  0  0  0  0  0
    1.1483    1.2643    4.3686 C   0  0  2  0  0  0  0  0  0  0  0  0
    0.3620    1.1864    3.0199 C   0  0  0  0  0  0  0  0  0  0  0  0
   -0.7470    0.6613    2.9119 O   0  0  0  0  0  0  0  0  0  0  0  0
    1.0851    1.7155    1.7825 C   0  0  0  0  0  0  0  0  0  0  0  0
    2.1170    2.8225    2.1049 C   0  0  0  0  0  0  0  0  0  0  0  0
    1.8155    3.6001    3.3874 C   0  0  0  0  0  0  0  0  0  0  0  0
    1.8034    4.8327    3.3858 O   0  0  0  0  0  0  0  0  0  0  0  0
    1.6431    2.7630    4.6820 C   0  0  2  0  0  0  0  0  0  0  0  0
    3.0520    2.7850    5.3448 C   0  0  0  0  0  0  0  0  0  0  0  0
    0.7226    3.5194    5.7102 C   0  0  0  0  0  0  0  0  0  0  0  0
   -0.7220    3.0586    5.7581 C   0  0  1  0  0  0  0  0  0  0  0  0
   -0.9648    1.5694    5.7666 C   0  0  1  0  0  0  0  0  0  0  0  0
    0.3065    0.7395    5.5823 C   0  0  1  0  0  0  0  0  0  0  0  0
   -0.0661   -0.6313    5.4495 O   0  0  0  0  0  0  0  0  0  0  0  0
   -0.1026   -1.4297    6.5265 C   0  0  0  0  0  0  0  0  0  0  0  0
   -0.4393   -2.8723    6.1769 C   0  0  0  0  0  0  0  0  0  0  0  0
    0.0878   -1.0858    7.6917 O   0  0  0  0  0  0  0  0  0  0  0  0
   -1.3339    2.3932    6.9827 C   0  0  0  0  0  0  0  0  0  0  0  0
   -0.5839    2.2344    8.2951 C   0  0  0  0  0  0  0  0  0  0  0  0
   -2.8077    2.6144    7.2622 C   0  0  0  0  0  0  0  0  0  0  0  0
    3.3650   -1.1227    3.4886 H   0  0  0  0  0  0  0  0  0  0  0  0
    1.6902   -1.0775    2.9812 H   0  0  0  0  0  0  0  0  0  0  0  0
    2.1165   -1.5072    4.6474 H   0  0  0  0  0  0  0  0  0  0  0  0
    1.5541    0.8857    1.2540 H   0  0  0  0  0  0  0  0  0  0  0  0
    0.3216    2.1218    1.1154 H   0  0  0  0  0  0  0  0  0  0  0  0
    3.0951    2.3574    2.2207 H   0  0  0  0  0  0  0  0  0  0  0  0
    2.2113    3.5323    1.2853 H   0  0  0  0  0  0  0  0  0  0  0  0
    3.0735    2.1951    6.2626 H   0  0  0  0  0  0  0  0  0  0  0  0
    3.3423    3.8051    5.6135 H   0  0  0  0  0  0  0  0  0  0  0  0
    3.8377    2.4058    4.6877 H   0  0  0  0  0  0  0  0  0  0  0  0
    1.1468    3.4128    6.7057 H   0  0  0  0  0  0  0  0  0  0  0  0
    0.7165    4.6009    5.5605 H   0  0  0  0  0  0  0  0  0  0  0  0
   -1.3923    3.6466    5.1389 H   0  0  0  0  0  0  0  0  0  0  0  0
   -1.8047    1.2310    5.1655 H   0  0  0  0  0  0  0  0  0  0  0  0
    0.9347    0.8566    6.4624 H   0  0  0  0  0  0  0  0  0  0  0  0
    0.3403   -3.2890    5.5414 H   0  0  0  0  0  0  0  0  0  0  0  0
   -1.3869   -2.9191    5.6461 H   0  0  0  0  0  0  0  0  0  0  0  0
   -0.5137   -3.4856    7.0752 H   0  0  0  0  0  0  0  0  0  0  0  0
   -1.0328    1.4411    8.8936 H   0  0  0  0  0  0  0  0  0  0  0  0
   -0.6139    3.1677    8.8633 H   0  0  0  0  0  0  0  0  0  0  0  0
    0.4642    1.9685    8.1463 H   0  0  0  0  0  0  0  0  0  0  0  0
   -3.2012    1.7589    7.8061 H   0  0  0  0  0  0  0  0  0  0  0  0
   -3.3704    2.7121    6.3334 H   0  0  0  0  0  0  0  0  0  0  0  0
   -2.9629    3.5170    7.8596 H   0  0  0  0  0  0  0  0  0  0  0  0
  1  2  1  0
  1 23  1  0
  1 24  1  0
  1 25  1  0
  3  2  1  6
  3 10  1  0
  3 15  1  0
  3  4  1  0
  4  5  2  0
  4  6  1  0
  6  7  1  0
  6 26  1  0
  6 27  1  0
  7  8  1  0
  7 28  1  0
  7 29  1  0
  8  9  2  0
  8 10  1  0
 10 11  1  1
 10 12  1  0
 11 30  1  0
 11 31  1  0
 11 32  1  0
 12 13  1  0
 12 33  1  0
 12 34  1  0
 13 20  1  0
 13 14  1  0
 13 35  1  6
 14 15  1  0
 14 20  1  0
 14 36  1  6
 15 16  1  0
 15 37  1  1
 16 17  1  0
 17 18  1  0
 17 19  2  0
 18 38  1  0
 18 39  1  0
 18 40  1  0
 20 21  1  0
 20 22  1  0
 21 41  1  0
 21 42  1  0
 21 43  1  0
 22 44  1  0
 22 45  1  0
 22 46  1  0
M  END
>  <i_m_ct_stereo_status>  (110) 
1

>  <s_m_source_file>  (110) 
/var/tmp/pbs.5076255.sched01/tmprtix0sri/443g93ja_l.sdf

>  <i_m_source_file_index>  (110) 
3

>  <i_lp_mmshare_version>  (110) 
48012

>  <i_f3d_flags>  (110) 
0

>  <s_epik_input>  (110) 
Tz1DMVtDSDJdW0NIMl1DKD1PKVtDQF0oW0NIM10pKFtDQF0xMk9bQ0gzXSlbQ0gyXVtDQEhdM1tDQEhdKEMzKFtDSDNdKVtDSDNdKVtDSF0yT0MoPU8pW0NIM10=

>  <s_epik_cmdline>  (110) 
J2VwaWtfcHl0aG9uJywgJy1waHQnLCAnMi4wJywgJy1waCcsICc3LjAnLCAnLXRuJywgJzgnLCAnLW1hJywgJzIwMCcsICctaW1hZScsICc8aW5maWxlLm1hZT4nLCAnLW9tYWUnLCAnPG91dGZpbGUubWFlPic=

>  <r_lp_tautomer_probability>  (110) 
1

>  <r_epik_Ionization_Penalty>  (110) 
1.20581e-10

>  <r_epik_Ionization_Penalty_Charging>  (110) 
0

>  <r_epik_Ionization_Penalty_Neutral>  (110) 
1.20581e-10

>  <r_epik_State_Penalty>  (110) 
-0

>  <r_epik_Charging_Adjusted_Penalty>  (110) 
0

>  <i_epik_Tot_Q>  (110) 
0

>  <i_epik_Tot_abs_Q>  (110) 
0

>  <s_epik_Chemistry_Notes>  (110) 
This compound has an ester and may undergo hydrolysis at high or low pH.

>  <s_lp_Force_Field>  (110) 
OPLS3e

>  <r_lp_Energy>  (110) 
38.6953

>  <b_lp_Chiralities_Consistent>  (110) 
1

>  <s_lp_Variant>  (110) 
33:0-1

>  <s_i_glide_gridfile>  (110) 
pfpi4k_grid

>  <i_i_glide_lignum>  (110) 
3

>  <i_i_glide_rotatable_bonds>  (110) 
3

>  <r_i_docking_score>  (110) 
-2.34582

>  <r_i_glide_ligand_efficiency>  (110) 
-0.106628

>  <r_i_glide_ligand_efficiency_sa>  (110) 
-0.298777

>  <r_i_glide_ligand_efficiency_ln>  (110) 
-0.573405

>  <r_i_glide_gscore>  (110) 
-2.34582

>  <r_i_glide_lipo>  (110) 
-0.184892

>  <r_i_glide_hbond>  (110) 
-0.00558647

>  <r_i_glide_metal>  (110) 
-0

>  <r_i_glide_rewards>  (110) 
-1.30657

>  <r_i_glide_evdw>  (110) 
-16.3906

>  <r_i_glide_ecoul>  (110) 
-0.613648

>  <r_i_glide_erotb>  (110) 
0.194555

>  <r_i_glide_esite>  (110) 
-0.131752

>  <r_i_glide_emodel>  (110) 
-19.6356

>  <r_i_glide_energy>  (110) 
-17.0042

>  <r_i_glide_einternal>  (110) 
0.571987

>  <r_i_glide_intrahb_reward>  (110) 
-0

>  <i_i_glide_confnum>  (110) 
3

>  <i_i_glide_posenum>  (110) 
11

>  <r_i_glide_eff_state_penalty>  (110) 
0

>  <ligand_id>  (110) 
33

>  <original_smiles>  (110) 
COC12C(=O)CCC(=O)C1(C)CC1C(C2OC(C)=O)C1(C)C

>  <smiles>  (110) 
[H]C([H])([H])OC12C(=O)C([H])([H])C([H])([H])C(=O)C1(C([H])([H])[H])C([H])([H])C1([H])C([H])(C2([H])OC(=O)C([H])([H])[H])C1(C([H])([H])[H])C([H])([H])[H]

$$$$
35:0:0
     RDKit          3D

 57 61  0  0  1  0  0  0  0  0999 V2000
    5.7761   -3.9799    3.0950 C   0  0  0  0  0  0  0  0  0  0  0  0
    4.3815   -4.4455    2.6127 C   0  0  1  0  0  0  0  0  0  0  0  0
    3.4524   -4.3892    3.8557 C   0  0  0  0  0  0  0  0  0  0  0  0
    3.5014   -5.8044    4.4653 C   0  0  0  0  0  0  0  0  0  0  0  0
    3.7154   -6.7593    3.2816 C   0  0  1  0  0  0  0  0  0  0  0  0
    2.3950   -7.2933    2.6671 C   0  0  0  0  0  0  0  0  0  0  0  0
    1.4785   -6.2351    2.0465 C   0  0  0  0  0  0  0  0  0  0  0  0
    0.3869   -5.9688    2.5561 O   0  0  0  0  0  0  0  0  0  0  0  0
    1.9278   -5.5187    0.7663 C   0  0  0  0  0  0  0  0  0  0  0  0
    2.3811   -4.0405    0.9725 C   0  0  0  0  0  0  0  0  0  0  0  0
    3.8830   -3.7020    1.3054 C   0  0  1  0  0  0  0  0  0  0  0  0
    3.9312   -2.1635    1.5607 C   0  0  0  0  0  0  0  0  0  0  0  0
    3.6935   -1.2884    0.3192 C   0  0  0  0  0  0  0  0  0  0  0  0
    4.5366   -1.6903   -0.9073 C   0  0  2  0  0  0  0  0  0  0  0  0
    3.7363   -2.0545   -2.1811 C   0  0  1  0  0  0  0  0  0  0  0  0
    3.1040   -0.8722   -2.9369 C   0  0  0  0  0  0  0  0  0  0  0  0
    4.0510    0.1160   -3.2816 O   0  0  0  0  0  0  0  0  0  0  0  0
    4.7013   -2.8903   -3.0353 C   0  0  0  0  0  0  0  0  0  0  0  0
    5.8926   -3.2253   -2.1278 C   0  0  0  0  0  0  0  0  0  0  0  0
    5.4635   -2.9007   -0.6872 C   0  0  1  0  0  0  0  0  0  0  0  0
    6.6076   -2.4858    0.0324 O   0  0  0  0  0  0  0  0  0  0  0  0
    4.7558   -4.0928    0.0371 C   0  0  1  0  0  0  0  0  0  0  0  0
    5.6553   -5.3569    0.2028 C   0  0  0  0  0  0  0  0  0  0  0  0
    5.1107   -6.3501    1.2018 C   0  0  0  0  0  0  0  0  0  0  0  0
    4.4925   -5.9176    2.3001 C   0  0  0  0  0  0  0  0  0  0  0  0
    5.7428   -2.9985    3.5703 H   0  0  0  0  0  0  0  0  0  0  0  0
    6.5076   -3.9234    2.2942 H   0  0  0  0  0  0  0  0  0  0  0  0
    6.1775   -4.6662    3.8415 H   0  0  0  0  0  0  0  0  0  0  0  0
    3.7581   -3.6269    4.5741 H   0  0  0  0  0  0  0  0  0  0  0  0
    2.4236   -4.1485    3.6114 H   0  0  0  0  0  0  0  0  0  0  0  0
    4.3677   -5.8649    5.1296 H   0  0  0  0  0  0  0  0  0  0  0  0
    2.6179   -6.0319    5.0619 H   0  0  0  0  0  0  0  0  0  0  0  0
    4.3254   -7.6064    3.5922 H   0  0  0  0  0  0  0  0  0  0  0  0
    2.6214   -8.0182    1.8863 H   0  0  0  0  0  0  0  0  0  0  0  0
    1.8270   -7.8237    3.4310 H   0  0  0  0  0  0  0  0  0  0  0  0
    2.6794   -6.1109    0.2430 H   0  0  0  0  0  0  0  0  0  0  0  0
    1.0611   -5.5243    0.1043 H   0  0  0  0  0  0  0  0  0  0  0  0
    2.1168   -3.5227    0.0500 H   0  0  0  0  0  0  0  0  0  0  0  0
    1.7516   -3.5647    1.7195 H   0  0  0  0  0  0  0  0  0  0  0  0
    3.2018   -1.8903    2.3278 H   0  0  0  0  0  0  0  0  0  0  0  0
    4.8940   -1.8599    1.9630 H   0  0  0  0  0  0  0  0  0  0  0  0
    2.6290   -1.2700    0.0822 H   0  0  0  0  0  0  0  0  0  0  0  0
    3.9464   -0.2598    0.5803 H   0  0  0  0  0  0  0  0  0  0  0  0
    5.1835   -0.8416   -1.1493 H   0  0  0  0  0  0  0  0  0  0  0  0
    2.9176   -2.7170   -1.9007 H   0  0  0  0  0  0  0  0  0  0  0  0
    2.6145   -1.2181   -3.8492 H   0  0  0  0  0  0  0  0  0  0  0  0
    2.3323   -0.4092   -2.3249 H   0  0  0  0  0  0  0  0  0  0  0  0
    3.6097    0.9567   -3.2638 H   0  0  0  0  0  0  0  0  0  0  0  0
    4.2149   -3.7999   -3.3809 H   0  0  0  0  0  0  0  0  0  0  0  0
    5.0297   -2.3390   -3.9157 H   0  0  0  0  0  0  0  0  0  0  0  0
    6.2137   -4.2465   -2.2624 H   0  0  0  0  0  0  0  0  0  0  0  0
    6.7334   -2.5939   -2.4173 H   0  0  0  0  0  0  0  0  0  0  0  0
    6.3464   -2.3393    0.9271 H   0  0  0  0  0  0  0  0  0  0  0  0
    4.0316   -4.4373   -0.7033 H   0  0  0  0  0  0  0  0  0  0  0  0
    5.6853   -5.8710   -0.7413 H   0  0  0  0  0  0  0  0  0  0  0  0
    6.6818   -5.1065    0.4666 H   0  0  0  0  0  0  0  0  0  0  0  0
    5.1822   -7.4004    0.9635 H   0  0  0  0  0  0  0  0  0  0  0  0
  2  1  1  1
  1 26  1  0
  1 27  1  0
  1 28  1  0
  2 11  1  0
  2 25  1  0
  2  3  1  0
  3  4  1  0
  3 29  1  0
  3 30  1  0
  4  5  1  0
  4 31  1  0
  4 32  1  0
  5 25  1  0
  5  6  1  0
  5 33  1  1
  6  7  1  0
  6 34  1  0
  6 35  1  0
  7  8  2  0
  7  9  1  0
  9 10  1  0
  9 36  1  0
  9 37  1  0
 11 10  1  6
 10 38  1  0
 10 39  1  0
 11 22  1  0
 11 12  1  0
 12 13  1  0
 12 40  1  0
 12 41  1  0
 13 14  1  0
 13 42  1  0
 13 43  1  0
 14 20  1  0
 14 15  1  0
 14 44  1  6
 15 16  1  0
 15 18  1  0
 15 45  1  1
 16 17  1  0
 16 46  1  0
 16 47  1  0
 17 48  1  0
 18 19  1  0
 18 49  1  0
 18 50  1  0
 19 20  1  0
 19 51  1  0
 19 52  1  0
 20 21  1  1
 20 22  1  0
 21 53  1  0
 22 23  1  0
 22 54  1  6
 23 24  1  0
 23 55  1  0
 23 56  1  0
 24 25  2  0
 24 57  1  0
M  END
>  <i_m_ct_stereo_status>  (111) 
1

>  <s_m_source_file>  (111) 
/var/tmp/pbs.5076255.sched01/tmprtix0sri/443g93ja_l.sdf

>  <i_m_source_file_index>  (111) 
5

>  <i_lp_mmshare_version>  (111) 
48012

>  <i_f3d_flags>  (111) 
0

>  <s_epik_input>  (111) 
W0NIMl0xW0NIMl1DKD1PKVtDSDJdW0NASF0oW0NIMl1bQ0gyXTIpQyhbQ0BdMihbQ0BAXTEzNClbQ0gzXSk9W0NIXVtDSDJdW0NAQEhdNFtDQF01KFtPSF0pW0NASF0oW0NIMl1bQ0gyXTMpW0NAQEhdKFtDSDJdW09IXSlbQ0gyXVtDSDJdNQ==

>  <s_epik_cmdline>  (111) 
J2VwaWtfcHl0aG9uJywgJy1waHQnLCAnMi4wJywgJy1waCcsICc3LjAnLCAnLXRuJywgJzgnLCAnLW1hJywgJzIwMCcsICctaW1hZScsICc8aW5maWxlLm1hZT4nLCAnLW9tYWUnLCAnPG91dGZpbGUubWFlPic=

>  <r_lp_tautomer_probability>  (111) 
1

>  <r_epik_Ionization_Penalty>  (111) 
2.72641e-06

>  <r_epik_Ionization_Penalty_Charging>  (111) 
0

>  <r_epik_Ionization_Penalty_Neutral>  (111) 
2.72641e-06

>  <r_epik_State_Penalty>  (111) 
-0

>  <r_epik_Charging_Adjusted_Penalty>  (111) 
0

>  <i_epik_Tot_Q>  (111) 
0

>  <i_epik_Tot_abs_Q>  (111) 
0

>  <s_lp_Force_Field>  (111) 
OPLS3e

>  <r_lp_Energy>  (111) 
57.6958

>  <b_lp_Chiralities_Consistent>  (111) 
1

>  <s_lp_Variant>  (111) 
35:0-1

>  <s_i_glide_gridfile>  (111) 
pfpi4k_grid

>  <i_i_glide_lignum>  (111) 
5

>  <i_i_glide_rotatable_bonds>  (111) 
3

>  <r_i_docking_score>  (111) 
-3.70343

>  <r_i_glide_ligand_efficiency>  (111) 
-0.148137

>  <r_i_glide_ligand_efficiency_sa>  (111) 
-0.433155

>  <r_i_glide_ligand_efficiency_ln>  (111) 
-0.877823

>  <r_i_glide_gscore>  (111) 
-3.70343

>  <r_i_glide_lipo>  (111) 
-0.593365

>  <r_i_glide_hbond>  (111) 
-0.389936

>  <r_i_glide_metal>  (111) 
-0

>  <r_i_glide_rewards>  (111) 
-1.06031

>  <r_i_glide_evdw>  (111) 
-18.2739

>  <r_i_glide_ecoul>  (111) 
-5.7321

>  <r_i_glide_erotb>  (111) 
0.160005

>  <r_i_glide_esite>  (111) 
-0.0463097

>  <r_i_glide_emodel>  (111) 
-28.2858

>  <r_i_glide_energy>  (111) 
-24.006

>  <r_i_glide_einternal>  (111) 
2.63755

>  <r_i_glide_intrahb_reward>  (111) 
-0

>  <i_i_glide_confnum>  (111) 
6

>  <i_i_glide_posenum>  (111) 
35

>  <r_i_glide_eff_state_penalty>  (111) 
0

>  <ligand_id>  (111) 
35

>  <original_smiles>  (111) 
CC12CCC3CC(=O)CCC14CCC1C(CO)CCC1(O)C4CC=C32

>  <smiles>  (111) 
[H]OC([H])([H])C1([H])C([H])([H])C([H])([H])C2(O[H])C1([H])C([H])([H])C([H])([H])C13C([H])([H])C([H])([H])C(=O)C([H])([H])C4([H])C(=C([H])C([H])([H])C21[H])C3(C([H])([H])[H])C([H])([H])C4([H])[H]

$$$$
35:0:1
     RDKit          3D

 57 61  0  0  1  0  0  0  0  0999 V2000
    5.7748   -3.9843    3.1200 C   0  0  0  0  0  0  0  0  0  0  0  0
    4.3840   -4.4603    2.6295 C   0  0  1  0  0  0  0  0  0  0  0  0
    3.4494   -4.4083    3.8675 C   0  0  0  0  0  0  0  0  0  0  0  0
    3.5025   -5.8224    4.4761 C   0  0  0  0  0  0  0  0  0  0  0  0
    3.7253   -6.7756    3.2930 C   0  0  1  0  0  0  0  0  0  0  0  0
    2.4120   -7.3142    2.6684 C   0  0  0  0  0  0  0  0  0  0  0  0
    1.4889   -6.2565    2.0449 C   0  0  0  0  0  0  0  0  0  0  0  0
    0.3995   -6.0007    2.5449 O   0  0  0  0  0  0  0  0  0  0  0  0
    1.9471   -5.5367    0.7665 C   0  0  0  0  0  0  0  0  0  0  0  0
    2.3915   -4.0590    0.9803 C   0  0  0  0  0  0  0  0  0  0  0  0
    3.8870   -3.7154    1.3234 C   0  0  1  0  0  0  0  0  0  0  0  0
    3.9309   -2.1780    1.5750 C   0  0  0  0  0  0  0  0  0  0  0  0
    3.6903   -1.2982    0.3371 C   0  0  0  0  0  0  0  0  0  0  0  0
    4.5408   -1.6915   -0.8871 C   0  0  2  0  0  0  0  0  0  0  0  0
    3.7491   -2.0567   -2.1647 C   0  0  1  0  0  0  0  0  0  0  0  0
    3.1130   -0.8846   -2.9297 C   0  0  0  0  0  0  0  0  0  0  0  0
    4.0650    0.0904   -3.2970 O   0  0  0  0  0  0  0  0  0  0  0  0
    4.7172   -2.8881   -3.0177 C   0  0  0  0  0  0  0  0  0  0  0  0
    5.9009   -3.2281   -2.1067 C   0  0  0  0  0  0  0  0  0  0  0  0
    5.4734   -2.9021   -0.6658 C   0  0  1  0  0  0  0  0  0  0  0  0
    6.6304   -2.4904    0.0412 O   0  0  0  0  0  0  0  0  0  0  0  0
    4.7674   -4.0977    0.0569 C   0  0  1  0  0  0  0  0  0  0  0  0
    5.6747   -5.3584    0.2236 C   0  0  0  0  0  0  0  0  0  0  0  0
    5.1309   -6.3576    1.2132 C   0  0  0  0  0  0  0  0  0  0  0  0
    4.5014   -5.9334    2.3125 C   0  0  0  0  0  0  0  0  0  0  0  0
    5.7306   -3.0058    3.5955 H   0  0  0  0  0  0  0  0  0  0  0  0
    6.5056   -3.9199    2.3189 H   0  0  0  0  0  0  0  0  0  0  0  0
    6.1730   -4.6726    3.8649 H   0  0  0  0  0  0  0  0  0  0  0  0
    3.7492   -3.6474    4.5869 H   0  0  0  0  0  0  0  0  0  0  0  0
    2.4202   -4.1736    3.6181 H   0  0  0  0  0  0  0  0  0  0  0  0
    4.3663   -5.8842    5.1389 H   0  0  0  0  0  0  0  0  0  0  0  0
    2.6209   -6.0609    5.0652 H   0  0  0  0  0  0  0  0  0  0  0  0
    4.3425   -7.6218    3.5971 H   0  0  0  0  0  0  0  0  0  0  0  0
    2.6451   -8.0347    1.8862 H   0  0  0  0  0  0  0  0  0  0  0  0
    1.8424   -7.8479    3.4261 H   0  0  0  0  0  0  0  0  0  0  0  0
    2.7012   -6.1245    0.2466 H   0  0  0  0  0  0  0  0  0  0  0  0
    1.0823   -5.5462    0.1042 H   0  0  0  0  0  0  0  0  0  0  0  0
    2.1315   -3.5408    0.0585 H   0  0  0  0  0  0  0  0  0  0  0  0
    1.7615   -3.5871    1.7248 H   0  0  0  0  0  0  0  0  0  0  0  0
    3.2033   -1.9065    2.3409 H   0  0  0  0  0  0  0  0  0  0  0  0
    4.9001   -1.8753    1.9704 H   0  0  0  0  0  0  0  0  0  0  0  0
    2.6283   -1.2896    0.0906 H   0  0  0  0  0  0  0  0  0  0  0  0
    3.9412   -0.2687    0.6010 H   0  0  0  0  0  0  0  0  0  0  0  0
    5.1933   -0.8462   -1.1189 H   0  0  0  0  0  0  0  0  0  0  0  0
    2.9370   -2.7298   -1.8861 H   0  0  0  0  0  0  0  0  0  0  0  0
    2.6200   -1.2436   -3.8342 H   0  0  0  0  0  0  0  0  0  0  0  0
    2.3473   -0.4113   -2.3169 H   0  0  0  0  0  0  0  0  0  0  0  0
    3.6077    0.9200   -3.3578 H   0  0  0  0  0  0  0  0  0  0  0  0
    4.2366   -3.8022   -3.3700 H   0  0  0  0  0  0  0  0  0  0  0  0
    5.0548   -2.3370   -3.8968 H   0  0  0  0  0  0  0  0  0  0  0  0
    6.2064   -4.2528   -2.2442 H   0  0  0  0  0  0  0  0  0  0  0  0
    6.7501   -2.6081   -2.3946 H   0  0  0  0  0  0  0  0  0  0  0  0
    7.1477   -3.2577    0.2295 H   0  0  0  0  0  0  0  0  0  0  0  0
    4.0480   -4.4453   -0.6878 H   0  0  0  0  0  0  0  0  0  0  0  0
    5.7146   -5.8691   -0.7243 H   0  0  0  0  0  0  0  0  0  0  0  0
    6.6977   -5.1159    0.4984 H   0  0  0  0  0  0  0  0  0  0  0  0
    5.2079   -7.4084    0.9764 H   0  0  0  0  0  0  0  0  0  0  0  0
  2  1  1  1
  1 26  1  0
  1 27  1  0
  1 28  1  0
  2 11  1  0
  2 25  1  0
  2  3  1  0
  3  4  1  0
  3 29  1  0
  3 30  1  0
  4  5  1  0
  4 31  1  0
  4 32  1  0
  5 25  1  0
  5  6  1  0
  5 33  1  1
  6  7  1  0
  6 34  1  0
  6 35  1  0
  7  8  2  0
  7  9  1  0
  9 10  1  0
  9 36  1  0
  9 37  1  0
 11 10  1  6
 10 38  1  0
 10 39  1  0
 11 22  1  0
 11 12  1  0
 12 13  1  0
 12 40  1  0
 12 41  1  0
 13 14  1  0
 13 42  1  0
 13 43  1  0
 14 20  1  0
 14 15  1  0
 14 44  1  6
 15 16  1  0
 15 18  1  0
 15 45  1  1
 16 17  1  0
 16 46  1  0
 16 47  1  0
 17 48  1  0
 18 19  1  0
 18 49  1  0
 18 50  1  0
 19 20  1  0
 19 51  1  0
 19 52  1  0
 20 21  1  1
 20 22  1  0
 21 53  1  0
 22 23  1  0
 22 54  1  6
 23 24  1  0
 23 55  1  0
 23 56  1  0
 24 25  2  0
 24 57  1  0
M  END
>  <i_m_ct_stereo_status>  (112) 
1

>  <s_m_source_file>  (112) 
/var/tmp/pbs.5076255.sched01/tmprtix0sri/443g93ja_l.sdf

>  <i_m_source_file_index>  (112) 
5

>  <i_lp_mmshare_version>  (112) 
48012

>  <i_f3d_flags>  (112) 
0

>  <s_epik_input>  (112) 
W0NIMl0xW0NIMl1DKD1PKVtDSDJdW0NASF0oW0NIMl1bQ0gyXTIpQyhbQ0BdMihbQ0BAXTEzNClbQ0gzXSk9W0NIXVtDSDJdW0NAQEhdNFtDQF01KFtPSF0pW0NASF0oW0NIMl1bQ0gyXTMpW0NAQEhdKFtDSDJdW09IXSlbQ0gyXVtDSDJdNQ==

>  <s_epik_cmdline>  (112) 
J2VwaWtfcHl0aG9uJywgJy1waHQnLCAnMi4wJywgJy1waCcsICc3LjAnLCAnLXRuJywgJzgnLCAnLW1hJywgJzIwMCcsICctaW1hZScsICc8aW5maWxlLm1hZT4nLCAnLW9tYWUnLCAnPG91dGZpbGUubWFlPic=

>  <r_lp_tautomer_probability>  (112) 
1

>  <r_epik_Ionization_Penalty>  (112) 
2.72641e-06

>  <r_epik_Ionization_Penalty_Charging>  (112) 
0

>  <r_epik_Ionization_Penalty_Neutral>  (112) 
2.72641e-06

>  <r_epik_State_Penalty>  (112) 
-0

>  <r_epik_Charging_Adjusted_Penalty>  (112) 
0

>  <i_epik_Tot_Q>  (112) 
0

>  <i_epik_Tot_abs_Q>  (112) 
0

>  <s_lp_Force_Field>  (112) 
OPLS3e

>  <r_lp_Energy>  (112) 
57.6958

>  <b_lp_Chiralities_Consistent>  (112) 
1

>  <s_lp_Variant>  (112) 
35:0-1

>  <s_i_glide_gridfile>  (112) 
pfpi4k_grid

>  <i_i_glide_lignum>  (112) 
5

>  <i_i_glide_rotatable_bonds>  (112) 
3

>  <r_i_docking_score>  (112) 
-3.59483

>  <r_i_glide_ligand_efficiency>  (112) 
-0.143793

>  <r_i_glide_ligand_efficiency_sa>  (112) 
-0.420454

>  <r_i_glide_ligand_efficiency_ln>  (112) 
-0.852083

>  <r_i_glide_gscore>  (112) 
-3.59483

>  <r_i_glide_lipo>  (112) 
-0.595572

>  <r_i_glide_hbond>  (112) 
-0.350079

>  <r_i_glide_metal>  (112) 
-0

>  <r_i_glide_rewards>  (112) 
-1.06031

>  <r_i_glide_evdw>  (112) 
-18.5551

>  <r_i_glide_ecoul>  (112) 
-5.1719

>  <r_i_glide_erotb>  (112) 
0.160005

>  <r_i_glide_esite>  (112) 
-0.0453313

>  <r_i_glide_emodel>  (112) 
-27.9487

>  <r_i_glide_energy>  (112) 
-23.727

>  <r_i_glide_einternal>  (112) 
2.42905

>  <r_i_glide_intrahb_reward>  (112) 
-0

>  <i_i_glide_confnum>  (112) 
3

>  <i_i_glide_posenum>  (112) 
34

>  <r_i_glide_eff_state_penalty>  (112) 
0

>  <ligand_id>  (112) 
35

>  <original_smiles>  (112) 
CC12CCC3CC(=O)CCC14CCC1C(CO)CCC1(O)C4CC=C32

>  <smiles>  (112) 
[H]OC([H])([H])C1([H])C([H])([H])C([H])([H])C2(O[H])C1([H])C([H])([H])C([H])([H])C13C([H])([H])C([H])([H])C(=O)C([H])([H])C4([H])C(=C([H])C([H])([H])C21[H])C3(C([H])([H])[H])C([H])([H])C4([H])[H]

$$$$
35:0:2
     RDKit          3D

 57 61  0  0  1  0  0  0  0  0999 V2000
    6.6122   -2.9834    1.4811 C   0  0  0  0  0  0  0  0  0  0  0  0
    5.5242   -3.1265    0.3906 C   0  0  1  0  0  0  0  0  0  0  0  0
    6.2658   -3.5704   -0.8972 C   0  0  0  0  0  0  0  0  0  0  0  0
    6.5823   -2.2756   -1.6537 C   0  0  0  0  0  0  0  0  0  0  0  0
    5.4378   -1.3074   -1.3161 C   0  0  1  0  0  0  0  0  0  0  0  0
    4.2520   -1.3685   -2.3147 C   0  0  0  0  0  0  0  0  0  0  0  0
    3.5275   -2.7133   -2.4058 C   0  0  0  0  0  0  0  0  0  0  0  0
    3.6147   -3.3962   -3.4306 O   0  0  0  0  0  0  0  0  0  0  0  0
    2.6903   -3.1769   -1.2022 C   0  0  0  0  0  0  0  0  0  0  0  0
    3.3220   -4.3243   -0.3633 C   0  0  0  0  0  0  0  0  0  0  0  0
    4.2834   -4.0015    0.8391 C   0  0  1  0  0  0  0  0  0  0  0  0
    4.8088   -5.3853    1.3358 C   0  0  0  0  0  0  0  0  0  0  0  0
    3.7560   -6.2709    2.0219 C   0  0  0  0  0  0  0  0  0  0  0  0
    2.9395   -5.5467    3.1142 C   0  0  2  0  0  0  0  0  0  0  0  0
    1.4160   -5.5261    2.8820 C   0  0  1  0  0  0  0  0  0  0  0  0
    0.7202   -6.8726    3.1505 C   0  0  0  0  0  0  0  0  0  0  0  0
   -0.6038   -6.8341    2.6580 O   0  0  0  0  0  0  0  0  0  0  0  0
    0.9098   -4.3700    3.7708 C   0  0  0  0  0  0  0  0  0  0  0  0
    2.1464   -3.5707    4.1977 C   0  0  0  0  0  0  0  0  0  0  0  0
    3.3069   -4.0630    3.3174 C   0  0  1  0  0  0  0  0  0  0  0  0
    4.4988   -3.9685    4.0699 O   0  0  0  0  0  0  0  0  0  0  0  0
    3.4352   -3.2708    1.9724 C   0  0  1  0  0  0  0  0  0  0  0  0
    3.7079   -1.7406    2.1656 C   0  0  0  0  0  0  0  0  0  0  0  0
    4.2113   -1.0750    0.9043 C   0  0  0  0  0  0  0  0  0  0  0  0
    5.0235   -1.7362    0.0700 C   0  0  0  0  0  0  0  0  0  0  0  0
    7.2018   -3.8928    1.6012 H   0  0  0  0  0  0  0  0  0  0  0  0
    6.2053   -2.7295    2.4553 H   0  0  0  0  0  0  0  0  0  0  0  0
    7.3219   -2.1977    1.2156 H   0  0  0  0  0  0  0  0  0  0  0  0
    7.1723   -4.1391   -0.6846 H   0  0  0  0  0  0  0  0  0  0  0  0
    5.6757   -4.2141   -1.5399 H   0  0  0  0  0  0  0  0  0  0  0  0
    7.5219   -1.8824   -1.2610 H   0  0  0  0  0  0  0  0  0  0  0  0
    6.7130   -2.4650   -2.7180 H   0  0  0  0  0  0  0  0  0  0  0  0
    5.7999   -0.2834   -1.2676 H   0  0  0  0  0  0  0  0  0  0  0  0
    3.5028   -0.6261   -2.0477 H   0  0  0  0  0  0  0  0  0  0  0  0
    4.6055   -1.1154   -3.3147 H   0  0  0  0  0  0  0  0  0  0  0  0
    2.4351   -2.3215   -0.5768 H   0  0  0  0  0  0  0  0  0  0  0  0
    1.7463   -3.5306   -1.6144 H   0  0  0  0  0  0  0  0  0  0  0  0
    2.4799   -4.9029    0.0122 H   0  0  0  0  0  0  0  0  0  0  0  0
    3.8265   -5.0132   -1.0328 H   0  0  0  0  0  0  0  0  0  0  0  0
    5.2464   -5.9384    0.5031 H   0  0  0  0  0  0  0  0  0  0  0  0
    5.6173   -5.2734    2.0523 H   0  0  0  0  0  0  0  0  0  0  0  0
    3.1041   -6.7298    1.2794 H   0  0  0  0  0  0  0  0  0  0  0  0
    4.2784   -7.1084    2.4885 H   0  0  0  0  0  0  0  0  0  0  0  0
    3.1088   -6.0638    4.0615 H   0  0  0  0  0  0  0  0  0  0  0  0
    1.2417   -5.2615    1.8396 H   0  0  0  0  0  0  0  0  0  0  0  0
    1.2390   -7.6835    2.6401 H   0  0  0  0  0  0  0  0  0  0  0  0
    0.7101   -7.1151    4.2139 H   0  0  0  0  0  0  0  0  0  0  0  0
   -0.9673   -7.7073    2.7420 H   0  0  0  0  0  0  0  0  0  0  0  0
    0.2252   -3.7142    3.2330 H   0  0  0  0  0  0  0  0  0  0  0  0
    0.3762   -4.7345    4.6516 H   0  0  0  0  0  0  0  0  0  0  0  0
    1.9810   -2.4951    4.1477 H   0  0  0  0  0  0  0  0  0  0  0  0
    2.3532   -3.8019    5.2437 H   0  0  0  0  0  0  0  0  0  0  0  0
    5.2012   -4.3158    3.5414 H   0  0  0  0  0  0  0  0  0  0  0  0
    2.4167   -3.2583    1.5855 H   0  0  0  0  0  0  0  0  0  0  0  0
    2.7864   -1.2346    2.4510 H   0  0  0  0  0  0  0  0  0  0  0  0
    4.4275   -1.5538    2.9625 H   0  0  0  0  0  0  0  0  0  0  0  0
    3.8481   -0.0864    0.6672 H   0  0  0  0  0  0  0  0  0  0  0  0
  2  1  1  1
  1 26  1  0
  1 27  1  0
  1 28  1  0
  2 11  1  0
  2 25  1  0
  2  3  1  0
  3  4  1  0
  3 29  1  0
  3 30  1  0
  4  5  1  0
  4 31  1  0
  4 32  1  0
  5 25  1  0
  5  6  1  0
  5 33  1  1
  6  7  1  0
  6 34  1  0
  6 35  1  0
  7  8  2  0
  7  9  1  0
  9 10  1  0
  9 36  1  0
  9 37  1  0
 11 10  1  6
 10 38  1  0
 10 39  1  0
 11 22  1  0
 11 12  1  0
 12 13  1  0
 12 40  1  0
 12 41  1  0
 13 14  1  0
 13 42  1  0
 13 43  1  0
 14 20  1  0
 14 15  1  0
 14 44  1  1
 15 16  1  0
 15 18  1  0
 15 45  1  6
 16 17  1  0
 16 46  1  0
 16 47  1  0
 17 48  1  0
 18 19  1  0
 18 49  1  0
 18 50  1  0
 19 20  1  0
 19 51  1  0
 19 52  1  0
 20 21  1  1
 20 22  1  0
 21 53  1  0
 22 23  1  0
 22 54  1  6
 23 24  1  0
 23 55  1  0
 23 56  1  0
 24 25  2  0
 24 57  1  0
M  END
>  <i_m_ct_stereo_status>  (113) 
1

>  <s_m_source_file>  (113) 
/var/tmp/pbs.5076255.sched01/tmprtix0sri/443g93ja_l.sdf

>  <i_m_source_file_index>  (113) 
5

>  <i_lp_mmshare_version>  (113) 
48012

>  <i_f3d_flags>  (113) 
0

>  <s_epik_input>  (113) 
W0NIMl0xW0NIMl1DKD1PKVtDSDJdW0NASF0oW0NIMl1bQ0gyXTIpQyhbQ0BdMihbQ0BAXTEzNClbQ0gzXSk9W0NIXVtDSDJdW0NAQEhdNFtDQF01KFtPSF0pW0NASF0oW0NIMl1bQ0gyXTMpW0NAQEhdKFtDSDJdW09IXSlbQ0gyXVtDSDJdNQ==

>  <s_epik_cmdline>  (113) 
J2VwaWtfcHl0aG9uJywgJy1waHQnLCAnMi4wJywgJy1waCcsICc3LjAnLCAnLXRuJywgJzgnLCAnLW1hJywgJzIwMCcsICctaW1hZScsICc8aW5maWxlLm1hZT4nLCAnLW9tYWUnLCAnPG91dGZpbGUubWFlPic=

>  <r_lp_tautomer_probability>  (113) 
1

>  <r_epik_Ionization_Penalty>  (113) 
2.72641e-06

>  <r_epik_Ionization_Penalty_Charging>  (113) 
0

>  <r_epik_Ionization_Penalty_Neutral>  (113) 
2.72641e-06

>  <r_epik_State_Penalty>  (113) 
-0

>  <r_epik_Charging_Adjusted_Penalty>  (113) 
0

>  <i_epik_Tot_Q>  (113) 
0

>  <i_epik_Tot_abs_Q>  (113) 
0

>  <s_lp_Force_Field>  (113) 
OPLS3e

>  <r_lp_Energy>  (113) 
57.6958

>  <b_lp_Chiralities_Consistent>  (113) 
1

>  <s_lp_Variant>  (113) 
35:0-1

>  <s_i_glide_gridfile>  (113) 
pfpi4k_grid

>  <i_i_glide_lignum>  (113) 
5

>  <i_i_glide_rotatable_bonds>  (113) 
3

>  <r_i_docking_score>  (113) 
-3.09688

>  <r_i_glide_ligand_efficiency>  (113) 
-0.123875

>  <r_i_glide_ligand_efficiency_sa>  (113) 
-0.362214

>  <r_i_glide_ligand_efficiency_ln>  (113) 
-0.734054

>  <r_i_glide_gscore>  (113) 
-3.09688

>  <r_i_glide_lipo>  (113) 
-0.299636

>  <r_i_glide_hbond>  (113) 
-0.16

>  <r_i_glide_metal>  (113) 
-0

>  <r_i_glide_rewards>  (113) 
-1.06031

>  <r_i_glide_evdw>  (113) 
-20.8982

>  <r_i_glide_ecoul>  (113) 
-4.4657

>  <r_i_glide_erotb>  (113) 
0.160005

>  <r_i_glide_esite>  (113) 
-0.0221752

>  <r_i_glide_emodel>  (113) 
-29.9515

>  <r_i_glide_energy>  (113) 
-25.3639

>  <r_i_glide_einternal>  (113) 
0.473057

>  <r_i_glide_intrahb_reward>  (113) 
-0

>  <i_i_glide_confnum>  (113) 
6

>  <i_i_glide_posenum>  (113) 
16

>  <r_i_glide_eff_state_penalty>  (113) 
0

>  <ligand_id>  (113) 
35

>  <original_smiles>  (113) 
CC12CCC3CC(=O)CCC14CCC1C(CO)CCC1(O)C4CC=C32

>  <smiles>  (113) 
[H]OC([H])([H])C1([H])C([H])([H])C([H])([H])C2(O[H])C1([H])C([H])([H])C([H])([H])C13C([H])([H])C([H])([H])C(=O)C([H])([H])C4([H])C(=C([H])C([H])([H])C21[H])C3(C([H])([H])[H])C([H])([H])C4([H])[H]

$$$$
36:0:0
     RDKit          3D

 32 34  0  0  1  0  0  0  0  0999 V2000
    7.5092   -3.5551   -0.1930 C   0  0  0  0  0  0  0  0  0  0  0  0
    6.4206   -2.4765   -0.2660 C   0  0  2  0  0  0  0  0  0  0  0  0
    5.4236   -2.7674    0.7081 O   0  0  0  0  0  0  0  0  0  0  0  0
    4.4221   -1.8034    0.8932 C   0  0  1  0  0  0  0  0  0  0  0  0
    3.7119   -1.5217   -0.4544 C   0  0  0  0  0  0  0  0  0  0  0  0
    4.6880   -1.2068   -1.6023 C   0  0  2  0  0  0  0  0  0  0  0  0
    3.9147   -1.1266   -2.9144 C   0  0  0  0  0  0  0  0  0  0  0  0
    3.8068   -2.1825   -3.7433 C   0  0  0  0  0  0  0  0  0  0  0  0
    4.4306   -3.4456   -3.3961 C   0  0  0  0  0  0  0  0  0  0  0  0
    5.3521   -3.5028   -2.4160 C   0  0  0  0  0  0  0  0  0  0  0  0
    5.8075   -2.2622   -1.6680 C   0  0  2  0  0  0  0  0  0  0  0  0
    3.4095   -2.2851    1.7407 O   0  0  0  0  0  0  0  0  0  0  0  0
    3.0946   -1.3466    2.6791 C   0  0  0  0  0  0  0  0  0  0  0  0
    3.9084   -0.3010    2.6429 C   0  0  0  0  0  0  0  0  0  0  0  0
    4.9624   -0.5079    1.6044 C   0  0  1  0  0  0  0  0  0  0  0  0
    6.2030   -0.6574    2.2718 O   0  0  0  0  0  0  0  0  0  0  0  0
    8.2757   -3.4029   -0.9541 H   0  0  0  0  0  0  0  0  0  0  0  0
    7.0951   -4.5545   -0.3190 H   0  0  0  0  0  0  0  0  0  0  0  0
    7.9992   -3.5357    0.7802 H   0  0  0  0  0  0  0  0  0  0  0  0
    6.9109   -1.5414    0.0061 H   0  0  0  0  0  0  0  0  0  0  0  0
    3.1051   -2.3896   -0.7043 H   0  0  0  0  0  0  0  0  0  0  0  0
    3.0173   -0.6917   -0.3090 H   0  0  0  0  0  0  0  0  0  0  0  0
    5.1610   -0.2493   -1.4270 H   0  0  0  0  0  0  0  0  0  0  0  0
    3.4320   -0.1884   -3.1517 H   0  0  0  0  0  0  0  0  0  0  0  0
    3.2348   -2.0951   -4.6580 H   0  0  0  0  0  0  0  0  0  0  0  0
    4.1345   -4.3530   -3.9065 H   0  0  0  0  0  0  0  0  0  0  0  0
    5.8031   -4.4424   -2.1535 H   0  0  0  0  0  0  0  0  0  0  0  0
    6.6063   -1.8700   -2.2963 H   0  0  0  0  0  0  0  0  0  0  0  0
    2.2432   -1.5617    3.3074 H   0  0  0  0  0  0  0  0  0  0  0  0
    3.8528    0.5709    3.2761 H   0  0  0  0  0  0  0  0  0  0  0  0
    4.9967    0.3296    0.9084 H   0  0  0  0  0  0  0  0  0  0  0  0
    6.8340   -0.0098    1.9706 H   0  0  0  0  0  0  0  0  0  0  0  0
  1  2  1  0
  1 17  1  0
  1 18  1  0
  1 19  1  0
  2 11  1  0
  2  3  1  0
  2 20  1  1
  4  3  1  6
  4 15  1  0
  4  5  1  0
  4 12  1  0
  5  6  1  0
  5 21  1  0
  5 22  1  0
  6 11  1  0
  6  7  1  0
  6 23  1  1
  7  8  2  0
  7 24  1  0
  8  9  1  0
  8 25  1  0
  9 10  2  0
  9 26  1  0
 10 11  1  0
 10 27  1  0
 11 28  1  6
 12 13  1  0
 13 14  2  0
 13 29  1  0
 14 15  1  0
 14 30  1  0
 15 16  1  0
 15 31  1  6
 16 32  1  0
M  END
>  <i_m_ct_stereo_status>  (114) 
1

>  <s_m_source_file>  (114) 
/var/tmp/pbs.5076255.sched01/tmprtix0sri/443g93ja_l.sdf

>  <i_m_source_file_index>  (114) 
6

>  <i_lp_mmshare_version>  (114) 
48012

>  <i_f3d_flags>  (114) 
0

>  <s_epik_input>  (114) 
W0NIXTE9W0NIXVtDSF09W0NIXVtDQEBIXShbQ0gyXTIpW0NASF0xW0NASF0oW0NIM10pT1tDQF0yM09bQ0hdPVtDSF1bQ0BIXTNbT0hd

>  <s_epik_cmdline>  (114) 
J2VwaWtfcHl0aG9uJywgJy1waHQnLCAnMi4wJywgJy1waCcsICc3LjAnLCAnLXRuJywgJzgnLCAnLW1hJywgJzIwMCcsICctaW1hZScsICc8aW5maWxlLm1hZT4nLCAnLW9tYWUnLCAnPG91dGZpbGUubWFlPic=

>  <r_lp_tautomer_probability>  (114) 
1

>  <r_epik_Ionization_Penalty>  (114) 
7.39393e-05

>  <r_epik_Ionization_Penalty_Charging>  (114) 
0

>  <r_epik_Ionization_Penalty_Neutral>  (114) 
7.39393e-05

>  <r_epik_State_Penalty>  (114) 
-0

>  <r_epik_Charging_Adjusted_Penalty>  (114) 
0

>  <i_epik_Tot_Q>  (114) 
0

>  <i_epik_Tot_abs_Q>  (114) 
0

>  <s_lp_Force_Field>  (114) 
OPLS3e

>  <r_lp_Energy>  (114) 
18.8077

>  <b_lp_Chiralities_Consistent>  (114) 
1

>  <s_lp_Variant>  (114) 
36:0-1

>  <s_i_glide_gridfile>  (114) 
pfpi4k_grid

>  <i_i_glide_lignum>  (114) 
6

>  <i_i_glide_rotatable_bonds>  (114) 
1

>  <r_i_docking_score>  (114) 
-4.37041

>  <r_i_glide_ligand_efficiency>  (114) 
-0.273151

>  <r_i_glide_ligand_efficiency_sa>  (114) 
-0.688297

>  <r_i_glide_ligand_efficiency_ln>  (114) 
-1.15846

>  <r_i_glide_gscore>  (114) 
-4.37041

>  <r_i_glide_lipo>  (114) 
-0.835771

>  <r_i_glide_hbond>  (114) 
0

>  <r_i_glide_metal>  (114) 
-0

>  <r_i_glide_rewards>  (114) 
-1.90729

>  <r_i_glide_evdw>  (114) 
-22.5181

>  <r_i_glide_ecoul>  (114) 
-3.32837

>  <r_i_glide_erotb>  (114) 
0

>  <r_i_glide_esite>  (114) 
-0.00218861

>  <r_i_glide_emodel>  (114) 
-31.9696

>  <r_i_glide_energy>  (114) 
-25.8465

>  <r_i_glide_einternal>  (114) 
0.933431

>  <r_i_glide_intrahb_reward>  (114) 
-0

>  <i_i_glide_confnum>  (114) 
1

>  <i_i_glide_posenum>  (114) 
7

>  <r_i_glide_eff_state_penalty>  (114) 
0

>  <ligand_id>  (114) 
36

>  <original_smiles>  (114) 
CC1OC2(CC3C=CC=CC31)OC=CC2O

>  <smiles>  (114) 
[H]OC1([H])C([H])=C([H])OC12OC([H])(C([H])([H])[H])C1([H])C([H])=C([H])C([H])=C([H])C1([H])C2([H])[H]

$$$$
36:0:1
     RDKit          3D

 32 34  0  0  1  0  0  0  0  0999 V2000
    7.1433   -3.7247   -0.0621 C   0  0  0  0  0  0  0  0  0  0  0  0
    6.1069   -2.5982   -0.1549 C   0  0  2  0  0  0  0  0  0  0  0  0
    5.0491   -2.8901    0.7572 O   0  0  0  0  0  0  0  0  0  0  0  0
    4.0701   -1.8957    0.9156 C   0  0  1  0  0  0  0  0  0  0  0  0
    3.4623   -1.5367   -0.4600 C   0  0  0  0  0  0  0  0  0  0  0  0
    4.5108   -1.2056   -1.5380 C   0  0  2  0  0  0  0  0  0  0  0  0
    3.8134   -1.0550   -2.8872 C   0  0  0  0  0  0  0  0  0  0  0  0
    3.7105   -2.0766   -3.7590 C   0  0  0  0  0  0  0  0  0  0  0  0
    4.2627   -3.3769   -3.4265 C   0  0  0  0  0  0  0  0  0  0  0  0
    5.1236   -3.5101   -2.4002 C   0  0  0  0  0  0  0  0  0  0  0  0
    5.5888   -2.3109   -1.5828 C   0  0  2  0  0  0  0  0  0  0  0  0
    2.9913   -2.3744    1.6845 O   0  0  0  0  0  0  0  0  0  0  0  0
    2.6560   -1.4573    2.6335 C   0  0  0  0  0  0  0  0  0  0  0  0
    3.5079   -0.4402    2.6894 C   0  0  0  0  0  0  0  0  0  0  0  0
    4.6073   -0.6532    1.7065 C   0  0  1  0  0  0  0  0  0  0  0  0
    5.7949   -0.8847    2.4301 O   0  0  0  0  0  0  0  0  0  0  0  0
    7.9569   -3.5751   -0.7730 H   0  0  0  0  0  0  0  0  0  0  0  0
    6.6956   -4.6997   -0.2524 H   0  0  0  0  0  0  0  0  0  0  0  0
    7.5768   -3.7613    0.9370 H   0  0  0  0  0  0  0  0  0  0  0  0
    6.6160   -1.6928    0.1745 H   0  0  0  0  0  0  0  0  0  0  0  0
    2.8329   -2.3651   -0.7802 H   0  0  0  0  0  0  0  0  0  0  0  0
    2.8154   -0.6740   -0.3078 H   0  0  0  0  0  0  0  0  0  0  0  0
    4.9897   -0.2599   -1.3034 H   0  0  0  0  0  0  0  0  0  0  0  0
    3.3751   -0.0941   -3.1139 H   0  0  0  0  0  0  0  0  0  0  0  0
    3.1912   -1.9367   -4.6995 H   0  0  0  0  0  0  0  0  0  0  0  0
    3.9555   -4.2555   -3.9837 H   0  0  0  0  0  0  0  0  0  0  0  0
    5.5122   -4.4830   -2.1514 H   0  0  0  0  0  0  0  0  0  0  0  0
    6.4342   -1.9267   -2.1527 H   0  0  0  0  0  0  0  0  0  0  0  0
    1.7564   -1.6557    3.2001 H   0  0  0  0  0  0  0  0  0  0  0  0
    3.4494    0.4096    3.3523 H   0  0  0  0  0  0  0  0  0  0  0  0
    4.7244    0.2118    1.0536 H   0  0  0  0  0  0  0  0  0  0  0  0
    5.6775   -1.6855    2.9204 H   0  0  0  0  0  0  0  0  0  0  0  0
  1  2  1  0
  1 17  1  0
  1 18  1  0
  1 19  1  0
  2 11  1  0
  2  3  1  0
  2 20  1  1
  4  3  1  6
  4 15  1  0
  4  5  1  0
  4 12  1  0
  5  6  1  0
  5 21  1  0
  5 22  1  0
  6 11  1  0
  6  7  1  0
  6 23  1  1
  7  8  2  0
  7 24  1  0
  8  9  1  0
  8 25  1  0
  9 10  2  0
  9 26  1  0
 10 11  1  0
 10 27  1  0
 11 28  1  6
 12 13  1  0
 13 14  2  0
 13 29  1  0
 14 15  1  0
 14 30  1  0
 15 16  1  0
 15 31  1  6
 16 32  1  0
M  END
>  <i_m_ct_stereo_status>  (115) 
1

>  <s_m_source_file>  (115) 
/var/tmp/pbs.5076255.sched01/tmprtix0sri/443g93ja_l.sdf

>  <i_m_source_file_index>  (115) 
6

>  <i_lp_mmshare_version>  (115) 
48012

>  <i_f3d_flags>  (115) 
0

>  <s_epik_input>  (115) 
W0NIXTE9W0NIXVtDSF09W0NIXVtDQEBIXShbQ0gyXTIpW0NASF0xW0NASF0oW0NIM10pT1tDQF0yM09bQ0hdPVtDSF1bQ0BIXTNbT0hd

>  <s_epik_cmdline>  (115) 
J2VwaWtfcHl0aG9uJywgJy1waHQnLCAnMi4wJywgJy1waCcsICc3LjAnLCAnLXRuJywgJzgnLCAnLW1hJywgJzIwMCcsICctaW1hZScsICc8aW5maWxlLm1hZT4nLCAnLW9tYWUnLCAnPG91dGZpbGUubWFlPic=

>  <r_lp_tautomer_probability>  (115) 
1

>  <r_epik_Ionization_Penalty>  (115) 
7.39393e-05

>  <r_epik_Ionization_Penalty_Charging>  (115) 
0

>  <r_epik_Ionization_Penalty_Neutral>  (115) 
7.39393e-05

>  <r_epik_State_Penalty>  (115) 
-0

>  <r_epik_Charging_Adjusted_Penalty>  (115) 
0

>  <i_epik_Tot_Q>  (115) 
0

>  <i_epik_Tot_abs_Q>  (115) 
0

>  <s_lp_Force_Field>  (115) 
OPLS3e

>  <r_lp_Energy>  (115) 
18.8077

>  <b_lp_Chiralities_Consistent>  (115) 
1

>  <s_lp_Variant>  (115) 
36:0-1

>  <s_i_glide_gridfile>  (115) 
pfpi4k_grid

>  <i_i_glide_lignum>  (115) 
6

>  <i_i_glide_rotatable_bonds>  (115) 
1

>  <r_i_docking_score>  (115) 
-3.8167

>  <r_i_glide_ligand_efficiency>  (115) 
-0.238544

>  <r_i_glide_ligand_efficiency_sa>  (115) 
-0.601093

>  <r_i_glide_ligand_efficiency_ln>  (115) 
-1.01169

>  <r_i_glide_gscore>  (115) 
-3.8167

>  <r_i_glide_lipo>  (115) 
-0.702815

>  <r_i_glide_hbond>  (115) 
0

>  <r_i_glide_metal>  (115) 
-0

>  <r_i_glide_rewards>  (115) 
-1.90729

>  <r_i_glide_evdw>  (115) 
-22.8953

>  <r_i_glide_ecoul>  (115) 
-0.338167

>  <r_i_glide_erotb>  (115) 
0

>  <r_i_glide_esite>  (115) 
-0.0111083

>  <r_i_glide_emodel>  (115) 
-28.9907

>  <r_i_glide_energy>  (115) 
-23.2334

>  <r_i_glide_einternal>  (115) 
0.000525207

>  <r_i_glide_intrahb_reward>  (115) 
-0

>  <i_i_glide_confnum>  (115) 
1

>  <i_i_glide_posenum>  (115) 
25

>  <r_i_glide_eff_state_penalty>  (115) 
0

>  <ligand_id>  (115) 
36

>  <original_smiles>  (115) 
CC1OC2(CC3C=CC=CC31)OC=CC2O

>  <smiles>  (115) 
[H]OC1([H])C([H])=C([H])OC12OC([H])(C([H])([H])[H])C1([H])C([H])=C([H])C([H])=C([H])C1([H])C2([H])[H]

$$$$
36:0:2
     RDKit          3D

 32 34  0  0  1  0  0  0  0  0999 V2000
    7.8624   -2.5562   -0.3029 C   0  0  0  0  0  0  0  0  0  0  0  0
    6.4449   -1.9692   -0.1822 C   0  0  2  0  0  0  0  0  0  0  0  0
    5.7254   -2.7126    0.8001 O   0  0  0  0  0  0  0  0  0  0  0  0
    4.4469   -2.2354    1.1393 C   0  0  1  0  0  0  0  0  0  0  0  0
    3.5674   -2.1222   -0.1307 C   0  0  0  0  0  0  0  0  0  0  0  0
    4.2491   -1.3365   -1.2666 C   0  0  2  0  0  0  0  0  0  0  0  0
    3.4037   -1.4396   -2.5288 C   0  0  0  0  0  0  0  0  0  0  0  0
    3.6215   -2.3756   -3.4701 C   0  0  0  0  0  0  0  0  0  0  0  0
    4.6997   -3.3334   -3.3084 C   0  0  0  0  0  0  0  0  0  0  0  0
    5.6641   -3.1226   -2.3934 C   0  0  0  0  0  0  0  0  0  0  0  0
    5.6717   -1.8749   -1.5138 C   0  0  2  0  0  0  0  0  0  0  0  0
    3.7777   -3.1555    1.9656 O   0  0  0  0  0  0  0  0  0  0  0  0
    3.2202   -2.5081    3.0254 C   0  0  0  0  0  0  0  0  0  0  0  0
    3.5699   -1.2296    3.0878 C   0  0  0  0  0  0  0  0  0  0  0  0
    4.5182   -0.9130    1.9834 C   0  0  1  0  0  0  0  0  0  0  0  0
    5.7801   -0.6569    2.5609 O   0  0  0  0  0  0  0  0  0  0  0  0
    8.4529   -2.0542   -1.0704 H   0  0  0  0  0  0  0  0  0  0  0  0
    7.8488   -3.6195   -0.5377 H   0  0  0  0  0  0  0  0  0  0  0  0
    8.3950   -2.4421    0.6394 H   0  0  0  0  0  0  0  0  0  0  0  0
    6.5680   -0.9448    0.1735 H   0  0  0  0  0  0  0  0  0  0  0  0
    3.3258   -3.1296   -0.4665 H   0  0  0  0  0  0  0  0  0  0  0  0
    2.6259   -1.6493    0.1477 H   0  0  0  0  0  0  0  0  0  0  0  0
    4.3169   -0.2806   -0.9985 H   0  0  0  0  0  0  0  0  0  0  0  0
    2.5911   -0.7324   -2.6283 H   0  0  0  0  0  0  0  0  0  0  0  0
    2.9817   -2.4182   -4.3425 H   0  0  0  0  0  0  0  0  0  0  0  0
    4.7236   -4.2283   -3.9197 H   0  0  0  0  0  0  0  0  0  0  0  0
    6.4718   -3.8266   -2.2859 H   0  0  0  0  0  0  0  0  0  0  0  0
    6.1819   -1.1323   -2.1217 H   0  0  0  0  0  0  0  0  0  0  0  0
    2.5712   -3.0955    3.6599 H   0  0  0  0  0  0  0  0  0  0  0  0
    3.2505   -0.5125    3.8322 H   0  0  0  0  0  0  0  0  0  0  0  0
    4.1823   -0.0506    1.4068 H   0  0  0  0  0  0  0  0  0  0  0  0
    6.0793   -1.4557    2.9692 H   0  0  0  0  0  0  0  0  0  0  0  0
  1  2  1  0
  1 17  1  0
  1 18  1  0
  1 19  1  0
  2 11  1  0
  2  3  1  0
  2 20  1  1
  4  3  1  6
  4 15  1  0
  4  5  1  0
  4 12  1  0
  5  6  1  0
  5 21  1  0
  5 22  1  0
  6 11  1  0
  6  7  1  0
  6 23  1  1
  7  8  2  0
  7 24  1  0
  8  9  1  0
  8 25  1  0
  9 10  2  0
  9 26  1  0
 10 11  1  0
 10 27  1  0
 11 28  1  6
 12 13  1  0
 13 14  2  0
 13 29  1  0
 14 15  1  0
 14 30  1  0
 15 16  1  0
 15 31  1  6
 16 32  1  0
M  END
>  <i_m_ct_stereo_status>  (116) 
1

>  <s_m_source_file>  (116) 
/var/tmp/pbs.5076255.sched01/tmprtix0sri/443g93ja_l.sdf

>  <i_m_source_file_index>  (116) 
6

>  <i_lp_mmshare_version>  (116) 
48012

>  <i_f3d_flags>  (116) 
0

>  <s_epik_input>  (116) 
W0NIXTE9W0NIXVtDSF09W0NIXVtDQEBIXShbQ0gyXTIpW0NASF0xW0NASF0oW0NIM10pT1tDQF0yM09bQ0hdPVtDSF1bQ0BIXTNbT0hd

>  <s_epik_cmdline>  (116) 
J2VwaWtfcHl0aG9uJywgJy1waHQnLCAnMi4wJywgJy1waCcsICc3LjAnLCAnLXRuJywgJzgnLCAnLW1hJywgJzIwMCcsICctaW1hZScsICc8aW5maWxlLm1hZT4nLCAnLW9tYWUnLCAnPG91dGZpbGUubWFlPic=

>  <r_lp_tautomer_probability>  (116) 
1

>  <r_epik_Ionization_Penalty>  (116) 
7.39393e-05

>  <r_epik_Ionization_Penalty_Charging>  (116) 
0

>  <r_epik_Ionization_Penalty_Neutral>  (116) 
7.39393e-05

>  <r_epik_State_Penalty>  (116) 
-0

>  <r_epik_Charging_Adjusted_Penalty>  (116) 
0

>  <i_epik_Tot_Q>  (116) 
0

>  <i_epik_Tot_abs_Q>  (116) 
0

>  <s_lp_Force_Field>  (116) 
OPLS3e

>  <r_lp_Energy>  (116) 
18.8077

>  <b_lp_Chiralities_Consistent>  (116) 
1

>  <s_lp_Variant>  (116) 
36:0-1

>  <s_i_glide_gridfile>  (116) 
pfpi4k_grid

>  <i_i_glide_lignum>  (116) 
6

>  <i_i_glide_rotatable_bonds>  (116) 
1

>  <r_i_docking_score>  (116) 
-3.75953

>  <r_i_glide_ligand_efficiency>  (116) 
-0.234971

>  <r_i_glide_ligand_efficiency_sa>  (116) 
-0.592089

>  <r_i_glide_ligand_efficiency_ln>  (116) 
-0.996539

>  <r_i_glide_gscore>  (116) 
-3.75953

>  <r_i_glide_lipo>  (116) 
-0.667869

>  <r_i_glide_hbond>  (116) 
0

>  <r_i_glide_metal>  (116) 
-0

>  <r_i_glide_rewards>  (116) 
-1.91645

>  <r_i_glide_evdw>  (116) 
-23.2037

>  <r_i_glide_ecoul>  (116) 
-0.100186

>  <r_i_glide_erotb>  (116) 
0

>  <r_i_glide_esite>  (116) 
0

>  <r_i_glide_emodel>  (116) 
-28.9885

>  <r_i_glide_energy>  (116) 
-23.3039

>  <r_i_glide_einternal>  (116) 
0.00283889

>  <r_i_glide_intrahb_reward>  (116) 
-0

>  <i_i_glide_confnum>  (116) 
2

>  <i_i_glide_posenum>  (116) 
38

>  <r_i_glide_eff_state_penalty>  (116) 
0

>  <ligand_id>  (116) 
36

>  <original_smiles>  (116) 
CC1OC2(CC3C=CC=CC31)OC=CC2O

>  <smiles>  (116) 
[H]OC1([H])C([H])=C([H])OC12OC([H])(C([H])([H])[H])C1([H])C([H])=C([H])C([H])=C([H])C1([H])C2([H])[H]

$$$$
37:0:0
     RDKit          3D

 71 76  0  0  1  0  0  0  0  0999 V2000
    3.8137   -2.6195   -3.9182 C   0  0  0  0  0  0  0  0  0  0  0  0
    4.2026   -2.8447   -2.4614 C   0  0  0  0  0  0  0  0  0  0  0  0
    4.8855   -3.8716   -1.9537 C   0  0  0  0  0  0  0  0  0  0  0  0
    4.9759   -3.8227   -0.4442 C   0  0  2  0  0  0  0  0  0  0  0  0
    3.9304   -4.7993    0.1718 C   0  0  0  0  0  0  0  0  0  0  0  0
    3.5086   -4.4962    1.6145 C   0  0  1  0  0  0  0  0  0  0  0  0
    4.5099   -4.9546    2.5056 O   0  0  0  0  0  0  0  0  0  0  0  0
    3.0990   -3.0008    1.7604 C   0  0  1  0  0  0  0  0  0  0  0  0
    3.0294   -2.3038    3.1266 C   0  0  2  0  0  0  0  0  0  0  0  0
    2.1699   -2.9285    4.2416 C   0  0  0  0  0  0  0  0  0  0  0  0
    0.6928   -2.5406    4.1653 C   0  0  0  0  0  0  0  0  0  0  0  0
    0.4759   -1.0160    4.0679 C   0  0  1  0  0  0  0  0  0  0  0  0
    0.9396   -0.4002    5.2834 O   0  0  0  0  0  0  0  0  0  0  0  0
    0.2633    0.8216    5.6052 C   0  0  2  0  0  0  0  0  0  0  0  0
    1.0921    1.6083    6.6999 C   0  0  0  0  0  0  0  0  0  0  0  0
    0.3266    2.8885    7.0706 C   0  0  1  0  0  0  0  0  0  0  0  0
    0.4189    3.8387    6.0279 O   0  0  0  0  0  0  0  0  0  0  0  0
   -1.1325    2.5456    7.4186 C   0  0  1  0  0  0  0  0  0  0  0  0
   -1.9211    3.6848    7.7910 O   0  0  0  0  0  0  0  0  0  0  0  0
   -1.8192    1.7110    6.3251 C   0  0  1  0  0  0  0  0  0  0  0  0
   -2.1315    2.4875    5.0103 C   0  0  0  0  0  0  0  0  0  0  0  0
   -1.0366    0.5366    6.1309 O   0  0  0  0  0  0  0  0  0  0  0  0
    1.1821   -0.4991    2.7802 C   0  0  1  0  0  0  0  0  0  0  0  0
    0.9014    0.9875    2.4466 C   0  0  0  0  0  0  0  0  0  0  0  0
    2.6922   -0.8182    2.7869 C   0  0  2  0  0  0  0  0  0  0  0  0
    3.3276   -0.6853    1.3819 C   0  0  1  0  0  0  0  0  0  0  0  0
    4.1366    0.4585    1.2434 O   0  0  0  0  0  0  0  0  0  0  0  0
    4.1363   -1.9996    1.2318 C   0  0  1  0  0  0  0  0  0  0  0  0
    5.1927   -2.0552    2.3666 C   0  0  0  0  0  0  0  0  0  0  0  0
    4.4001   -2.2985    3.5255 O   0  0  0  0  0  0  0  0  0  0  0  0
    4.6647   -2.3245   -0.1923 C   0  0  1  0  0  0  0  0  0  0  0  0
    5.8635   -1.5700   -0.3687 O   0  0  0  0  0  0  0  0  0  0  0  0
    3.7678   -1.9013   -1.3878 C   0  0  0  0  0  0  0  0  0  0  0  0
    4.2326   -1.6759   -4.2476 H   0  0  0  0  0  0  0  0  0  0  0  0
    2.7299   -2.5762   -3.9882 H   0  0  0  0  0  0  0  0  0  0  0  0
    4.1803   -3.4321   -4.5372 H   0  0  0  0  0  0  0  0  0  0  0  0
    5.2646   -4.7053   -2.5209 H   0  0  0  0  0  0  0  0  0  0  0  0
    5.9796   -4.0883   -0.1078 H   0  0  0  0  0  0  0  0  0  0  0  0
    3.0278   -4.7683   -0.4369 H   0  0  0  0  0  0  0  0  0  0  0  0
    4.2903   -5.8246    0.0927 H   0  0  0  0  0  0  0  0  0  0  0  0
    2.6304   -5.0882    1.8584 H   0  0  0  0  0  0  0  0  0  0  0  0
    4.2565   -4.7579    3.3819 H   0  0  0  0  0  0  0  0  0  0  0  0
    2.1600   -2.8773    1.2054 H   0  0  0  0  0  0  0  0  0  0  0  0
    2.2598   -4.0148    4.2094 H   0  0  0  0  0  0  0  0  0  0  0  0
    2.5670   -2.6276    5.2073 H   0  0  0  0  0  0  0  0  0  0  0  0
    0.2364   -3.0126    3.2887 H   0  0  0  0  0  0  0  0  0  0  0  0
    0.1600   -2.9365    5.0291 H   0  0  0  0  0  0  0  0  0  0  0  0
   -0.5948   -0.8570    3.9839 H   0  0  0  0  0  0  0  0  0  0  0  0
    0.1881    1.3875    4.7101 H   0  0  0  0  0  0  0  0  0  0  0  0
    1.2830    0.9874    7.5589 H   0  0  0  0  0  0  0  0  0  0  0  0
    2.0323    1.8452    6.2327 H   0  0  0  0  0  0  0  0  0  0  0  0
    0.7918    3.3514    7.9357 H   0  0  0  0  0  0  0  0  0  0  0  0
   -0.0213    3.5414    5.2474 H   0  0  0  0  0  0  0  0  0  0  0  0
   -1.1044    1.9332    8.3197 H   0  0  0  0  0  0  0  0  0  0  0  0
   -2.7213    3.3958    8.1622 H   0  0  0  0  0  0  0  0  0  0  0  0
   -2.7511    1.3390    6.7241 H   0  0  0  0  0  0  0  0  0  0  0  0
   -2.7570    3.3742    5.2258 H   0  0  0  0  0  0  0  0  0  0  0  0
   -2.7130    1.8881    4.2986 H   0  0  0  0  0  0  0  0  0  0  0  0
   -1.2378    2.8430    4.4718 H   0  0  0  0  0  0  0  0  0  0  0  0
    0.7312   -1.0718    1.9609 H   0  0  0  0  0  0  0  0  0  0  0  0
    1.3621    1.6335    3.1757 H   0  0  0  0  0  0  0  0  0  0  0  0
   -0.1697    1.1806    2.4917 H   0  0  0  0  0  0  0  0  0  0  0  0
    1.2055    1.2456    1.4302 H   0  0  0  0  0  0  0  0  0  0  0  0
    3.1745   -0.1875    3.5188 H   0  0  0  0  0  0  0  0  0  0  0  0
    2.5571   -0.6174    0.6177 H   0  0  0  0  0  0  0  0  0  0  0  0
    3.6352    1.2008    1.5243 H   0  0  0  0  0  0  0  0  0  0  0  0
    5.9113   -2.8584    2.2196 H   0  0  0  0  0  0  0  0  0  0  0  0
    5.7577   -1.1308    2.4664 H   0  0  0  0  0  0  0  0  0  0  0  0
    5.6807   -0.6883   -0.0847 H   0  0  0  0  0  0  0  0  0  0  0  0
    3.8775   -0.8567   -1.6755 H   0  0  0  0  0  0  0  0  0  0  0  0
    2.7190   -2.1039   -1.1787 H   0  0  0  0  0  0  0  0  0  0  0  0
  1  2  1  0
  1 34  1  0
  1 35  1  0
  1 36  1  0
  2 33  1  0
  2  3  2  0
  3  4  1  0
  3 37  1  0
  4 31  1  0
  4  5  1  0
  4 38  1  6
  5  6  1  0
  5 39  1  0
  5 40  1  0
  6  7  1  0
  6  8  1  0
  6 41  1  1
  7 42  1  0
  8 28  1  0
  8  9  1  0
  8 43  1  6
  9 25  1  0
  9 30  1  1
  9 10  1  0
 10 11  1  0
 10 44  1  0
 10 45  1  0
 11 12  1  0
 11 46  1  0
 11 47  1  0
 12 13  1  0
 12 23  1  0
 12 48  1  6
 13 14  1  0
 14 22  1  0
 14 15  1  0
 14 49  1  6
 15 16  1  0
 15 50  1  0
 15 51  1  0
 16 17  1  0
 16 18  1  0
 16 52  1  1
 17 53  1  0
 18 19  1  0
 18 20  1  0
 18 54  1  1
 19 55  1  0
 20 21  1  0
 20 22  1  0
 20 56  1  1
 21 57  1  0
 21 58  1  0
 21 59  1  0
 23 24  1  0
 23 25  1  0
 23 60  1  6
 24 61  1  0
 24 62  1  0
 24 63  1  0
 25 26  1  0
 25 64  1  1
 26 27  1  0
 26 28  1  0
 26 65  1  6
 27 66  1  0
 28 29  1  1
 28 31  1  0
 29 30  1  0
 29 67  1  0
 29 68  1  0
 31 32  1  6
 31 33  1  0
 32 69  1  0
 33 70  1  0
 33 71  1  0
M  END
>  <i_m_ct_stereo_status>  (117) 
1

>  <s_m_source_file>  (117) 
/var/tmp/pbs.5076255.sched01/tmprtix0sri/443g93ja_l.sdf

>  <i_m_source_file_index>  (117) 
7

>  <i_lp_mmshare_version>  (117) 
48012

>  <i_f3d_flags>  (117) 
0

>  <s_epik_input>  (117) 
W0NIM11DKFtDSDJdMSk9W0NIXVtDQEhdKFtDSDJdW0NASF0yW09IXSlbQ0BdMShbT0hdKVtDQEBdKFtDQEBIXTJbQ0BdMzQ1KShbQ0gyXU81KVtDQEhdKFtPSF0pW0NASF00W0NASF0oW0NIM10pW0NAQEhdKFtDSDJdW0NIMl0zKU9bQ0BASF02W0NIMl1bQ0BASF0oW09IXSlbQ0BASF0oW09IXSlbQ0BIXShPNilbQ0gzXQ==

>  <s_epik_cmdline>  (117) 
J2VwaWtfcHl0aG9uJywgJy1waHQnLCAnMi4wJywgJy1waCcsICc3LjAnLCAnLXRuJywgJzgnLCAnLW1hJywgJzIwMCcsICctaW1hZScsICc8aW5maWxlLm1hZT4nLCAnLW9tYWUnLCAnPG91dGZpbGUubWFlPic=

>  <r_lp_tautomer_probability>  (117) 
1

>  <r_epik_Ionization_Penalty>  (117) 
5.73766e-07

>  <r_epik_Ionization_Penalty_Charging>  (117) 
0

>  <r_epik_Ionization_Penalty_Neutral>  (117) 
5.73766e-07

>  <r_epik_State_Penalty>  (117) 
-0

>  <r_epik_Charging_Adjusted_Penalty>  (117) 
0

>  <i_epik_Tot_Q>  (117) 
0

>  <i_epik_Tot_abs_Q>  (117) 
0

>  <s_epik_Chemistry_Notes>  (117) 
This compound contains an acetal/aminal-like group ( X-CH(R)-Y where X, Y are N, S, or O) that may be acid/base labile, releasing an aldehyde.

>  <s_lp_Force_Field>  (117) 
OPLS3e

>  <r_lp_Energy>  (117) 
37.2875

>  <b_lp_Chiralities_Consistent>  (117) 
1

>  <s_lp_Variant>  (117) 
37:0-1

>  <s_i_glide_gridfile>  (117) 
pfpi4k_grid

>  <i_i_glide_lignum>  (117) 
7

>  <i_i_glide_rotatable_bonds>  (117) 
7

>  <r_i_docking_score>  (117) 
-3.27041

>  <r_i_glide_ligand_efficiency>  (117) 
-0.0991034

>  <r_i_glide_ligand_efficiency_sa>  (117) 
-0.317878

>  <r_i_glide_ligand_efficiency_ln>  (117) 
-0.727323

>  <r_i_glide_gscore>  (117) 
-3.27041

>  <r_i_glide_lipo>  (117) 
-0.223962

>  <r_i_glide_hbond>  (117) 
0

>  <r_i_glide_metal>  (117) 
-0

>  <r_i_glide_rewards>  (117) 
-0.72797

>  <r_i_glide_evdw>  (117) 
-32.6815

>  <r_i_glide_ecoul>  (117) 
-5.7572

>  <r_i_glide_erotb>  (117) 
0.185368

>  <r_i_glide_esite>  (117) 
-0.00619561

>  <r_i_glide_emodel>  (117) 
-48.5018

>  <r_i_glide_energy>  (117) 
-38.4387

>  <r_i_glide_einternal>  (117) 
3.86691

>  <r_i_glide_intrahb_reward>  (117) 
-0.5

>  <i_i_glide_confnum>  (117) 
3

>  <i_i_glide_posenum>  (117) 
23

>  <r_i_glide_eff_state_penalty>  (117) 
0

>  <ligand_id>  (117) 
37

>  <original_smiles>  (117) 
CC1=CC2CC(O)C3C45CCC(OC6CC(O)C(O)C(C)O6)C(C)C4C(O)C3(CO5)C2(O)C1

>  <smiles>  (117) 
[H]OC1([H])C([H])([H])C([H])(OC2([H])C([H])([H])C([H])([H])C34OC([H])([H])C5(C([H])(O[H])C3([H])C2([H])C([H])([H])[H])C4([H])C([H])(O[H])C([H])([H])C2([H])C([H])=C(C([H])([H])[H])C([H])([H])C25O[H])OC([H])(C([H])([H])[H])C1([H])O[H]

$$$$
37:0:1
     RDKit          3D

 71 76  0  0  1  0  0  0  0  0999 V2000
    3.9052   -2.8776   -3.9189 C   0  0  0  0  0  0  0  0  0  0  0  0
    4.2712   -3.0361   -2.4419 C   0  0  0  0  0  0  0  0  0  0  0  0
    4.9116   -4.0369   -1.8786 C   0  0  0  0  0  0  0  0  0  0  0  0
    4.9882   -3.9191   -0.3686 C   0  0  2  0  0  0  0  0  0  0  0  0
    3.9163   -4.8379    0.2776 C   0  0  0  0  0  0  0  0  0  0  0  0
    3.4796   -4.4589    1.7022 C   0  0  1  0  0  0  0  0  0  0  0  0
    4.4787   -4.9009    2.6130 O   0  0  0  0  0  0  0  0  0  0  0  0
    3.1007   -2.9509    1.7580 C   0  0  1  0  0  0  0  0  0  0  0  0
    3.0252   -2.1777    3.0937 C   0  0  2  0  0  0  0  0  0  0  0  0
    2.1425   -2.7364    4.2228 C   0  0  0  0  0  0  0  0  0  0  0  0
    0.6687   -2.3200    4.1092 C   0  0  0  0  0  0  0  0  0  0  0  0
    0.4853   -0.8074    3.9297 C   0  0  1  0  0  0  0  0  0  0  0  0
    0.9192   -0.1178    5.1074 O   0  0  0  0  0  0  0  0  0  0  0  0
    0.2150    1.0664    5.4261 C   0  0  2  0  0  0  0  0  0  0  0  0
    1.0411    1.9458    6.3921 C   0  0  0  0  0  0  0  0  0  0  0  0
    0.2399    3.2131    6.8041 C   0  0  1  0  0  0  0  0  0  0  0  0
    0.1957    4.1768    5.7444 O   0  0  0  0  0  0  0  0  0  0  0  0
   -1.1652    2.7993    7.2415 C   0  0  1  0  0  0  0  0  0  0  0  0
   -1.9882    3.8908    7.6522 O   0  0  0  0  0  0  0  0  0  0  0  0
   -1.8604    1.8924    6.2017 C   0  0  1  0  0  0  0  0  0  0  0  0
   -2.2848    2.5943    4.8847 C   0  0  0  0  0  0  0  0  0  0  0  0
   -1.0239    0.7500    6.0074 O   0  0  0  0  0  0  0  0  0  0  0  0
    1.2078   -0.3616    2.6262 C   0  0  1  0  0  0  0  0  0  0  0  0
    0.9517    1.0999    2.2222 C   0  0  0  0  0  0  0  0  0  0  0  0
    2.7091   -0.7208    2.6579 C   0  0  2  0  0  0  0  0  0  0  0  0
    3.3764   -0.6671    1.2751 C   0  0  1  0  0  0  0  0  0  0  0  0
    4.2122    0.4541    1.1249 O   0  0  0  0  0  0  0  0  0  0  0  0
    4.1500   -1.9972    1.2018 C   0  0  1  0  0  0  0  0  0  0  0  0
    5.1990   -2.0041    2.3487 C   0  0  0  0  0  0  0  0  0  0  0  0
    4.3886   -2.1728    3.5101 O   0  0  0  0  0  0  0  0  0  0  0  0
    4.7027   -2.3970   -0.2046 C   0  0  1  0  0  0  0  0  0  0  0  0
    5.9331   -1.6987   -0.4014 O   0  0  0  0  0  0  0  0  0  0  0  0
    3.8277   -2.0280   -1.4294 C   0  0  0  0  0  0  0  0  0  0  0  0
    4.3457   -1.9569   -4.2918 H   0  0  0  0  0  0  0  0  0  0  0  0
    2.8205   -2.8253   -4.0053 H   0  0  0  0  0  0  0  0  0  0  0  0
    4.2732   -3.7288   -4.4826 H   0  0  0  0  0  0  0  0  0  0  0  0
    5.2786   -4.9219   -2.3809 H   0  0  0  0  0  0  0  0  0  0  0  0
    5.9828   -4.1816   -0.0055 H   0  0  0  0  0  0  0  0  0  0  0  0
    3.0191   -4.8213   -0.3459 H   0  0  0  0  0  0  0  0  0  0  0  0
    4.2572   -5.8758    0.2543 H   0  0  0  0  0  0  0  0  0  0  0  0
    2.5891   -5.0253    1.9633 H   0  0  0  0  0  0  0  0  0  0  0  0
    5.2706   -4.4300    2.4581 H   0  0  0  0  0  0  0  0  0  0  0  0
    2.1640   -2.8408    1.1967 H   0  0  0  0  0  0  0  0  0  0  0  0
    2.2064   -3.8162    4.2463 H   0  0  0  0  0  0  0  0  0  0  0  0
    2.5248   -2.3806    5.1873 H   0  0  0  0  0  0  0  0  0  0  0  0
    0.2478   -2.8382    3.2453 H   0  0  0  0  0  0  0  0  0  0  0  0
    0.1092   -2.6661    4.9758 H   0  0  0  0  0  0  0  0  0  0  0  0
   -0.5892   -0.6386    3.8154 H   0  0  0  0  0  0  0  0  0  0  0  0
    0.0321    1.6069    4.4955 H   0  0  0  0  0  0  0  0  0  0  0  0
    1.3124    1.3699    7.2857 H   0  0  0  0  0  0  0  0  0  0  0  0
    1.9727    2.2053    5.9025 H   0  0  0  0  0  0  0  0  0  0  0  0
    0.7471    3.6950    7.6404 H   0  0  0  0  0  0  0  0  0  0  0  0
    1.0292    4.2603    5.3671 H   0  0  0  0  0  0  0  0  0  0  0  0
   -1.0462    2.2029    8.1444 H   0  0  0  0  0  0  0  0  0  0  0  0
   -2.7992    3.5645    7.9778 H   0  0  0  0  0  0  0  0  0  0  0  0
   -2.7429    1.4789    6.6742 H   0  0  0  0  0  0  0  0  0  0  0  0
   -2.9615    3.4243    5.1039 H   0  0  0  0  0  0  0  0  0  0  0  0
   -2.8768    1.9395    4.2318 H   0  0  0  0  0  0  0  0  0  0  0  0
   -1.4372    2.9729    4.2891 H   0  0  0  0  0  0  0  0  0  0  0  0
    0.7600   -0.9644    1.8319 H   0  0  0  0  0  0  0  0  0  0  0  0
    1.4379    1.7881    2.9186 H   0  0  0  0  0  0  0  0  0  0  0  0
   -0.1110    1.3188    2.2265 H   0  0  0  0  0  0  0  0  0  0  0  0
    1.3092    1.3189    1.2084 H   0  0  0  0  0  0  0  0  0  0  0  0
    3.2014   -0.0416    3.3629 H   0  0  0  0  0  0  0  0  0  0  0  0
    2.6113   -0.6082    0.4874 H   0  0  0  0  0  0  0  0  0  0  0  0
    4.3513    0.6296    0.2217 H   0  0  0  0  0  0  0  0  0  0  0  0
    5.9044   -2.8259    2.2598 H   0  0  0  0  0  0  0  0  0  0  0  0
    5.7765   -1.0826    2.4166 H   0  0  0  0  0  0  0  0  0  0  0  0
    5.8140   -0.8150   -0.1241 H   0  0  0  0  0  0  0  0  0  0  0  0
    3.9595   -0.9978   -1.7691 H   0  0  0  0  0  0  0  0  0  0  0  0
    2.7697   -2.1930   -1.2297 H   0  0  0  0  0  0  0  0  0  0  0  0
  1  2  1  0
  1 34  1  0
  1 35  1  0
  1 36  1  0
  2 33  1  0
  2  3  2  0
  3  4  1  0
  3 37  1  0
  4 31  1  0
  4  5  1  0
  4 38  1  1
  5  6  1  0
  5 39  1  0
  5 40  1  0
  6  7  1  0
  6  8  1  0
  6 41  1  1
  7 42  1  0
  8 28  1  0
  8  9  1  0
  8 43  1  6
  9 25  1  0
  9 30  1  1
  9 10  1  0
 10 11  1  0
 10 44  1  0
 10 45  1  0
 11 12  1  0
 11 46  1  0
 11 47  1  0
 12 13  1  0
 12 23  1  0
 12 48  1  6
 13 14  1  0
 14 22  1  0
 14 15  1  0
 14 49  1  6
 15 16  1  0
 15 50  1  0
 15 51  1  0
 16 17  1  0
 16 18  1  0
 16 52  1  1
 17 53  1  0
 18 19  1  0
 18 20  1  0
 18 54  1  1
 19 55  1  0
 20 21  1  0
 20 22  1  0
 20 56  1  1
 21 57  1  0
 21 58  1  0
 21 59  1  0
 23 24  1  0
 23 25  1  0
 23 60  1  6
 24 61  1  0
 24 62  1  0
 24 63  1  0
 25 26  1  0
 25 64  1  1
 26 27  1  0
 26 28  1  0
 26 65  1  6
 27 66  1  0
 28 29  1  1
 28 31  1  0
 29 30  1  0
 29 67  1  0
 29 68  1  0
 31 32  1  6
 31 33  1  0
 32 69  1  0
 33 70  1  0
 33 71  1  0
M  END
>  <i_m_ct_stereo_status>  (118) 
1

>  <s_m_source_file>  (118) 
/var/tmp/pbs.5076255.sched01/tmprtix0sri/443g93ja_l.sdf

>  <i_m_source_file_index>  (118) 
7

>  <i_lp_mmshare_version>  (118) 
48012

>  <i_f3d_flags>  (118) 
0

>  <s_epik_input>  (118) 
W0NIM11DKFtDSDJdMSk9W0NIXVtDQEhdKFtDSDJdW0NASF0yW09IXSlbQ0BdMShbT0hdKVtDQEBdKFtDQEBIXTJbQ0BdMzQ1KShbQ0gyXU81KVtDQEhdKFtPSF0pW0NASF00W0NASF0oW0NIM10pW0NAQEhdKFtDSDJdW0NIMl0zKU9bQ0BASF02W0NIMl1bQ0BASF0oW09IXSlbQ0BASF0oW09IXSlbQ0BIXShPNilbQ0gzXQ==

>  <s_epik_cmdline>  (118) 
J2VwaWtfcHl0aG9uJywgJy1waHQnLCAnMi4wJywgJy1waCcsICc3LjAnLCAnLXRuJywgJzgnLCAnLW1hJywgJzIwMCcsICctaW1hZScsICc8aW5maWxlLm1hZT4nLCAnLW9tYWUnLCAnPG91dGZpbGUubWFlPic=

>  <r_lp_tautomer_probability>  (118) 
1

>  <r_epik_Ionization_Penalty>  (118) 
5.73766e-07

>  <r_epik_Ionization_Penalty_Charging>  (118) 
0

>  <r_epik_Ionization_Penalty_Neutral>  (118) 
5.73766e-07

>  <r_epik_State_Penalty>  (118) 
-0

>  <r_epik_Charging_Adjusted_Penalty>  (118) 
0

>  <i_epik_Tot_Q>  (118) 
0

>  <i_epik_Tot_abs_Q>  (118) 
0

>  <s_epik_Chemistry_Notes>  (118) 
This compound contains an acetal/aminal-like group ( X-CH(R)-Y where X, Y are N, S, or O) that may be acid/base labile, releasing an aldehyde.

>  <s_lp_Force_Field>  (118) 
OPLS3e

>  <r_lp_Energy>  (118) 
37.2875

>  <b_lp_Chiralities_Consistent>  (118) 
1

>  <s_lp_Variant>  (118) 
37:0-1

>  <s_i_glide_gridfile>  (118) 
pfpi4k_grid

>  <i_i_glide_lignum>  (118) 
7

>  <i_i_glide_rotatable_bonds>  (118) 
7

>  <r_i_docking_score>  (118) 
-2.75871

>  <r_i_glide_ligand_efficiency>  (118) 
-0.0835971

>  <r_i_glide_ligand_efficiency_sa>  (118) 
-0.268141

>  <r_i_glide_ligand_efficiency_ln>  (118) 
-0.613522

>  <r_i_glide_gscore>  (118) 
-2.75871

>  <r_i_glide_lipo>  (118) 
-0.241607

>  <r_i_glide_hbond>  (118) 
0

>  <r_i_glide_metal>  (118) 
-0

>  <r_i_glide_rewards>  (118) 
-0.22797

>  <r_i_glide_evdw>  (118) 
-31.5056

>  <r_i_glide_ecoul>  (118) 
-5.96091

>  <r_i_glide_erotb>  (118) 
0.185368

>  <r_i_glide_esite>  (118) 
-0.00508179

>  <r_i_glide_emodel>  (118) 
-41.4789

>  <r_i_glide_energy>  (118) 
-37.4665

>  <r_i_glide_einternal>  (118) 
3.24594

>  <r_i_glide_intrahb_reward>  (118) 
-0

>  <i_i_glide_confnum>  (118) 
2

>  <i_i_glide_posenum>  (118) 
33

>  <r_i_glide_eff_state_penalty>  (118) 
0

>  <ligand_id>  (118) 
37

>  <original_smiles>  (118) 
CC1=CC2CC(O)C3C45CCC(OC6CC(O)C(O)C(C)O6)C(C)C4C(O)C3(CO5)C2(O)C1

>  <smiles>  (118) 
[H]OC1([H])C([H])([H])C([H])(OC2([H])C([H])([H])C([H])([H])C34OC([H])([H])C5(C([H])(O[H])C3([H])C2([H])C([H])([H])[H])C4([H])C([H])(O[H])C([H])([H])C2([H])C([H])=C(C([H])([H])[H])C([H])([H])C25O[H])OC([H])(C([H])([H])[H])C1([H])O[H]

$$$$
37:0:2
     RDKit          3D

 71 76  0  0  1  0  0  0  0  0999 V2000
    3.8505   -2.5707   -3.9268 C   0  0  0  0  0  0  0  0  0  0  0  0
    4.2502   -2.8187   -2.4844 C   0  0  0  0  0  0  0  0  0  0  0  0
    4.9440   -3.8513   -1.9943 C   0  0  0  0  0  0  0  0  0  0  0  0
    5.0320   -3.8016   -0.4818 C   0  0  2  0  0  0  0  0  0  0  0  0
    3.9973   -4.7957    0.1171 C   0  0  0  0  0  0  0  0  0  0  0  0
    3.5768   -4.5069    1.5730 C   0  0  1  0  0  0  0  0  0  0  0  0
    4.5943   -4.9658    2.4459 O   0  0  0  0  0  0  0  0  0  0  0  0
    3.1516   -3.0134    1.7163 C   0  0  1  0  0  0  0  0  0  0  0  0
    3.0624   -2.3349    3.0948 C   0  0  2  0  0  0  0  0  0  0  0  0
    2.2101   -2.9997    4.1977 C   0  0  0  0  0  0  0  0  0  0  0  0
    0.7200   -2.6257    4.1331 C   0  0  0  0  0  0  0  0  0  0  0  0
    0.4924   -1.1029    4.0544 C   0  0  1  0  0  0  0  0  0  0  0  0
    0.9281   -0.4721    5.2705 O   0  0  0  0  0  0  0  0  0  0  0  0
    0.2358    0.6925    5.6249 C   0  0  2  0  0  0  0  0  0  0  0  0
    1.0102    1.4713    6.7278 C   0  0  0  0  0  0  0  0  0  0  0  0
    0.2213    2.7322    7.1447 C   0  0  1  0  0  0  0  0  0  0  0  0
    0.3085    3.7278    6.1397 O   0  0  0  0  0  0  0  0  0  0  0  0
   -1.2449    2.3490    7.4477 C   0  0  1  0  0  0  0  0  0  0  0  0
   -2.0616    3.4573    7.7980 O   0  0  0  0  0  0  0  0  0  0  0  0
   -1.8735    1.5442    6.3002 C   0  0  1  0  0  0  0  0  0  0  0  0
   -2.1455    2.3719    5.0103 C   0  0  0  0  0  0  0  0  0  0  0  0
   -1.0514    0.3969    6.0893 O   0  0  0  0  0  0  0  0  0  0  0  0
    1.1827   -0.5578    2.7698 C   0  0  1  0  0  0  0  0  0  0  0  0
    0.8687    0.9217    2.4623 C   0  0  0  0  0  0  0  0  0  0  0  0
    2.6984   -0.8596    2.7689 C   0  0  2  0  0  0  0  0  0  0  0  0
    3.3589   -0.6724    1.3783 C   0  0  1  0  0  0  0  0  0  0  0  0
    4.1078    0.5300    1.2825 O   0  0  0  0  0  0  0  0  0  0  0  0
    4.1675   -1.9912    1.2136 C   0  0  1  0  0  0  0  0  0  0  0  0
    5.2210   -2.0381    2.3463 C   0  0  0  0  0  0  0  0  0  0  0  0
    4.4320   -2.3114    3.5014 O   0  0  0  0  0  0  0  0  0  0  0  0
    4.7084   -2.3004   -0.2111 C   0  0  1  0  0  0  0  0  0  0  0  0
    5.9264   -1.5831   -0.3823 O   0  0  0  0  0  0  0  0  0  0  0  0
    3.8070   -1.8862   -1.3976 C   0  0  0  0  0  0  0  0  0  0  0  0
    4.2576   -1.6159   -4.2526 H   0  0  0  0  0  0  0  0  0  0  0  0
    2.7638   -2.5375   -4.0083 H   0  0  0  0  0  0  0  0  0  0  0  0
    4.2281   -3.3634   -4.5634 H   0  0  0  0  0  0  0  0  0  0  0  0
    5.3464   -4.6645   -2.5696 H   0  0  0  0  0  0  0  0  0  0  0  0
    6.0361   -4.0589   -0.1385 H   0  0  0  0  0  0  0  0  0  0  0  0
    3.0911   -4.7693   -0.4890 H   0  0  0  0  0  0  0  0  0  0  0  0
    4.3726   -5.8162    0.0284 H   0  0  0  0  0  0  0  0  0  0  0  0
    2.7092   -5.1274    1.8070 H   0  0  0  0  0  0  0  0  0  0  0  0
    5.3723   -4.4528    2.3077 H   0  0  0  0  0  0  0  0  0  0  0  0
    2.2053   -2.9127    1.1774 H   0  0  0  0  0  0  0  0  0  0  0  0
    2.3243   -4.0883    4.1633 H   0  0  0  0  0  0  0  0  0  0  0  0
    2.5927   -2.6927    5.1739 H   0  0  0  0  0  0  0  0  0  0  0  0
    0.2790   -3.0926    3.2548 H   0  0  0  0  0  0  0  0  0  0  0  0
    0.1919   -3.0463    4.9889 H   0  0  0  0  0  0  0  0  0  0  0  0
   -0.5868   -0.9579    3.9699 H   0  0  0  0  0  0  0  0  0  0  0  0
    0.1572    1.3050    4.7493 H   0  0  0  0  0  0  0  0  0  0  0  0
    1.1937    0.8283    7.5977 H   0  0  0  0  0  0  0  0  0  0  0  0
    1.9748    1.7547    6.3264 H   0  0  0  0  0  0  0  0  0  0  0  0
    0.6662    3.1786    8.0344 H   0  0  0  0  0  0  0  0  0  0  0  0
   -0.0435    3.4020    5.3220 H   0  0  0  0  0  0  0  0  0  0  0  0
   -1.2308    1.7119    8.3312 H   0  0  0  0  0  0  0  0  0  0  0  0
   -1.6975    3.8843    8.5561 H   0  0  0  0  0  0  0  0  0  0  0  0
   -2.8234    1.1582    6.6567 H   0  0  0  0  0  0  0  0  0  0  0  0
   -2.7705    3.2386    5.2412 H   0  0  0  0  0  0  0  0  0  0  0  0
   -2.6908    1.7924    4.2677 H   0  0  0  0  0  0  0  0  0  0  0  0
   -1.2475    2.7480    4.5171 H   0  0  0  0  0  0  0  0  0  0  0  0
    0.7384   -1.1214    1.9469 H   0  0  0  0  0  0  0  0  0  0  0  0
    1.3407    1.5813    3.1860 H   0  0  0  0  0  0  0  0  0  0  0  0
   -0.2060    1.0999    2.5114 H   0  0  0  0  0  0  0  0  0  0  0  0
    1.1792    1.2136    1.4581 H   0  0  0  0  0  0  0  0  0  0  0  0
    3.1660   -0.2283    3.5178 H   0  0  0  0  0  0  0  0  0  0  0  0
    2.5851   -0.6281    0.6126 H   0  0  0  0  0  0  0  0  0  0  0  0
    3.5515    1.2596    1.5220 H   0  0  0  0  0  0  0  0  0  0  0  0
    5.9558   -2.8258    2.1950 H   0  0  0  0  0  0  0  0  0  0  0  0
    5.7675   -1.1012    2.4564 H   0  0  0  0  0  0  0  0  0  0  0  0
    6.4699   -1.7421    0.3723 H   0  0  0  0  0  0  0  0  0  0  0  0
    3.9109   -0.8373   -1.6738 H   0  0  0  0  0  0  0  0  0  0  0  0
    2.7549   -2.0913   -1.1981 H   0  0  0  0  0  0  0  0  0  0  0  0
  1  2  1  0
  1 34  1  0
  1 35  1  0
  1 36  1  0
  2 33  1  0
  2  3  2  0
  3  4  1  0
  3 37  1  0
  4 31  1  0
  4  5  1  0
  4 38  1  6
  5  6  1  0
  5 39  1  0
  5 40  1  0
  6  7  1  0
  6  8  1  0
  6 41  1  1
  7 42  1  0
  8 28  1  0
  8  9  1  0
  8 43  1  6
  9 25  1  0
  9 30  1  1
  9 10  1  0
 10 11  1  0
 10 44  1  0
 10 45  1  0
 11 12  1  0
 11 46  1  0
 11 47  1  0
 12 13  1  0
 12 23  1  0
 12 48  1  6
 13 14  1  0
 14 22  1  0
 14 15  1  0
 14 49  1  6
 15 16  1  0
 15 50  1  0
 15 51  1  0
 16 17  1  0
 16 18  1  0
 16 52  1  1
 17 53  1  0
 18 19  1  0
 18 20  1  0
 18 54  1  1
 19 55  1  0
 20 21  1  0
 20 22  1  0
 20 56  1  1
 21 57  1  0
 21 58  1  0
 21 59  1  0
 23 24  1  0
 23 25  1  0
 23 60  1  6
 24 61  1  0
 24 62  1  0
 24 63  1  0
 25 26  1  0
 25 64  1  1
 26 27  1  0
 26 28  1  0
 26 65  1  6
 27 66  1  0
 28 29  1  1
 28 31  1  0
 29 30  1  0
 29 67  1  0
 29 68  1  0
 31 32  1  6
 31 33  1  0
 32 69  1  0
 33 70  1  0
 33 71  1  0
M  END
>  <i_m_ct_stereo_status>  (119) 
1

>  <s_m_source_file>  (119) 
/var/tmp/pbs.5076255.sched01/tmprtix0sri/443g93ja_l.sdf

>  <i_m_source_file_index>  (119) 
7

>  <i_lp_mmshare_version>  (119) 
48012

>  <i_f3d_flags>  (119) 
0

>  <s_epik_input>  (119) 
W0NIM11DKFtDSDJdMSk9W0NIXVtDQEhdKFtDSDJdW0NASF0yW09IXSlbQ0BdMShbT0hdKVtDQEBdKFtDQEBIXTJbQ0BdMzQ1KShbQ0gyXU81KVtDQEhdKFtPSF0pW0NASF00W0NASF0oW0NIM10pW0NAQEhdKFtDSDJdW0NIMl0zKU9bQ0BASF02W0NIMl1bQ0BASF0oW09IXSlbQ0BASF0oW09IXSlbQ0BIXShPNilbQ0gzXQ==

>  <s_epik_cmdline>  (119) 
J2VwaWtfcHl0aG9uJywgJy1waHQnLCAnMi4wJywgJy1waCcsICc3LjAnLCAnLXRuJywgJzgnLCAnLW1hJywgJzIwMCcsICctaW1hZScsICc8aW5maWxlLm1hZT4nLCAnLW9tYWUnLCAnPG91dGZpbGUubWFlPic=

>  <r_lp_tautomer_probability>  (119) 
1

>  <r_epik_Ionization_Penalty>  (119) 
5.73766e-07

>  <r_epik_Ionization_Penalty_Charging>  (119) 
0

>  <r_epik_Ionization_Penalty_Neutral>  (119) 
5.73766e-07

>  <r_epik_State_Penalty>  (119) 
-0

>  <r_epik_Charging_Adjusted_Penalty>  (119) 
0

>  <i_epik_Tot_Q>  (119) 
0

>  <i_epik_Tot_abs_Q>  (119) 
0

>  <s_epik_Chemistry_Notes>  (119) 
This compound contains an acetal/aminal-like group ( X-CH(R)-Y where X, Y are N, S, or O) that may be acid/base labile, releasing an aldehyde.

>  <s_lp_Force_Field>  (119) 
OPLS3e

>  <r_lp_Energy>  (119) 
37.2875

>  <b_lp_Chiralities_Consistent>  (119) 
1

>  <s_lp_Variant>  (119) 
37:0-1

>  <s_i_glide_gridfile>  (119) 
pfpi4k_grid

>  <i_i_glide_lignum>  (119) 
7

>  <i_i_glide_rotatable_bonds>  (119) 
7

>  <r_i_docking_score>  (119) 
-2.70072

>  <r_i_glide_ligand_efficiency>  (119) 
-0.0818399

>  <r_i_glide_ligand_efficiency_sa>  (119) 
-0.262504

>  <r_i_glide_ligand_efficiency_ln>  (119) 
-0.600625

>  <r_i_glide_gscore>  (119) 
-2.70072

>  <r_i_glide_lipo>  (119) 
-0.2332

>  <r_i_glide_hbond>  (119) 
0

>  <r_i_glide_metal>  (119) 
-0

>  <r_i_glide_rewards>  (119) 
-0.22797

>  <r_i_glide_evdw>  (119) 
-32.3943

>  <r_i_glide_ecoul>  (119) 
-5.32046

>  <r_i_glide_erotb>  (119) 
0.185368

>  <r_i_glide_esite>  (119) 
-0.00712798

>  <r_i_glide_emodel>  (119) 
-41.7034

>  <r_i_glide_energy>  (119) 
-37.7148

>  <r_i_glide_einternal>  (119) 
3.39981

>  <r_i_glide_intrahb_reward>  (119) 
-0

>  <i_i_glide_confnum>  (119) 
2

>  <i_i_glide_posenum>  (119) 
6

>  <r_i_glide_eff_state_penalty>  (119) 
0

>  <ligand_id>  (119) 
37

>  <original_smiles>  (119) 
CC1=CC2CC(O)C3C45CCC(OC6CC(O)C(O)C(C)O6)C(C)C4C(O)C3(CO5)C2(O)C1

>  <smiles>  (119) 
[H]OC1([H])C([H])([H])C([H])(OC2([H])C([H])([H])C([H])([H])C34OC([H])([H])C5(C([H])(O[H])C3([H])C2([H])C([H])([H])[H])C4([H])C([H])(O[H])C([H])([H])C2([H])C([H])=C(C([H])([H])[H])C([H])([H])C25O[H])OC([H])(C([H])([H])[H])C1([H])O[H]

$$$$
38:0:0
     RDKit          3D

 57 62  0  0  1  0  0  0  0  0999 V2000
    8.2743   -3.4810    0.2282 C   0  0  0  0  0  0  0  0  0  0  0  0
    7.0243   -2.8948   -0.4338 C   0  0  0  0  0  0  0  0  0  0  0  0
    7.1068   -2.2556   -1.4868 O   0  0  0  0  0  0  0  0  0  0  0  0
    5.8351   -3.1181    0.1728 O   0  0  0  0  0  0  0  0  0  0  0  0
    5.7075   -3.6653    1.4826 C   0  0  2  0  0  0  0  0  0  0  0  0
    5.8106   -5.2192    1.4153 C   0  0  0  0  0  0  0  0  0  0  0  0
    4.5126   -5.9804    1.4101 C   0  0  2  0  0  0  0  0  0  0  0  0
    4.4712   -7.0607    0.4558 O   0  0  0  0  0  0  0  0  0  0  0  0
    3.6033   -5.9524    0.2206 C   0  0  1  0  0  0  0  0  0  0  0  0
    2.2160   -6.0850    0.7419 C   0  0  2  0  0  0  0  0  0  0  0  0
    1.7994   -5.0711    1.6516 O   0  0  0  0  0  0  0  0  0  0  0  0
    2.2722   -6.2856    2.2397 C   0  0  1  0  0  0  0  0  0  0  0  0
    1.2072   -7.0714    3.0411 C   0  0  0  0  0  0  0  0  0  0  0  0
    0.0165   -7.5169    2.1622 C   0  0  0  0  0  0  0  0  0  0  0  0
    0.6532   -6.3228    4.2723 C   0  0  0  0  0  0  0  0  0  0  0  0
    3.7433   -6.2367    2.7353 C   0  0  1  0  0  0  0  0  0  0  0  0
    4.2081   -7.5947    3.2949 C   0  0  0  0  0  0  0  0  0  0  0  0
    3.9256   -5.1284    3.8064 C   0  0  1  0  0  0  0  0  0  0  0  0
    5.2067   -4.9787    4.6251 C   0  0  0  0  0  0  0  0  0  0  0  0
    5.2645   -3.5520    4.3740 O   0  0  0  0  0  0  0  0  0  0  0  0
    4.0921   -3.6371    3.5042 C   0  0  2  0  0  0  0  0  0  0  0  0
    3.0341   -2.6694    3.9942 C   0  0  0  0  0  0  0  0  0  0  0  0
    3.4652   -1.2931    3.4800 C   0  0  0  0  0  0  0  0  0  0  0  0
    4.2708   -1.5556    2.1935 C   0  0  1  0  0  0  0  0  0  0  0  0
    3.5824   -0.9565    0.9512 C   0  0  0  0  0  0  0  0  0  0  0  0
    5.5288   -0.9179    2.3321 O   0  0  0  0  0  0  0  0  0  0  0  0
    4.4041   -3.1040    2.1014 C   0  0  1  0  0  0  0  0  0  0  0  0
    8.3963   -3.1138    1.2460 H   0  0  0  0  0  0  0  0  0  0  0  0
    9.1744   -3.2084   -0.3235 H   0  0  0  0  0  0  0  0  0  0  0  0
    8.2292   -4.5702    0.2593 H   0  0  0  0  0  0  0  0  0  0  0  0
    6.5265   -3.2905    2.0928 H   0  0  0  0  0  0  0  0  0  0  0  0
    6.3092   -5.5031    0.4870 H   0  0  0  0  0  0  0  0  0  0  0  0
    6.4497   -5.6032    2.2038 H   0  0  0  0  0  0  0  0  0  0  0  0
    3.8616   -5.3082   -0.6223 H   0  0  0  0  0  0  0  0  0  0  0  0
    1.4260   -6.5257    0.1306 H   0  0  0  0  0  0  0  0  0  0  0  0
    1.6569   -8.0032    3.3809 H   0  0  0  0  0  0  0  0  0  0  0  0
   -0.5401   -6.6649    1.7718 H   0  0  0  0  0  0  0  0  0  0  0  0
   -0.6720   -8.1327    2.7376 H   0  0  0  0  0  0  0  0  0  0  0  0
    0.3536   -8.1259    1.3222 H   0  0  0  0  0  0  0  0  0  0  0  0
    0.1715   -5.3859    3.9884 H   0  0  0  0  0  0  0  0  0  0  0  0
    1.4057   -6.1061    5.0276 H   0  0  0  0  0  0  0  0  0  0  0  0
   -0.1050   -6.9340    4.7621 H   0  0  0  0  0  0  0  0  0  0  0  0
    3.7403   -7.7960    4.2571 H   0  0  0  0  0  0  0  0  0  0  0  0
    5.2876   -7.6209    3.4554 H   0  0  0  0  0  0  0  0  0  0  0  0
    3.9624   -8.4229    2.6247 H   0  0  0  0  0  0  0  0  0  0  0  0
    3.1517   -5.2140    4.5619 H   0  0  0  0  0  0  0  0  0  0  0  0
    5.0304   -5.2112    5.6704 H   0  0  0  0  0  0  0  0  0  0  0  0
    6.0909   -5.4988    4.2631 H   0  0  0  0  0  0  0  0  0  0  0  0
    2.0695   -2.9373    3.5481 H   0  0  0  0  0  0  0  0  0  0  0  0
    2.9154   -2.7030    5.0774 H   0  0  0  0  0  0  0  0  0  0  0  0
    2.6047   -0.6463    3.3138 H   0  0  0  0  0  0  0  0  0  0  0  0
    4.0907   -0.8059    4.2321 H   0  0  0  0  0  0  0  0  0  0  0  0
    2.5972   -1.3983    0.7965 H   0  0  0  0  0  0  0  0  0  0  0  0
    4.1541   -1.1247    0.0427 H   0  0  0  0  0  0  0  0  0  0  0  0
    3.4443    0.1191    1.0548 H   0  0  0  0  0  0  0  0  0  0  0  0
    5.9989   -1.0226    1.5281 H   0  0  0  0  0  0  0  0  0  0  0  0
    3.5845   -3.4194    1.4509 H   0  0  0  0  0  0  0  0  0  0  0  0
  1  2  1  0
  1 28  1  0
  1 29  1  0
  1 30  1  0
  2  3  2  0
  2  4  1  0
  4  5  1  0
  5 27  1  0
  5  6  1  0
  5 31  1  1
  6  7  1  0
  6 32  1  0
  6 33  1  0
  7  9  1  0
  7 16  1  0
  7  8  1  6
  8  9  1  0
  9 10  1  0
  9 34  1  6
 10 12  1  0
 10 11  1  0
 10 35  1  6
 11 12  1  0
 12 13  1  6
 12 16  1  0
 13 14  1  0
 13 15  1  0
 13 36  1  0
 14 37  1  0
 14 38  1  0
 14 39  1  0
 15 40  1  0
 15 41  1  0
 15 42  1  0
 16 17  1  1
 16 18  1  0
 17 43  1  0
 17 44  1  0
 17 45  1  0
 18 21  1  0
 18 19  1  0
 18 46  1  1
 19 20  1  0
 19 47  1  0
 19 48  1  0
 21 20  1  1
 21 27  1  0
 21 22  1  0
 22 23  1  0
 22 49  1  0
 22 50  1  0
 23 24  1  0
 23 51  1  0
 23 52  1  0
 24 25  1  0
 24 26  1  1
 24 27  1  0
 25 53  1  0
 25 54  1  0
 25 55  1  0
 26 56  1  0
 27 57  1  6
M  END
>  <i_m_ct_stereo_status>  (120) 
1

>  <s_m_source_file>  (120) 
/var/tmp/pbs.5076255.sched01/tmprtix0sri/443g93ja_l.sdf

>  <i_m_source_file_index>  (120) 
8

>  <i_lp_mmshare_version>  (120) 
48012

>  <i_f3d_flags>  (120) 
0

>  <s_epik_input>  (120) 
W0NIM11DKD1PKU9bQ0BIXShbQ0gyXTEpW0NASF0oW0NAXShbQ0gzXSkoW09IXSlbQ0gyXVtDSDJdMilbQ0BdMihPW0NIMl0zKVtDQEhdM1tDQEBdNChbQ0gzXSlbQ0BAXShPNSkoW0NAQEhdNVtDQEBIXShbQ0BAXTE0NilPNilbQ0hdKFtDSDNdKVtDSDNd

>  <s_epik_cmdline>  (120) 
J2VwaWtfcHl0aG9uJywgJy1waHQnLCAnMi4wJywgJy1waCcsICc3LjAnLCAnLXRuJywgJzgnLCAnLW1hJywgJzIwMCcsICctaW1hZScsICc8aW5maWxlLm1hZT4nLCAnLW9tYWUnLCAnPG91dGZpbGUubWFlPic=

>  <r_lp_tautomer_probability>  (120) 
1

>  <r_epik_Ionization_Penalty>  (120) 
8.60375e-08

>  <r_epik_Ionization_Penalty_Charging>  (120) 
0

>  <r_epik_Ionization_Penalty_Neutral>  (120) 
8.60375e-08

>  <r_epik_State_Penalty>  (120) 
-0

>  <r_epik_Charging_Adjusted_Penalty>  (120) 
0

>  <i_epik_Tot_Q>  (120) 
0

>  <i_epik_Tot_abs_Q>  (120) 
0

>  <s_epik_Chemistry_Notes>  (120) 
This compound has an ester and may undergo hydrolysis at high or low pH.

>  <s_lp_Force_Field>  (120) 
OPLS3e

>  <r_lp_Energy>  (120) 
47.3485

>  <b_lp_Chiralities_Consistent>  (120) 
1

>  <s_lp_Variant>  (120) 
38:0-1

>  <s_i_glide_gridfile>  (120) 
pfpi4k_grid

>  <i_i_glide_lignum>  (120) 
8

>  <i_i_glide_rotatable_bonds>  (120) 
4

>  <r_i_docking_score>  (120) 
-2.89037

>  <r_i_glide_ligand_efficiency>  (120) 
-0.107051

>  <r_i_glide_ligand_efficiency_sa>  (120) 
-0.321152

>  <r_i_glide_ligand_efficiency_ln>  (120) 
-0.672831

>  <r_i_glide_gscore>  (120) 
-2.89037

>  <r_i_glide_lipo>  (120) 
-0.430534

>  <r_i_glide_hbond>  (120) 
-0.207878

>  <r_i_glide_metal>  (120) 
-0

>  <r_i_glide_rewards>  (120) 
-0.880139

>  <r_i_glide_evdw>  (120) 
-19.6202

>  <r_i_glide_ecoul>  (120) 
-3.50742

>  <r_i_glide_erotb>  (120) 
0.135301

>  <r_i_glide_esite>  (120) 
0

>  <r_i_glide_emodel>  (120) 
-24.4249

>  <r_i_glide_energy>  (120) 
-23.1276

>  <r_i_glide_einternal>  (120) 
5.62883

>  <r_i_glide_intrahb_reward>  (120) 
-0

>  <i_i_glide_confnum>  (120) 
3

>  <i_i_glide_posenum>  (120) 
26

>  <r_i_glide_eff_state_penalty>  (120) 
0

>  <ligand_id>  (120) 
38

>  <original_smiles>  (120) 
CC(=O)OC1CC23OC2C2OC2(C(C)C)C3(C)C2COC23CCC(C)(O)C13

>  <smiles>  (120) 
[H]OC1(C([H])([H])[H])C([H])([H])C([H])([H])C23OC([H])([H])C2([H])C2(C([H])([H])[H])C4(OC4([H])C4([H])OC42C([H])(C([H])([H])[H])C([H])([H])[H])C([H])([H])C([H])(OC(=O)C([H])([H])[H])C13[H]

$$$$
38:0:1
     RDKit          3D

 57 62  0  0  1  0  0  0  0  0999 V2000
    6.6717   -2.9405   -2.2527 C   0  0  0  0  0  0  0  0  0  0  0  0
    6.8709   -2.9933   -0.7408 C   0  0  0  0  0  0  0  0  0  0  0  0
    7.7141   -2.2864   -0.1921 O   0  0  0  0  0  0  0  0  0  0  0  0
    6.0069   -3.8325   -0.1254 O   0  0  0  0  0  0  0  0  0  0  0  0
    5.8029   -3.7882    1.2912 C   0  0  2  0  0  0  0  0  0  0  0  0
    6.1820   -5.1753    1.8819 C   0  0  0  0  0  0  0  0  0  0  0  0
    5.0325   -6.1635    2.0668 C   0  0  2  0  0  0  0  0  0  0  0  0
    5.3470   -7.5056    1.6560 O   0  0  0  0  0  0  0  0  0  0  0  0
    4.3399   -6.8286    0.9068 C   0  0  1  0  0  0  0  0  0  0  0  0
    2.9214   -7.0720    1.3105 C   0  0  2  0  0  0  0  0  0  0  0  0
    2.1770   -5.9078    1.6730 O   0  0  0  0  0  0  0  0  0  0  0  0
    2.7679   -6.6592    2.7480 C   0  0  1  0  0  0  0  0  0  0  0  0
    1.7318   -7.2684    3.7146 C   0  0  0  0  0  0  0  0  0  0  0  0
    1.9918   -8.7600    4.0264 C   0  0  0  0  0  0  0  0  0  0  0  0
    0.2815   -7.1348    3.1965 C   0  0  0  0  0  0  0  0  0  0  0  0
    4.0993   -6.0723    3.3048 C   0  0  1  0  0  0  0  0  0  0  0  0
    4.7025   -6.9360    4.4339 C   0  0  0  0  0  0  0  0  0  0  0  0
    3.8670   -4.6404    3.8505 C   0  0  1  0  0  0  0  0  0  0  0  0
    4.9201   -3.8952    4.6615 C   0  0  0  0  0  0  0  0  0  0  0  0
    4.7822   -2.7049    3.8496 O   0  0  0  0  0  0  0  0  0  0  0  0
    3.8368   -3.3792    2.9756 C   0  0  2  0  0  0  0  0  0  0  0  0
    2.5557   -2.5639    2.9113 C   0  0  0  0  0  0  0  0  0  0  0  0
    2.8276   -1.4359    1.9162 C   0  0  0  0  0  0  0  0  0  0  0  0
    3.8922   -1.9763    0.9407 C   0  0  1  0  0  0  0  0  0  0  0  0
    3.3322   -2.0982   -0.4881 C   0  0  0  0  0  0  0  0  0  0  0  0
    4.9443   -1.0276    0.9171 O   0  0  0  0  0  0  0  0  0  0  0  0
    4.3305   -3.3479    1.5242 C   0  0  1  0  0  0  0  0  0  0  0  0
    6.7919   -3.9128   -2.7162 H   0  0  0  0  0  0  0  0  0  0  0  0
    7.3967   -2.2651   -2.7024 H   0  0  0  0  0  0  0  0  0  0  0  0
    5.6773   -2.5788   -2.5027 H   0  0  0  0  0  0  0  0  0  0  0  0
    6.4758   -3.0543    1.7407 H   0  0  0  0  0  0  0  0  0  0  0  0
    6.9087   -5.6354    1.2111 H   0  0  0  0  0  0  0  0  0  0  0  0
    6.7205   -5.0724    2.8219 H   0  0  0  0  0  0  0  0  0  0  0  0
    4.6193   -6.5435   -0.1048 H   0  0  0  0  0  0  0  0  0  0  0  0
    2.3460   -7.9177    0.9463 H   0  0  0  0  0  0  0  0  0  0  0  0
    1.7868   -6.7035    4.6449 H   0  0  0  0  0  0  0  0  0  0  0  0
    1.9329   -9.3649    3.1186 H   0  0  0  0  0  0  0  0  0  0  0  0
    1.2466   -9.1482    4.7246 H   0  0  0  0  0  0  0  0  0  0  0  0
    2.9597   -8.9502    4.4844 H   0  0  0  0  0  0  0  0  0  0  0  0
    0.1357   -7.6778    2.2581 H   0  0  0  0  0  0  0  0  0  0  0  0
    0.0082   -6.0924    3.0292 H   0  0  0  0  0  0  0  0  0  0  0  0
   -0.4327   -7.5419    3.9151 H   0  0  0  0  0  0  0  0  0  0  0  0
    4.0844   -6.9008    5.3307 H   0  0  0  0  0  0  0  0  0  0  0  0
    5.6966   -6.5962    4.7238 H   0  0  0  0  0  0  0  0  0  0  0  0
    4.8172   -7.9767    4.1356 H   0  0  0  0  0  0  0  0  0  0  0  0
    2.9723   -4.6354    4.4748 H   0  0  0  0  0  0  0  0  0  0  0  0
    4.6236   -3.7254    5.6931 H   0  0  0  0  0  0  0  0  0  0  0  0
    5.9229   -4.3031    4.6214 H   0  0  0  0  0  0  0  0  0  0  0  0
    1.7478   -3.1932    2.5269 H   0  0  0  0  0  0  0  0  0  0  0  0
    2.2495   -2.1930    3.8896 H   0  0  0  0  0  0  0  0  0  0  0  0
    1.9157   -1.1204    1.4078 H   0  0  0  0  0  0  0  0  0  0  0  0
    3.2091   -0.5643    2.4562 H   0  0  0  0  0  0  0  0  0  0  0  0
    2.4756   -2.7723   -0.5299 H   0  0  0  0  0  0  0  0  0  0  0  0
    4.0624   -2.4888   -1.1843 H   0  0  0  0  0  0  0  0  0  0  0  0
    3.0178   -1.1325   -0.8729 H   0  0  0  0  0  0  0  0  0  0  0  0
    4.6212   -0.2411    0.5097 H   0  0  0  0  0  0  0  0  0  0  0  0
    3.7254   -4.0799    0.9903 H   0  0  0  0  0  0  0  0  0  0  0  0
  1  2  1  0
  1 28  1  0
  1 29  1  0
  1 30  1  0
  2  3  2  0
  2  4  1  0
  4  5  1  0
  5 27  1  0
  5  6  1  0
  5 31  1  1
  6  7  1  0
  6 32  1  0
  6 33  1  0
  7  9  1  0
  7 16  1  0
  7  8  1  1
  8  9  1  0
  9 10  1  0
  9 34  1  6
 10 12  1  0
 10 11  1  0
 10 35  1  1
 11 12  1  0
 12 13  1  1
 12 16  1  0
 13 14  1  0
 13 15  1  0
 13 36  1  0
 14 37  1  0
 14 38  1  0
 14 39  1  0
 15 40  1  0
 15 41  1  0
 15 42  1  0
 16 17  1  1
 16 18  1  0
 17 43  1  0
 17 44  1  0
 17 45  1  0
 18 21  1  0
 18 19  1  0
 18 46  1  1
 19 20  1  0
 19 47  1  0
 19 48  1  0
 21 20  1  1
 21 27  1  0
 21 22  1  0
 22 23  1  0
 22 49  1  0
 22 50  1  0
 23 24  1  0
 23 51  1  0
 23 52  1  0
 24 25  1  0
 24 26  1  6
 24 27  1  0
 25 53  1  0
 25 54  1  0
 25 55  1  0
 26 56  1  0
 27 57  1  6
M  END
>  <i_m_ct_stereo_status>  (121) 
1

>  <s_m_source_file>  (121) 
/var/tmp/pbs.5076255.sched01/tmprtix0sri/443g93ja_l.sdf

>  <i_m_source_file_index>  (121) 
8

>  <i_lp_mmshare_version>  (121) 
48012

>  <i_f3d_flags>  (121) 
0

>  <s_epik_input>  (121) 
W0NIM11DKD1PKU9bQ0BIXShbQ0gyXTEpW0NASF0oW0NAXShbQ0gzXSkoW09IXSlbQ0gyXVtDSDJdMilbQ0BdMihPW0NIMl0zKVtDQEhdM1tDQEBdNChbQ0gzXSlbQ0BAXShPNSkoW0NAQEhdNVtDQEBIXShbQ0BAXTE0NilPNilbQ0hdKFtDSDNdKVtDSDNd

>  <s_epik_cmdline>  (121) 
J2VwaWtfcHl0aG9uJywgJy1waHQnLCAnMi4wJywgJy1waCcsICc3LjAnLCAnLXRuJywgJzgnLCAnLW1hJywgJzIwMCcsICctaW1hZScsICc8aW5maWxlLm1hZT4nLCAnLW9tYWUnLCAnPG91dGZpbGUubWFlPic=

>  <r_lp_tautomer_probability>  (121) 
1

>  <r_epik_Ionization_Penalty>  (121) 
8.60375e-08

>  <r_epik_Ionization_Penalty_Charging>  (121) 
0

>  <r_epik_Ionization_Penalty_Neutral>  (121) 
8.60375e-08

>  <r_epik_State_Penalty>  (121) 
-0

>  <r_epik_Charging_Adjusted_Penalty>  (121) 
0

>  <i_epik_Tot_Q>  (121) 
0

>  <i_epik_Tot_abs_Q>  (121) 
0

>  <s_epik_Chemistry_Notes>  (121) 
This compound has an ester and may undergo hydrolysis at high or low pH.

>  <s_lp_Force_Field>  (121) 
OPLS3e

>  <r_lp_Energy>  (121) 
47.3485

>  <b_lp_Chiralities_Consistent>  (121) 
1

>  <s_lp_Variant>  (121) 
38:0-1

>  <s_i_glide_gridfile>  (121) 
pfpi4k_grid

>  <i_i_glide_lignum>  (121) 
8

>  <i_i_glide_rotatable_bonds>  (121) 
4

>  <r_i_docking_score>  (121) 
-2.51798

>  <r_i_glide_ligand_efficiency>  (121) 
-0.0932583

>  <r_i_glide_ligand_efficiency_sa>  (121) 
-0.279775

>  <r_i_glide_ligand_efficiency_ln>  (121) 
-0.586143

>  <r_i_glide_gscore>  (121) 
-2.51798

>  <r_i_glide_lipo>  (121) 
-0.32992

>  <r_i_glide_hbond>  (121) 
-0.0779833

>  <r_i_glide_metal>  (121) 
-0

>  <r_i_glide_rewards>  (121) 
-0.882697

>  <r_i_glide_evdw>  (121) 
-19.6887

>  <r_i_glide_ecoul>  (121) 
-2.52161

>  <r_i_glide_erotb>  (121) 
0.135301

>  <r_i_glide_esite>  (121) 
0

>  <r_i_glide_emodel>  (121) 
-23.7855

>  <r_i_glide_energy>  (121) 
-22.2103

>  <r_i_glide_einternal>  (121) 
3.27293

>  <r_i_glide_intrahb_reward>  (121) 
-0

>  <i_i_glide_confnum>  (121) 
3

>  <i_i_glide_posenum>  (121) 
18

>  <r_i_glide_eff_state_penalty>  (121) 
0

>  <ligand_id>  (121) 
38

>  <original_smiles>  (121) 
CC(=O)OC1CC23OC2C2OC2(C(C)C)C3(C)C2COC23CCC(C)(O)C13

>  <smiles>  (121) 
[H]OC1(C([H])([H])[H])C([H])([H])C([H])([H])C23OC([H])([H])C2([H])C2(C([H])([H])[H])C4(OC4([H])C4([H])OC42C([H])(C([H])([H])[H])C([H])([H])[H])C([H])([H])C([H])(OC(=O)C([H])([H])[H])C13[H]

$$$$
39:0:0
     RDKit          3D

 41 44  0  0  1  0  0  0  0  0999 V2000
    3.2274    0.6540   -4.6362 C   0  0  0  0  0  0  0  0  0  0  0  0
    3.8121   -1.0460   -4.4450 S   0  0  0  0  0  0  0  0  0  0  0  0
    3.5573   -1.3470   -2.6842 C   0  0  2  0  0  0  0  0  0  0  0  0
    4.6721   -0.7470   -1.8150 C   0  0  0  0  0  0  0  0  0  0  0  0
    5.3163   -1.8349   -0.9447 C   0  0  1  0  0  0  0  0  0  0  0  0
    6.3414   -1.2539   -0.1427 O   0  0  0  0  0  0  0  0  0  0  0  0
    7.6654   -1.9087   -0.4876 O   0  0  0  0  0  0  0  0  0  0  0  0
    7.5414   -3.3292   -0.3794 C   0  0  1  0  0  0  0  0  0  0  0  0
    8.8640   -3.8709   -0.9171 C   0  0  0  0  0  0  0  0  0  0  0  0
    7.2977   -3.8119    1.0445 C   0  0  0  0  0  0  0  0  0  0  0  0
    6.0622   -3.2360    1.7711 C   0  0  0  0  0  0  0  0  0  0  0  0
    4.7155   -3.5203    1.0629 C   0  0  1  0  0  0  0  0  0  0  0  0
    3.5973   -3.6877    2.1067 C   0  0  0  0  0  0  0  0  0  0  0  0
    4.2549   -2.4950   -0.0224 C   0  0  2  0  0  0  0  0  0  0  0  0
    3.1689   -3.1045   -0.9311 C   0  0  0  0  0  0  0  0  0  0  0  0
    3.4885   -2.8531   -2.4117 C   0  0  2  0  0  0  0  0  0  0  0  0
    4.7802   -3.4229   -2.6815 O   0  0  0  0  0  0  0  0  0  0  0  0
    5.8532   -2.8927   -1.9310 C   0  0  2  0  0  0  0  0  0  0  0  0
    6.4789   -3.8556   -1.1617 O   0  0  0  0  0  0  0  0  0  0  0  0
    3.3015    0.9740   -5.6764 H   0  0  0  0  0  0  0  0  0  0  0  0
    3.8140    1.3316   -4.0175 H   0  0  0  0  0  0  0  0  0  0  0  0
    2.1811    0.7118   -4.3394 H   0  0  0  0  0  0  0  0  0  0  0  0
    2.6049   -0.9072   -2.4093 H   0  0  0  0  0  0  0  0  0  0  0  0
    5.4141   -0.2350   -2.4255 H   0  0  0  0  0  0  0  0  0  0  0  0
    4.2421    0.0109   -1.1703 H   0  0  0  0  0  0  0  0  0  0  0  0
    9.0163   -3.5487   -1.9464 H   0  0  0  0  0  0  0  0  0  0  0  0
    8.9513   -4.9595   -0.8976 H   0  0  0  0  0  0  0  0  0  0  0  0
    9.6997   -3.4807   -0.3316 H   0  0  0  0  0  0  0  0  0  0  0  0
    7.2175   -4.9002    1.0356 H   0  0  0  0  0  0  0  0  0  0  0  0
    8.2096   -3.6042    1.5981 H   0  0  0  0  0  0  0  0  0  0  0  0
    6.0328   -3.7171    2.7467 H   0  0  0  0  0  0  0  0  0  0  0  0
    6.1822   -2.1768    1.9992 H   0  0  0  0  0  0  0  0  0  0  0  0
    4.8238   -4.4943    0.5838 H   0  0  0  0  0  0  0  0  0  0  0  0
    3.4402   -2.7718    2.6781 H   0  0  0  0  0  0  0  0  0  0  0  0
    3.8340   -4.4828    2.8131 H   0  0  0  0  0  0  0  0  0  0  0  0
    2.6473   -3.9497    1.6419 H   0  0  0  0  0  0  0  0  0  0  0  0
    3.8162   -1.6512    0.5130 H   0  0  0  0  0  0  0  0  0  0  0  0
    3.0585   -4.1710   -0.7569 H   0  0  0  0  0  0  0  0  0  0  0  0
    2.2126   -2.6650   -0.6776 H   0  0  0  0  0  0  0  0  0  0  0  0
    2.7526   -3.3404   -3.0408 H   0  0  0  0  0  0  0  0  0  0  0  0
    6.5651   -2.4653   -2.6380 H   0  0  0  0  0  0  0  0  0  0  0  0
  1  2  1  0
  1 20  1  0
  1 21  1  0
  1 22  1  0
  2  3  1  0
  3 16  1  0
  3  4  1  0
  3 23  1  1
  4  5  1  0
  4 24  1  0
  4 25  1  0
  5 14  1  0
  5 18  1  0
  5  6  1  1
  6  7  1  0
  7  8  1  0
  8 19  1  0
  8  9  1  6
  8 10  1  0
  9 26  1  0
  9 27  1  0
  9 28  1  0
 10 11  1  0
 10 29  1  0
 10 30  1  0
 11 12  1  0
 11 31  1  0
 11 32  1  0
 12 13  1  0
 12 14  1  0
 12 33  1  6
 13 34  1  0
 13 35  1  0
 13 36  1  0
 14 15  1  0
 14 37  1  1
 15 16  1  0
 15 38  1  0
 15 39  1  0
 16 17  1  0
 16 40  1  6
 17 18  1  0
 18 19  1  0
 18 41  1  6
M  END
>  <i_m_ct_stereo_status>  (122) 
1

>  <s_m_source_file>  (122) 
/var/tmp/pbs.5076255.sched01/tmprtix0sri/443g93ja_l.sdf

>  <i_m_source_file_index>  (122) 
9

>  <i_lp_mmshare_version>  (122) 
48012

>  <i_f3d_flags>  (122) 
0

>  <s_epik_input>  (122) 
W0NIM11TW0NASF0oW0NIMl0xKVtDQEhdKFtDSDJdMilPW0NAQEhdM09bQ0BdKE9PNCkoW0NIM10pW0NIMl1bQ0gyXVtDQEBIXShbQ0gzXSlbQ0BIXTJbQ0BdMTM0

>  <s_epik_cmdline>  (122) 
J2VwaWtfcHl0aG9uJywgJy1waHQnLCAnMi4wJywgJy1waCcsICc3LjAnLCAnLXRuJywgJzgnLCAnLW1hJywgJzIwMCcsICctaW1hZScsICc8aW5maWxlLm1hZT4nLCAnLW9tYWUnLCAnPG91dGZpbGUubWFlPic=

>  <r_lp_tautomer_probability>  (122) 
1

>  <r_epik_Ionization_Penalty>  (122) 
4.7361e-15

>  <r_epik_Ionization_Penalty_Charging>  (122) 
0

>  <r_epik_Ionization_Penalty_Neutral>  (122) 
4.7361e-15

>  <r_epik_State_Penalty>  (122) 
-0

>  <r_epik_Charging_Adjusted_Penalty>  (122) 
0

>  <i_epik_Tot_Q>  (122) 
0

>  <i_epik_Tot_abs_Q>  (122) 
0

>  <s_epik_Chemistry_Notes>  (122) 
This compound contains an acetal/aminal-like group ( X-CH(R)-Y where X, Y are N, S, or O) that may be acid/base labile, releasing an aldehyde.

>  <s_lp_Force_Field>  (122) 
OPLS3e

>  <r_lp_Energy>  (122) 
41.0178

>  <b_lp_Chiralities_Consistent>  (122) 
1

>  <s_lp_Variant>  (122) 
39:0-1

>  <s_i_glide_gridfile>  (122) 
pfpi4k_grid

>  <i_i_glide_lignum>  (122) 
9

>  <i_i_glide_rotatable_bonds>  (122) 
1

>  <r_i_docking_score>  (122) 
-3.79012

>  <r_i_glide_ligand_efficiency>  (122) 
-0.19948

>  <r_i_glide_ligand_efficiency_sa>  (122) 
-0.532293

>  <r_i_glide_ligand_efficiency_ln>  (122) 
-0.960877

>  <r_i_glide_gscore>  (122) 
-3.79012

>  <r_i_glide_lipo>  (122) 
-0.191474

>  <r_i_glide_hbond>  (122) 
-0.212747

>  <r_i_glide_metal>  (122) 
-0

>  <r_i_glide_rewards>  (122) 
-1.80099

>  <r_i_glide_evdw>  (122) 
-20.9662

>  <r_i_glide_ecoul>  (122) 
-3.57734

>  <r_i_glide_erotb>  (122) 
0

>  <r_i_glide_esite>  (122) 
0

>  <r_i_glide_emodel>  (122) 
-29.6231

>  <r_i_glide_energy>  (122) 
-24.5436

>  <r_i_glide_einternal>  (122) 
0.128482

>  <r_i_glide_intrahb_reward>  (122) 
-0

>  <i_i_glide_confnum>  (122) 
1

>  <i_i_glide_posenum>  (122) 
19

>  <r_i_glide_eff_state_penalty>  (122) 
0

>  <ligand_id>  (122) 
39

>  <original_smiles>  (122) 
CSC1CC23OOC4(C)CCC(C)C2CC1OC3O4

>  <smiles>  (122) 
[H]C([H])([H])SC1([H])C([H])([H])C23OOC4(C([H])([H])[H])OC2([H])OC1([H])C([H])([H])C3([H])C([H])(C([H])([H])[H])C([H])([H])C4([H])[H]

$$$$
39:0:1
     RDKit          3D

 41 44  0  0  1  0  0  0  0  0999 V2000
    2.4005    1.0132   -5.2698 C   0  0  0  0  0  0  0  0  0  0  0  0
    3.8360    0.0599   -4.7582 S   0  0  0  0  0  0  0  0  0  0  0  0
    3.2251   -0.9641   -3.4143 C   0  0  2  0  0  0  0  0  0  0  0  0
    3.8899   -0.7181   -2.0711 C   0  0  0  0  0  0  0  0  0  0  0  0
    4.4311   -2.0148   -1.4433 C   0  0  1  0  0  0  0  0  0  0  0  0
    5.0669   -1.7297   -0.2032 O   0  0  0  0  0  0  0  0  0  0  0  0
    6.5209   -2.1097   -0.2643 O   0  0  0  0  0  0  0  0  0  0  0  0
    6.6527   -3.4562   -0.7320 C   0  0  1  0  0  0  0  0  0  0  0  0
    8.2120   -3.6191   -0.9171 C   0  0  0  0  0  0  0  0  0  0  0  0
    6.0725   -4.5048    0.2652 C   0  0  0  0  0  0  0  0  0  0  0  0
    4.5686   -4.3459    0.6590 C   0  0  0  0  0  0  0  0  0  0  0  0
    3.5853   -4.3864   -0.5220 C   0  0  1  0  0  0  0  0  0  0  0  0
    2.2645   -5.0681   -0.0867 C   0  0  0  0  0  0  0  0  0  0  0  0
    3.2598   -3.0475   -1.2591 C   0  0  2  0  0  0  0  0  0  0  0  0
    2.5979   -3.2294   -2.6323 C   0  0  0  0  0  0  0  0  0  0  0  0
    3.3311   -2.4662   -3.7275 C   0  0  2  0  0  0  0  0  0  0  0  0
    4.7294   -2.8318   -3.6898 O   0  0  0  0  0  0  0  0  0  0  0  0
    5.4190   -2.5751   -2.4967 C   0  0  2  0  0  0  0  0  0  0  0  0
    6.0210   -3.6906   -1.9697 O   0  0  0  0  0  0  0  0  0  0  0  0
    2.6681    1.7354   -6.0408 H   0  0  0  0  0  0  0  0  0  0  0  0
    2.0076    1.5622   -4.4458 H   0  0  0  0  0  0  0  0  0  0  0  0
    1.5682    0.3809   -5.5177 H   0  0  0  0  0  0  0  0  0  0  0  0
    2.2082   -0.7098   -3.3147 H   0  0  0  0  0  0  0  0  0  0  0  0
    4.6258    0.1077   -2.0944 H   0  0  0  0  0  0  0  0  0  0  0  0
    3.1137   -0.4940   -1.3611 H   0  0  0  0  0  0  0  0  0  0  0  0
    8.5410   -2.8555   -1.6264 H   0  0  0  0  0  0  0  0  0  0  0  0
    8.6371   -4.5542   -1.2651 H   0  0  0  0  0  0  0  0  0  0  0  0
    8.7056   -3.4613    0.0352 H   0  0  0  0  0  0  0  0  0  0  0  0
    6.1988   -5.4961   -0.1699 H   0  0  0  0  0  0  0  0  0  0  0  0
    6.6539   -4.5071    1.1731 H   0  0  0  0  0  0  0  0  0  0  0  0
    4.3524   -5.1932    1.3117 H   0  0  0  0  0  0  0  0  0  0  0  0
    4.4104   -3.4679    1.2790 H   0  0  0  0  0  0  0  0  0  0  0  0
    4.0852   -5.0503   -1.2126 H   0  0  0  0  0  0  0  0  0  0  0  0
    1.8176   -4.4866    0.7089 H   0  0  0  0  0  0  0  0  0  0  0  0
    2.4371   -6.0683    0.3010 H   0  0  0  0  0  0  0  0  0  0  0  0
    1.5510   -5.1601   -0.9071 H   0  0  0  0  0  0  0  0  0  0  0  0
    2.5405   -2.5188   -0.6082 H   0  0  0  0  0  0  0  0  0  0  0  0
    2.6952   -4.2591   -2.9756 H   0  0  0  0  0  0  0  0  0  0  0  0
    1.5417   -3.0265   -2.6131 H   0  0  0  0  0  0  0  0  0  0  0  0
    2.9069   -2.6899   -4.7127 H   0  0  0  0  0  0  0  0  0  0  0  0
    6.1879   -1.8700   -2.6990 H   0  0  0  0  0  0  0  0  0  0  0  0
  1  2  1  0
  1 20  1  0
  1 21  1  0
  1 22  1  0
  2  3  1  0
  3 16  1  0
  3  4  1  0
  3 23  1  1
  4  5  1  0
  4 24  1  0
  4 25  1  0
  5 14  1  0
  5 18  1  0
  5  6  1  1
  6  7  1  0
  7  8  1  0
  8 19  1  0
  8  9  1  6
  8 10  1  0
  9 26  1  0
  9 27  1  0
  9 28  1  0
 10 11  1  0
 10 29  1  0
 10 30  1  0
 11 12  1  0
 11 31  1  0
 11 32  1  0
 12 13  1  0
 12 14  1  0
 12 33  1  6
 13 34  1  0
 13 35  1  0
 13 36  1  0
 14 15  1  0
 14 37  1  1
 15 16  1  0
 15 38  1  0
 15 39  1  0
 16 17  1  0
 16 40  1  6
 17 18  1  0
 18 19  1  0
 18 41  1  6
M  END
>  <i_m_ct_stereo_status>  (123) 
1

>  <s_m_source_file>  (123) 
/var/tmp/pbs.5076255.sched01/tmprtix0sri/443g93ja_l.sdf

>  <i_m_source_file_index>  (123) 
9

>  <i_lp_mmshare_version>  (123) 
48012

>  <i_f3d_flags>  (123) 
0

>  <s_epik_input>  (123) 
W0NIM11TW0NASF0oW0NIMl0xKVtDQEhdKFtDSDJdMilPW0NAQEhdM09bQ0BdKE9PNCkoW0NIM10pW0NIMl1bQ0gyXVtDQEBIXShbQ0gzXSlbQ0BIXTJbQ0BdMTM0

>  <s_epik_cmdline>  (123) 
J2VwaWtfcHl0aG9uJywgJy1waHQnLCAnMi4wJywgJy1waCcsICc3LjAnLCAnLXRuJywgJzgnLCAnLW1hJywgJzIwMCcsICctaW1hZScsICc8aW5maWxlLm1hZT4nLCAnLW9tYWUnLCAnPG91dGZpbGUubWFlPic=

>  <r_lp_tautomer_probability>  (123) 
1

>  <r_epik_Ionization_Penalty>  (123) 
4.7361e-15

>  <r_epik_Ionization_Penalty_Charging>  (123) 
0

>  <r_epik_Ionization_Penalty_Neutral>  (123) 
4.7361e-15

>  <r_epik_State_Penalty>  (123) 
-0

>  <r_epik_Charging_Adjusted_Penalty>  (123) 
0

>  <i_epik_Tot_Q>  (123) 
0

>  <i_epik_Tot_abs_Q>  (123) 
0

>  <s_epik_Chemistry_Notes>  (123) 
This compound contains an acetal/aminal-like group ( X-CH(R)-Y where X, Y are N, S, or O) that may be acid/base labile, releasing an aldehyde.

>  <s_lp_Force_Field>  (123) 
OPLS3e

>  <r_lp_Energy>  (123) 
41.0178

>  <b_lp_Chiralities_Consistent>  (123) 
1

>  <s_lp_Variant>  (123) 
39:0-1

>  <s_i_glide_gridfile>  (123) 
pfpi4k_grid

>  <i_i_glide_lignum>  (123) 
9

>  <i_i_glide_rotatable_bonds>  (123) 
1

>  <r_i_docking_score>  (123) 
-3.38131

>  <r_i_glide_ligand_efficiency>  (123) 
-0.177964

>  <r_i_glide_ligand_efficiency_sa>  (123) 
-0.474878

>  <r_i_glide_ligand_efficiency_ln>  (123) 
-0.857234

>  <r_i_glide_gscore>  (123) 
-3.38131

>  <r_i_glide_lipo>  (123) 
-0.780963

>  <r_i_glide_hbond>  (123) 
-0.0102372

>  <r_i_glide_metal>  (123) 
-0

>  <r_i_glide_rewards>  (123) 
-1.77687

>  <r_i_glide_evdw>  (123) 
-7.68595

>  <r_i_glide_ecoul>  (123) 
-2.8596

>  <r_i_glide_erotb>  (123) 
0

>  <r_i_glide_esite>  (123) 
0

>  <r_i_glide_emodel>  (123) 
-13.3483

>  <r_i_glide_energy>  (123) 
-10.5455

>  <r_i_glide_einternal>  (123) 
1.22239

>  <r_i_glide_intrahb_reward>  (123) 
-0

>  <i_i_glide_confnum>  (123) 
2

>  <i_i_glide_posenum>  (123) 
17

>  <r_i_glide_eff_state_penalty>  (123) 
0

>  <ligand_id>  (123) 
39

>  <original_smiles>  (123) 
CSC1CC23OOC4(C)CCC(C)C2CC1OC3O4

>  <smiles>  (123) 
[H]C([H])([H])SC1([H])C([H])([H])C23OOC4(C([H])([H])[H])OC2([H])OC1([H])C([H])([H])C3([H])C([H])(C([H])([H])[H])C([H])([H])C4([H])[H]

$$$$
39:0:2
     RDKit          3D

 41 44  0  0  1  0  0  0  0  0999 V2000
    3.0719   -0.4902   -5.2280 C   0  0  0  0  0  0  0  0  0  0  0  0
    3.8209    0.1411   -3.7414 S   0  0  0  0  0  0  0  0  0  0  0  0
    3.2834   -0.9616   -2.3982 C   0  0  2  0  0  0  0  0  0  0  0  0
    4.0847   -0.7231   -1.0880 C   0  0  0  0  0  0  0  0  0  0  0  0
    4.6979   -2.0532   -0.6077 C   0  0  1  0  0  0  0  0  0  0  0  0
    5.4784   -1.7936    0.5661 O   0  0  0  0  0  0  0  0  0  0  0  0
    6.9364   -2.1745    0.3045 O   0  0  0  0  0  0  0  0  0  0  0  0
    6.9706   -3.4970   -0.2101 C   0  0  1  0  0  0  0  0  0  0  0  0
    8.4464   -3.6945   -0.5844 C   0  0  0  0  0  0  0  0  0  0  0  0
    6.5067   -4.5721    0.7940 C   0  0  0  0  0  0  0  0  0  0  0  0
    5.0708   -4.4598    1.3486 C   0  0  0  0  0  0  0  0  0  0  0  0
    3.9567   -4.4592    0.2786 C   0  0  1  0  0  0  0  0  0  0  0  0
    2.6824   -5.1260    0.8312 C   0  0  0  0  0  0  0  0  0  0  0  0
    3.5695   -3.0693   -0.3082 C   0  0  2  0  0  0  0  0  0  0  0  0
    2.7753   -3.2233   -1.6031 C   0  0  0  0  0  0  0  0  0  0  0  0
    3.3536   -2.4399   -2.7492 C   0  0  2  0  0  0  0  0  0  0  0  0
    4.7263   -2.7803   -2.9165 O   0  0  0  0  0  0  0  0  0  0  0  0
    5.5628   -2.5410   -1.8026 C   0  0  2  0  0  0  0  0  0  0  0  0
    6.2310   -3.6723   -1.4063 O   0  0  0  0  0  0  0  0  0  0  0  0
    3.2824    0.1476   -6.0733 H   0  0  0  0  0  0  0  0  0  0  0  0
    1.9976   -0.5766   -5.1043 H   0  0  0  0  0  0  0  0  0  0  0  0
    3.5020   -1.4535   -5.4314 H   0  0  0  0  0  0  0  0  0  0  0  0
    2.2762   -0.6452   -2.2842 H   0  0  0  0  0  0  0  0  0  0  0  0
    4.8703    0.0238   -1.2310 H   0  0  0  0  0  0  0  0  0  0  0  0
    3.4399   -0.3707   -0.2797 H   0  0  0  0  0  0  0  0  0  0  0  0
    8.7643   -2.9184   -1.2879 H   0  0  0  0  0  0  0  0  0  0  0  0
    8.6215   -4.6515   -1.0543 H   0  0  0  0  0  0  0  0  0  0  0  0
    9.0731   -3.6406    0.3122 H   0  0  0  0  0  0  0  0  0  0  0  0
    6.5830   -5.5316    0.2917 H   0  0  0  0  0  0  0  0  0  0  0  0
    7.1951   -4.6191    1.6251 H   0  0  0  0  0  0  0  0  0  0  0  0
    4.9182   -5.3293    1.9855 H   0  0  0  0  0  0  0  0  0  0  0  0
    4.9712   -3.6085    2.0158 H   0  0  0  0  0  0  0  0  0  0  0  0
    4.3043   -5.1041   -0.5310 H   0  0  0  0  0  0  0  0  0  0  0  0
    2.2792   -4.5615    1.6754 H   0  0  0  0  0  0  0  0  0  0  0  0
    2.8781   -6.1442    1.1621 H   0  0  0  0  0  0  0  0  0  0  0  0
    1.9019   -5.1842    0.0717 H   0  0  0  0  0  0  0  0  0  0  0  0
    2.9247   -2.5723    0.4251 H   0  0  0  0  0  0  0  0  0  0  0  0
    2.7834   -4.2556   -1.8900 H   0  0  0  0  0  0  0  0  0  0  0  0
    1.7243   -3.0213   -1.4389 H   0  0  0  0  0  0  0  0  0  0  0  0
    2.7531   -2.7227   -3.6083 H   0  0  0  0  0  0  0  0  0  0  0  0
    6.2905   -1.7633   -2.0396 H   0  0  0  0  0  0  0  0  0  0  0  0
  1  2  1  0
  1 20  1  0
  1 21  1  0
  1 22  1  0
  2  3  1  0
  3 16  1  0
  3  4  1  0
  3 23  1  1
  4  5  1  0
  4 24  1  0
  4 25  1  0
  5 14  1  0
  5 18  1  0
  5  6  1  1
  6  7  1  0
  7  8  1  0
  8 19  1  0
  8  9  1  6
  8 10  1  0
  9 26  1  0
  9 27  1  0
  9 28  1  0
 10 11  1  0
 10 29  1  0
 10 30  1  0
 11 12  1  0
 11 31  1  0
 11 32  1  0
 12 13  1  0
 12 14  1  0
 12 33  1  6
 13 34  1  0
 13 35  1  0
 13 36  1  0
 14 15  1  0
 14 37  1  1
 15 16  1  0
 15 38  1  0
 15 39  1  0
 16 17  1  0
 16 40  1  6
 17 18  1  0
 18 19  1  0
 18 41  1  6
M  END
>  <i_m_ct_stereo_status>  (124) 
1

>  <s_m_source_file>  (124) 
/var/tmp/pbs.5076255.sched01/tmprtix0sri/443g93ja_l.sdf

>  <i_m_source_file_index>  (124) 
9

>  <i_lp_mmshare_version>  (124) 
48012

>  <i_f3d_flags>  (124) 
0

>  <s_epik_input>  (124) 
W0NIM11TW0NASF0oW0NIMl0xKVtDQEhdKFtDSDJdMilPW0NAQEhdM09bQ0BdKE9PNCkoW0NIM10pW0NIMl1bQ0gyXVtDQEBIXShbQ0gzXSlbQ0BIXTJbQ0BdMTM0

>  <s_epik_cmdline>  (124) 
J2VwaWtfcHl0aG9uJywgJy1waHQnLCAnMi4wJywgJy1waCcsICc3LjAnLCAnLXRuJywgJzgnLCAnLW1hJywgJzIwMCcsICctaW1hZScsICc8aW5maWxlLm1hZT4nLCAnLW9tYWUnLCAnPG91dGZpbGUubWFlPic=

>  <r_lp_tautomer_probability>  (124) 
1

>  <r_epik_Ionization_Penalty>  (124) 
4.7361e-15

>  <r_epik_Ionization_Penalty_Charging>  (124) 
0

>  <r_epik_Ionization_Penalty_Neutral>  (124) 
4.7361e-15

>  <r_epik_State_Penalty>  (124) 
-0

>  <r_epik_Charging_Adjusted_Penalty>  (124) 
0

>  <i_epik_Tot_Q>  (124) 
0

>  <i_epik_Tot_abs_Q>  (124) 
0

>  <s_epik_Chemistry_Notes>  (124) 
This compound contains an acetal/aminal-like group ( X-CH(R)-Y where X, Y are N, S, or O) that may be acid/base labile, releasing an aldehyde.

>  <s_lp_Force_Field>  (124) 
OPLS3e

>  <r_lp_Energy>  (124) 
41.0178

>  <b_lp_Chiralities_Consistent>  (124) 
1

>  <s_lp_Variant>  (124) 
39:0-1

>  <s_i_glide_gridfile>  (124) 
pfpi4k_grid

>  <i_i_glide_lignum>  (124) 
9

>  <i_i_glide_rotatable_bonds>  (124) 
1

>  <r_i_docking_score>  (124) 
-2.88832

>  <r_i_glide_ligand_efficiency>  (124) 
-0.152017

>  <r_i_glide_ligand_efficiency_sa>  (124) 
-0.405642

>  <r_i_glide_ligand_efficiency_ln>  (124) 
-0.73225

>  <r_i_glide_gscore>  (124) 
-2.88832

>  <r_i_glide_lipo>  (124) 
-0.320395

>  <r_i_glide_hbond>  (124) 
0

>  <r_i_glide_metal>  (124) 
-0

>  <r_i_glide_rewards>  (124) 
-1.63995

>  <r_i_glide_evdw>  (124) 
-16.6905

>  <r_i_glide_ecoul>  (124) 
-0.555955

>  <r_i_glide_erotb>  (124) 
0

>  <r_i_glide_esite>  (124) 
-0.0100521

>  <r_i_glide_emodel>  (124) 
-19.3215

>  <r_i_glide_energy>  (124) 
-17.2465

>  <r_i_glide_einternal>  (124) 
3.1056

>  <r_i_glide_intrahb_reward>  (124) 
-0

>  <i_i_glide_confnum>  (124) 
2

>  <i_i_glide_posenum>  (124) 
25

>  <r_i_glide_eff_state_penalty>  (124) 
0

>  <ligand_id>  (124) 
39

>  <original_smiles>  (124) 
CSC1CC23OOC4(C)CCC(C)C2CC1OC3O4

>  <smiles>  (124) 
[H]C([H])([H])SC1([H])C([H])([H])C23OOC4(C([H])([H])[H])OC2([H])OC1([H])C([H])([H])C3([H])C([H])(C([H])([H])[H])C([H])([H])C4([H])[H]

$$$$
40:0:0
     RDKit          3D

 47 52  0  0  1  0  0  0  0  0999 V2000
    1.1719   -0.6100    7.2836 O   0  0  0  0  0  0  0  0  0  0  0  0
    2.0853   -0.3059    6.5130 C   0  0  0  0  0  0  0  0  0  0  0  0
    3.4851   -0.7560    6.6503 C   0  0  0  0  0  0  0  0  0  0  0  0
    4.0628   -1.4569    7.7203 C   0  0  0  0  0  0  0  0  0  0  0  0
    5.4429   -1.7501    7.6376 C   0  0  0  0  0  0  0  0  0  0  0  0
    6.1993   -1.3348    6.5159 C   0  0  0  0  0  0  0  0  0  0  0  0
    5.5887   -0.6344    5.4480 C   0  0  0  0  0  0  0  0  0  0  0  0
    4.2073   -0.3796    5.5337 C   0  0  0  0  0  0  0  0  0  0  0  0
    3.2995    0.3843    4.5894 C   0  0  1  0  0  0  0  0  0  0  0  0
    3.7808    1.7098    4.4958 O   0  0  0  0  0  0  0  0  0  0  0  0
    3.1043   -0.1805    3.1522 C   0  0  0  0  0  0  0  0  0  0  0  0
    4.1075   -1.0128    2.4690 C   0  0  0  0  0  0  0  0  0  0  0  0
    4.4604   -2.2898    2.9544 C   0  0  0  0  0  0  0  0  0  0  0  0
    5.4331   -3.0521    2.2795 C   0  0  0  0  0  0  0  0  0  0  0  0
    6.0547   -2.5386    1.1226 C   0  0  0  0  0  0  0  0  0  0  0  0
    5.6968   -1.2664    0.6335 C   0  0  0  0  0  0  0  0  0  0  0  0
    4.7224   -0.5067    1.3046 C   0  0  0  0  0  0  0  0  0  0  0  0
    1.9884    0.1786    2.4700 C   0  0  0  0  0  0  0  0  0  0  0  0
    1.0143    1.0936    3.1685 C   0  0  1  0  0  0  0  0  0  0  0  0
   -0.3880    1.4256    2.6224 C   0  0  0  0  0  0  0  0  0  0  0  0
   -1.0601    1.8978    3.9062 C   0  0  0  0  0  0  0  0  0  0  0  0
   -2.1856    2.7307    4.0267 C   0  0  0  0  0  0  0  0  0  0  0  0
   -2.5791    3.1198    5.3270 C   0  0  0  0  0  0  0  0  0  0  0  0
   -1.8494    2.7079    6.4683 C   0  0  0  0  0  0  0  0  0  0  0  0
   -0.7254    1.8673    6.3347 C   0  0  0  0  0  0  0  0  0  0  0  0
   -0.3569    1.4682    5.0372 C   0  0  0  0  0  0  0  0  0  0  0  0
    0.7606    0.5702    4.5878 C   0  0  2  0  0  0  0  0  0  0  0  0
    2.0052    0.3582    5.3396 N   0  0  0  0  0  0  0  0  0  0  0  0
    3.4756   -1.7517    8.5794 H   0  0  0  0  0  0  0  0  0  0  0  0
    5.9268   -2.2864    8.4395 H   0  0  0  0  0  0  0  0  0  0  0  0
    7.2556   -1.5587    6.4796 H   0  0  0  0  0  0  0  0  0  0  0  0
    6.1621   -0.3009    4.5921 H   0  0  0  0  0  0  0  0  0  0  0  0
    3.9228    1.9123    3.5814 H   0  0  0  0  0  0  0  0  0  0  0  0
    3.9982   -2.6833    3.8472 H   0  0  0  0  0  0  0  0  0  0  0  0
    5.7190   -4.0216    2.6600 H   0  0  0  0  0  0  0  0  0  0  0  0
    6.8101   -3.1187    0.6129 H   0  0  0  0  0  0  0  0  0  0  0  0
    6.1643   -0.8666   -0.2545 H   0  0  0  0  0  0  0  0  0  0  0  0
    4.4479    0.4665    0.9266 H   0  0  0  0  0  0  0  0  0  0  0  0
    1.7803   -0.1500    1.4575 H   0  0  0  0  0  0  0  0  0  0  0  0
    1.5230    2.0588    3.2524 H   0  0  0  0  0  0  0  0  0  0  0  0
   -0.3533    2.1862    1.8393 H   0  0  0  0  0  0  0  0  0  0  0  0
   -0.9038    0.5434    2.2411 H   0  0  0  0  0  0  0  0  0  0  0  0
   -2.7238    3.0645    3.1480 H   0  0  0  0  0  0  0  0  0  0  0  0
   -3.4424    3.7396    5.4701 H   0  0  0  0  0  0  0  0  0  0  0  0
   -2.1670    3.0346    7.4491 H   0  0  0  0  0  0  0  0  0  0  0  0
   -0.1666    1.5552    7.2065 H   0  0  0  0  0  0  0  0  0  0  0  0
    0.3013   -0.4119    4.5032 H   0  0  0  0  0  0  0  0  0  0  0  0
  1  2  2  0
  2 28  1  0
  2  3  1  0
  3  8  2  0
  3  4  1  0
  4  5  2  0
  4 29  1  0
  5  6  1  0
  5 30  1  0
  6  7  2  0
  6 31  1  0
  7  8  1  0
  7 32  1  0
  8  9  1  0
  9 28  1  0
  9 10  1  6
  9 11  1  0
 10 33  1  0
 11 12  1  0
 11 18  2  0
 12 17  1  0
 12 13  2  0
 13 14  1  0
 13 34  1  0
 14 15  2  0
 14 35  1  0
 15 16  1  0
 15 36  1  0
 16 17  2  0
 16 37  1  0
 17 38  1  0
 18 19  1  0
 18 39  1  0
 19 27  1  0
 19 20  1  0
 19 40  1  1
 20 21  1  0
 20 41  1  0
 20 42  1  0
 21 26  2  0
 21 22  1  0
 22 23  2  0
 22 43  1  0
 23 24  1  0
 23 44  1  0
 24 25  2  0
 24 45  1  0
 25 26  1  0
 25 46  1  0
 26 27  1  0
 27 28  1  0
 27 47  1  6
M  END
>  <i_m_ct_stereo_status>  (125) 
1

>  <s_m_source_file>  (125) 
/var/tmp/pbs.5076255.sched01/tmprtix0sri/443g93ja_l.sdf

>  <i_m_source_file_index>  (125) 
10

>  <i_lp_mmshare_version>  (125) 
48012

>  <i_f3d_flags>  (125) 
0

>  <s_epik_input>  (125) 
W2NIXTFbY0hdW2NIXVtjSF1jKGMxW0NAQF0yM1tPSF0pQyg9TylOM1tDQEBIXTRbQ0BIXShbQ0gyXWM1YzRbY0hdW2NIXVtjSF1bY0hdNSlbQ0hdPUMyYzZbY0hdW2NIXVtjSF1bY0hdW2NIXTY=

>  <s_epik_cmdline>  (125) 
J2VwaWtfcHl0aG9uJywgJy1waHQnLCAnMi4wJywgJy1waCcsICc3LjAnLCAnLXRuJywgJzgnLCAnLW1hJywgJzIwMCcsICctaW1hZScsICc8aW5maWxlLm1hZT4nLCAnLW9tYWUnLCAnPG91dGZpbGUubWFlPic=

>  <r_lp_tautomer_probability>  (125) 
1

>  <r_epik_Ionization_Penalty>  (125) 
0.000121943

>  <r_epik_Ionization_Penalty_Charging>  (125) 
0

>  <r_epik_Ionization_Penalty_Neutral>  (125) 
0.000121943

>  <r_epik_State_Penalty>  (125) 
-0

>  <r_epik_Charging_Adjusted_Penalty>  (125) 
0

>  <i_epik_Tot_Q>  (125) 
0

>  <i_epik_Tot_abs_Q>  (125) 
0

>  <s_lp_Force_Field>  (125) 
OPLS3e

>  <r_lp_Energy>  (125) 
61.0694

>  <b_lp_Chiralities_Consistent>  (125) 
1

>  <s_lp_Variant>  (125) 
40:0-1

>  <s_i_glide_gridfile>  (125) 
pfpi4k_grid

>  <i_i_glide_lignum>  (125) 
10

>  <i_i_glide_rotatable_bonds>  (125) 
2

>  <r_i_docking_score>  (125) 
-2.99739

>  <r_i_glide_ligand_efficiency>  (125) 
-0.107049

>  <r_i_glide_ligand_efficiency_sa>  (125) 
-0.325065

>  <r_i_glide_ligand_efficiency_ln>  (125) 
-0.691885

>  <r_i_glide_gscore>  (125) 
-2.99739

>  <r_i_glide_lipo>  (125) 
-0.568257

>  <r_i_glide_hbond>  (125) 
-0.0872317

>  <r_i_glide_metal>  (125) 
-0

>  <r_i_glide_rewards>  (125) 
-0.918894

>  <r_i_glide_evdw>  (125) 
-23.174

>  <r_i_glide_ecoul>  (125) 
-2.72219

>  <r_i_glide_erotb>  (125) 
0.144052

>  <r_i_glide_esite>  (125) 
-2.51637e-05

>  <r_i_glide_emodel>  (125) 
-31.2926

>  <r_i_glide_energy>  (125) 
-25.8962

>  <r_i_glide_einternal>  (125) 
0.379277

>  <r_i_glide_intrahb_reward>  (125) 
-0

>  <i_i_glide_confnum>  (125) 
3

>  <i_i_glide_posenum>  (125) 
28

>  <r_i_glide_eff_state_penalty>  (125) 
0

>  <ligand_id>  (125) 
40

>  <original_smiles>  (125) 
O=C1c2ccccc2C2(O)C(c3ccccc3)=CC3Cc4ccccc4C3N12

>  <smiles>  (125) 
[H]OC12C(c3c([H])c([H])c([H])c([H])c3[H])=C([H])C3([H])C([H])([H])c4c([H])c([H])c([H])c([H])c4C3([H])N1C(=O)c1c([H])c([H])c([H])c([H])c12

$$$$
40:0:1
     RDKit          3D

 47 52  0  0  1  0  0  0  0  0999 V2000
   -0.3538   -2.2397    6.0269 O   0  0  0  0  0  0  0  0  0  0  0  0
    0.6969   -1.9401    5.4556 C   0  0  0  0  0  0  0  0  0  0  0  0
    1.8801   -2.8193    5.3428 C   0  0  0  0  0  0  0  0  0  0  0  0
    2.0934   -4.0615    5.9590 C   0  0  0  0  0  0  0  0  0  0  0  0
    3.3275   -4.7063    5.7200 C   0  0  0  0  0  0  0  0  0  0  0  0
    4.3068   -4.1056    4.8915 C   0  0  0  0  0  0  0  0  0  0  0  0
    4.0662   -2.8542    4.2790 C   0  0  0  0  0  0  0  0  0  0  0  0
    2.8190   -2.2386    4.5084 C   0  0  0  0  0  0  0  0  0  0  0  0
    2.2941   -0.8957    4.0371 C   0  0  1  0  0  0  0  0  0  0  0  0
    3.1412    0.1119    4.5530 O   0  0  0  0  0  0  0  0  0  0  0  0
    2.1317   -0.6771    2.5068 C   0  0  0  0  0  0  0  0  0  0  0  0
    2.9394   -1.3937    1.5043 C   0  0  0  0  0  0  0  0  0  0  0  0
    2.8616   -2.7957    1.3561 C   0  0  0  0  0  0  0  0  0  0  0  0
    3.6540   -3.4476    0.3907 C   0  0  0  0  0  0  0  0  0  0  0  0
    4.5154   -2.6976   -0.4360 C   0  0  0  0  0  0  0  0  0  0  0  0
    4.5882   -1.2970   -0.2957 C   0  0  0  0  0  0  0  0  0  0  0  0
    3.8049   -0.6500    0.6764 C   0  0  0  0  0  0  0  0  0  0  0  0
    1.2646    0.2786    2.0905 C   0  0  0  0  0  0  0  0  0  0  0  0
    0.5143    1.0467    3.1523 C   0  0  1  0  0  0  0  0  0  0  0  0
   -0.6519    2.0078    2.8517 C   0  0  0  0  0  0  0  0  0  0  0  0
   -1.3187    2.0547    4.2181 C   0  0  0  0  0  0  0  0  0  0  0  0
   -2.1621    3.0573    4.7274 C   0  0  0  0  0  0  0  0  0  0  0  0
   -2.5876    2.9458    6.0697 C   0  0  0  0  0  0  0  0  0  0  0  0
   -2.1604    1.8672    6.8817 C   0  0  0  0  0  0  0  0  0  0  0  0
   -1.3151    0.8651    6.3562 C   0  0  0  0  0  0  0  0  0  0  0  0
   -0.9169    0.9769    5.0135 C   0  0  0  0  0  0  0  0  0  0  0  0
   -0.0591    0.0652    4.1790 C   0  0  2  0  0  0  0  0  0  0  0  0
    0.9629   -0.8419    4.7181 N   0  0  0  0  0  0  0  0  0  0  0  0
    1.3433   -4.5024    6.6003 H   0  0  0  0  0  0  0  0  0  0  0  0
    3.5293   -5.6619    6.1800 H   0  0  0  0  0  0  0  0  0  0  0  0
    5.2495   -4.6088    4.7300 H   0  0  0  0  0  0  0  0  0  0  0  0
    4.8163   -2.3840    3.6565 H   0  0  0  0  0  0  0  0  0  0  0  0
    3.3036    0.7345    3.8583 H   0  0  0  0  0  0  0  0  0  0  0  0
    2.2015   -3.3712    1.9848 H   0  0  0  0  0  0  0  0  0  0  0  0
    3.6020   -4.5206    0.2839 H   0  0  0  0  0  0  0  0  0  0  0  0
    5.1187   -3.1977   -1.1785 H   0  0  0  0  0  0  0  0  0  0  0  0
    5.2355   -0.7116   -0.9329 H   0  0  0  0  0  0  0  0  0  0  0  0
    3.8558    0.4234    0.7775 H   0  0  0  0  0  0  0  0  0  0  0  0
    1.1008    0.5205    1.0455 H   0  0  0  0  0  0  0  0  0  0  0  0
    1.2650    1.6630    3.6567 H   0  0  0  0  0  0  0  0  0  0  0  0
   -0.2923    2.9774    2.5053 H   0  0  0  0  0  0  0  0  0  0  0  0
   -1.3442    1.5977    2.1134 H   0  0  0  0  0  0  0  0  0  0  0  0
   -2.4584    3.8934    4.1100 H   0  0  0  0  0  0  0  0  0  0  0  0
   -3.2390    3.6967    6.4891 H   0  0  0  0  0  0  0  0  0  0  0  0
   -2.4857    1.8146    7.9118 H   0  0  0  0  0  0  0  0  0  0  0  0
   -0.9708    0.0477    6.9696 H   0  0  0  0  0  0  0  0  0  0  0  0
   -0.7711   -0.5777    3.6636 H   0  0  0  0  0  0  0  0  0  0  0  0
  1  2  2  0
  2 28  1  0
  2  3  1  0
  3  8  2  0
  3  4  1  0
  4  5  2  0
  4 29  1  0
  5  6  1  0
  5 30  1  0
  6  7  2  0
  6 31  1  0
  7  8  1  0
  7 32  1  0
  8  9  1  0
  9 28  1  0
  9 10  1  1
  9 11  1  0
 10 33  1  0
 11 12  1  0
 11 18  2  0
 12 17  1  0
 12 13  2  0
 13 14  1  0
 13 34  1  0
 14 15  2  0
 14 35  1  0
 15 16  1  0
 15 36  1  0
 16 17  2  0
 16 37  1  0
 17 38  1  0
 18 19  1  0
 18 39  1  0
 19 27  1  0
 19 20  1  0
 19 40  1  1
 20 21  1  0
 20 41  1  0
 20 42  1  0
 21 26  2  0
 21 22  1  0
 22 23  2  0
 22 43  1  0
 23 24  1  0
 23 44  1  0
 24 25  2  0
 24 45  1  0
 25 26  1  0
 25 46  1  0
 26 27  1  0
 27 28  1  0
 27 47  1  6
M  END
>  <i_m_ct_stereo_status>  (126) 
1

>  <s_m_source_file>  (126) 
/var/tmp/pbs.5076255.sched01/tmprtix0sri/443g93ja_l.sdf

>  <i_m_source_file_index>  (126) 
10

>  <i_lp_mmshare_version>  (126) 
48012

>  <i_f3d_flags>  (126) 
0

>  <s_epik_input>  (126) 
W2NIXTFbY0hdW2NIXVtjSF1jKGMxW0NAQF0yM1tPSF0pQyg9TylOM1tDQEBIXTRbQ0BIXShbQ0gyXWM1YzRbY0hdW2NIXVtjSF1bY0hdNSlbQ0hdPUMyYzZbY0hdW2NIXVtjSF1bY0hdW2NIXTY=

>  <s_epik_cmdline>  (126) 
J2VwaWtfcHl0aG9uJywgJy1waHQnLCAnMi4wJywgJy1waCcsICc3LjAnLCAnLXRuJywgJzgnLCAnLW1hJywgJzIwMCcsICctaW1hZScsICc8aW5maWxlLm1hZT4nLCAnLW9tYWUnLCAnPG91dGZpbGUubWFlPic=

>  <r_lp_tautomer_probability>  (126) 
1

>  <r_epik_Ionization_Penalty>  (126) 
0.000121943

>  <r_epik_Ionization_Penalty_Charging>  (126) 
0

>  <r_epik_Ionization_Penalty_Neutral>  (126) 
0.000121943

>  <r_epik_State_Penalty>  (126) 
-0

>  <r_epik_Charging_Adjusted_Penalty>  (126) 
0

>  <i_epik_Tot_Q>  (126) 
0

>  <i_epik_Tot_abs_Q>  (126) 
0

>  <s_lp_Force_Field>  (126) 
OPLS3e

>  <r_lp_Energy>  (126) 
61.0694

>  <b_lp_Chiralities_Consistent>  (126) 
1

>  <s_lp_Variant>  (126) 
40:0-1

>  <s_i_glide_gridfile>  (126) 
pfpi4k_grid

>  <i_i_glide_lignum>  (126) 
10

>  <i_i_glide_rotatable_bonds>  (126) 
2

>  <r_i_docking_score>  (126) 
-2.55935

>  <r_i_glide_ligand_efficiency>  (126) 
-0.0914053

>  <r_i_glide_ligand_efficiency_sa>  (126) 
-0.27756

>  <r_i_glide_ligand_efficiency_ln>  (126) 
-0.590773

>  <r_i_glide_gscore>  (126) 
-2.55935

>  <r_i_glide_lipo>  (126) 
-0.0994716

>  <r_i_glide_hbond>  (126) 
0

>  <r_i_glide_metal>  (126) 
-0

>  <r_i_glide_rewards>  (126) 
-0.917565

>  <r_i_glide_evdw>  (126) 
-27.0868

>  <r_i_glide_ecoul>  (126) 
-2.16331

>  <r_i_glide_erotb>  (126) 
0.144052

>  <r_i_glide_esite>  (126) 
-0.00752885

>  <r_i_glide_emodel>  (126) 
-33.8454

>  <r_i_glide_energy>  (126) 
-29.2501

>  <r_i_glide_einternal>  (126) 
0.341745

>  <r_i_glide_intrahb_reward>  (126) 
-0

>  <i_i_glide_confnum>  (126) 
1

>  <i_i_glide_posenum>  (126) 
26

>  <r_i_glide_eff_state_penalty>  (126) 
0

>  <ligand_id>  (126) 
40

>  <original_smiles>  (126) 
O=C1c2ccccc2C2(O)C(c3ccccc3)=CC3Cc4ccccc4C3N12

>  <smiles>  (126) 
[H]OC12C(c3c([H])c([H])c([H])c([H])c3[H])=C([H])C3([H])C([H])([H])c4c([H])c([H])c([H])c([H])c4C3([H])N1C(=O)c1c([H])c([H])c([H])c([H])c12

$$$$
40:0:2
     RDKit          3D

 47 52  0  0  1  0  0  0  0  0999 V2000
   -0.9588   -2.2933    5.5488 O   0  0  0  0  0  0  0  0  0  0  0  0
    0.1736   -2.1041    5.1020 C   0  0  0  0  0  0  0  0  0  0  0  0
    1.2093   -3.1477    4.9391 C   0  0  0  0  0  0  0  0  0  0  0  0
    1.1614   -4.4865    5.3565 C   0  0  0  0  0  0  0  0  0  0  0  0
    2.2988   -5.2888    5.1126 C   0  0  0  0  0  0  0  0  0  0  0  0
    3.4408   -4.7457    4.4753 C   0  0  0  0  0  0  0  0  0  0  0  0
    3.4640   -3.3935    4.0645 C   0  0  0  0  0  0  0  0  0  0  0  0
    2.3089   -2.6170    4.2894 C   0  0  0  0  0  0  0  0  0  0  0  0
    2.0474   -1.1524    3.9922 C   0  0  1  0  0  0  0  0  0  0  0  0
    2.9778   -0.3844    4.7278 O   0  0  0  0  0  0  0  0  0  0  0  0
    2.0763   -0.6904    2.5069 C   0  0  0  0  0  0  0  0  0  0  0  0
    2.8636   -1.3744    1.4633 C   0  0  0  0  0  0  0  0  0  0  0  0
    2.6614   -2.7384    1.1588 C   0  0  0  0  0  0  0  0  0  0  0  0
    3.4418   -3.3686    0.1707 C   0  0  0  0  0  0  0  0  0  0  0  0
    4.4102   -2.6278   -0.5357 C   0  0  0  0  0  0  0  0  0  0  0  0
    4.6015   -1.2607   -0.2505 C   0  0  0  0  0  0  0  0  0  0  0  0
    3.8317   -0.6382    0.7489 C   0  0  0  0  0  0  0  0  0  0  0  0
    1.4115    0.4466    2.1843 C   0  0  0  0  0  0  0  0  0  0  0  0
    0.6884    1.1713    3.2942 C   0  0  1  0  0  0  0  0  0  0  0  0
   -0.2777    2.3507    3.0630 C   0  0  0  0  0  0  0  0  0  0  0  0
   -1.0682    2.3056    4.3607 C   0  0  0  0  0  0  0  0  0  0  0  0
   -1.7936    3.3491    4.9597 C   0  0  0  0  0  0  0  0  0  0  0  0
   -2.3657    3.1157    6.2301 C   0  0  0  0  0  0  0  0  0  0  0  0
   -2.1875    1.8761    6.8895 C   0  0  0  0  0  0  0  0  0  0  0  0
   -1.4635    0.8329    6.2723 C   0  0  0  0  0  0  0  0  0  0  0  0
   -0.9199    1.0706    5.0005 C   0  0  0  0  0  0  0  0  0  0  0  0
   -0.1322    0.1600    4.0992 C   0  0  2  0  0  0  0  0  0  0  0  0
    0.6775   -0.9748    4.5646 N   0  0  0  0  0  0  0  0  0  0  0  0
    0.2898   -4.8844    5.8562 H   0  0  0  0  0  0  0  0  0  0  0  0
    2.3030   -6.3226    5.4232 H   0  0  0  0  0  0  0  0  0  0  0  0
    4.3052   -5.3716    4.3025 H   0  0  0  0  0  0  0  0  0  0  0  0
    4.3364   -2.9703    3.5833 H   0  0  0  0  0  0  0  0  0  0  0  0
    3.3117    0.2870    4.1497 H   0  0  0  0  0  0  0  0  0  0  0  0
    1.9166   -3.3070    1.6894 H   0  0  0  0  0  0  0  0  0  0  0  0
    3.2976   -4.4169   -0.0440 H   0  0  0  0  0  0  0  0  0  0  0  0
    5.0038   -3.1114   -1.2966 H   0  0  0  0  0  0  0  0  0  0  0  0
    5.3322   -0.6817   -0.7960 H   0  0  0  0  0  0  0  0  0  0  0  0
    3.9783    0.4096    0.9592 H   0  0  0  0  0  0  0  0  0  0  0  0
    1.3874    0.8539    1.1795 H   0  0  0  0  0  0  0  0  0  0  0  0
    1.4701    1.5711    3.9484 H   0  0  0  0  0  0  0  0  0  0  0  0
    0.2551    3.2931    2.9086 H   0  0  0  0  0  0  0  0  0  0  0  0
   -0.9442    2.1755    2.2155 H   0  0  0  0  0  0  0  0  0  0  0  0
   -1.8897    4.3046    4.4645 H   0  0  0  0  0  0  0  0  0  0  0  0
   -2.9368    3.8902    6.7166 H   0  0  0  0  0  0  0  0  0  0  0  0
   -2.6248    1.7335    7.8684 H   0  0  0  0  0  0  0  0  0  0  0  0
   -1.3146   -0.1131    6.7652 H   0  0  0  0  0  0  0  0  0  0  0  0
   -0.8767   -0.2690    3.4309 H   0  0  0  0  0  0  0  0  0  0  0  0
  1  2  2  0
  2 28  1  0
  2  3  1  0
  3  8  2  0
  3  4  1  0
  4  5  2  0
  4 29  1  0
  5  6  1  0
  5 30  1  0
  6  7  2  0
  6 31  1  0
  7  8  1  0
  7 32  1  0
  8  9  1  0
  9 28  1  0
  9 10  1  1
  9 11  1  0
 10 33  1  0
 11 12  1  0
 11 18  2  0
 12 17  1  0
 12 13  2  0
 13 14  1  0
 13 34  1  0
 14 15  2  0
 14 35  1  0
 15 16  1  0
 15 36  1  0
 16 17  2  0
 16 37  1  0
 17 38  1  0
 18 19  1  0
 18 39  1  0
 19 27  1  0
 19 20  1  0
 19 40  1  1
 20 21  1  0
 20 41  1  0
 20 42  1  0
 21 26  2  0
 21 22  1  0
 22 23  2  0
 22 43  1  0
 23 24  1  0
 23 44  1  0
 24 25  2  0
 24 45  1  0
 25 26  1  0
 25 46  1  0
 26 27  1  0
 27 28  1  0
 27 47  1  6
M  END
>  <i_m_ct_stereo_status>  (127) 
1

>  <s_m_source_file>  (127) 
/var/tmp/pbs.5076255.sched01/tmprtix0sri/443g93ja_l.sdf

>  <i_m_source_file_index>  (127) 
10

>  <i_lp_mmshare_version>  (127) 
48012

>  <i_f3d_flags>  (127) 
0

>  <s_epik_input>  (127) 
W2NIXTFbY0hdW2NIXVtjSF1jKGMxW0NAQF0yM1tPSF0pQyg9TylOM1tDQEBIXTRbQ0BIXShbQ0gyXWM1YzRbY0hdW2NIXVtjSF1bY0hdNSlbQ0hdPUMyYzZbY0hdW2NIXVtjSF1bY0hdW2NIXTY=

>  <s_epik_cmdline>  (127) 
J2VwaWtfcHl0aG9uJywgJy1waHQnLCAnMi4wJywgJy1waCcsICc3LjAnLCAnLXRuJywgJzgnLCAnLW1hJywgJzIwMCcsICctaW1hZScsICc8aW5maWxlLm1hZT4nLCAnLW9tYWUnLCAnPG91dGZpbGUubWFlPic=

>  <r_lp_tautomer_probability>  (127) 
1

>  <r_epik_Ionization_Penalty>  (127) 
0.000121943

>  <r_epik_Ionization_Penalty_Charging>  (127) 
0

>  <r_epik_Ionization_Penalty_Neutral>  (127) 
0.000121943

>  <r_epik_State_Penalty>  (127) 
-0

>  <r_epik_Charging_Adjusted_Penalty>  (127) 
0

>  <i_epik_Tot_Q>  (127) 
0

>  <i_epik_Tot_abs_Q>  (127) 
0

>  <s_lp_Force_Field>  (127) 
OPLS3e

>  <r_lp_Energy>  (127) 
61.0694

>  <b_lp_Chiralities_Consistent>  (127) 
1

>  <s_lp_Variant>  (127) 
40:0-1

>  <s_i_glide_gridfile>  (127) 
pfpi4k_grid

>  <i_i_glide_lignum>  (127) 
10

>  <i_i_glide_rotatable_bonds>  (127) 
2

>  <r_i_docking_score>  (127) 
-2.52458

>  <r_i_glide_ligand_efficiency>  (127) 
-0.0901635

>  <r_i_glide_ligand_efficiency_sa>  (127) 
-0.27379

>  <r_i_glide_ligand_efficiency_ln>  (127) 
-0.582747

>  <r_i_glide_gscore>  (127) 
-2.52458

>  <r_i_glide_lipo>  (127) 
-0.104196

>  <r_i_glide_hbond>  (127) 
0

>  <r_i_glide_metal>  (127) 
-0

>  <r_i_glide_rewards>  (127) 
-0.917565

>  <r_i_glide_evdw>  (127) 
-27.7146

>  <r_i_glide_ecoul>  (127) 
-1.68377

>  <r_i_glide_erotb>  (127) 
0.144052

>  <r_i_glide_esite>  (127) 
-0.00857844

>  <r_i_glide_emodel>  (127) 
-33.9073

>  <r_i_glide_energy>  (127) 
-29.3983

>  <r_i_glide_einternal>  (127) 
0.325342

>  <r_i_glide_intrahb_reward>  (127) 
-0

>  <i_i_glide_confnum>  (127) 
1

>  <i_i_glide_posenum>  (127) 
1

>  <r_i_glide_eff_state_penalty>  (127) 
0

>  <ligand_id>  (127) 
40

>  <original_smiles>  (127) 
O=C1c2ccccc2C2(O)C(c3ccccc3)=CC3Cc4ccccc4C3N12

>  <smiles>  (127) 
[H]OC12C(c3c([H])c([H])c([H])c([H])c3[H])=C([H])C3([H])C([H])([H])c4c([H])c([H])c([H])c([H])c4C3([H])N1C(=O)c1c([H])c([H])c([H])c([H])c12

$$$$
43:0:0
     RDKit          3D

 69 74  0  0  1  0  0  0  0  0999 V2000
   -2.1419   -1.3356    5.4436 C   0  0  0  0  0  0  0  0  0  0  0  0
   -0.6737   -1.4104    5.0072 C   0  0  2  0  0  0  0  0  0  0  0  0
    0.1451   -2.2747    5.9980 C   0  0  0  0  0  0  0  0  0  0  0  0
    1.6719   -2.0055    5.9660 C   0  0  0  0  0  0  0  0  0  0  0  0
    2.0981   -1.4840    4.5864 C   0  0  2  0  0  0  0  0  0  0  0  0
    3.6028   -1.4843    4.2440 C   0  0  1  0  0  0  0  0  0  0  0  0
    4.3491   -2.7517    4.7014 C   0  0  0  0  0  0  0  0  0  0  0  0
    3.7807   -1.2187    2.7272 C   0  0  1  0  0  0  0  0  0  0  0  0
    3.1546   -2.2880    1.9951 O   0  0  0  0  0  0  0  0  0  0  0  0
    3.4781   -2.4528    0.6100 C   0  0  2  0  0  0  0  0  0  0  0  0
    3.1644   -3.8803    0.0911 C   0  0  1  0  0  0  0  0  0  0  0  0
    2.1954   -3.8672   -0.9452 O   0  0  0  0  0  0  0  0  0  0  0  0
    4.5328   -4.3275   -0.4750 C   0  0  2  0  0  0  0  0  0  0  0  0
    5.3938   -4.6594    0.7626 C   0  0  0  0  0  0  0  0  0  0  0  0
    5.7463   -3.2732    1.3047 C   0  0  0  0  0  0  0  0  0  0  0  0
    4.9983   -2.3337    0.3226 C   0  0  1  0  0  0  0  0  0  0  0  0
    5.1885   -3.0389   -1.0310 C   0  0  0  0  0  0  0  0  0  0  0  0
    6.6735   -3.1908   -1.4697 C   0  0  0  0  0  0  0  0  0  0  0  0
    4.4839   -2.3348   -2.2184 C   0  0  0  0  0  0  0  0  0  0  0  0
    3.2132    0.1652    2.3751 C   0  0  1  0  0  0  0  0  0  0  0  0
    3.3845    0.5079    1.0259 O   0  0  0  0  0  0  0  0  0  0  0  0
    1.7799    0.4474    2.8701 C   0  0  2  0  0  0  0  0  0  0  0  0
    1.5856    1.7923    3.5898 C   0  0  1  0  0  0  0  0  0  0  0  0
    2.4759    2.9901    3.2649 C   0  0  0  0  0  0  0  0  0  0  0  0
    0.1245    2.2393    3.7526 C   0  0  0  0  0  0  0  0  0  0  0  0
   -0.7973    1.0412    4.0485 C   0  0  0  0  0  0  0  0  0  0  0  0
   -0.0099   -0.0302    4.8269 C   0  0  2  0  0  0  0  0  0  0  0  0
    1.4364   -0.1291    4.2593 C   0  0  1  0  0  0  0  0  0  0  0  0
    2.0145    1.0944    4.8135 O   0  0  0  0  0  0  0  0  0  0  0  0
   -2.2171   -0.7482    6.3557 H   0  0  0  0  0  0  0  0  0  0  0  0
   -2.5384   -2.3297    5.6469 H   0  0  0  0  0  0  0  0  0  0  0  0
   -2.7628   -0.8608    4.6835 H   0  0  0  0  0  0  0  0  0  0  0  0
   -0.6392   -1.9052    4.0375 H   0  0  0  0  0  0  0  0  0  0  0  0
   -0.2070   -2.1275    7.0215 H   0  0  0  0  0  0  0  0  0  0  0  0
   -0.0340   -3.3217    5.7592 H   0  0  0  0  0  0  0  0  0  0  0  0
    1.9633   -1.2929    6.7390 H   0  0  0  0  0  0  0  0  0  0  0  0
    2.1735   -2.9459    6.1933 H   0  0  0  0  0  0  0  0  0  0  0  0
    1.6621   -2.2209    3.9119 H   0  0  0  0  0  0  0  0  0  0  0  0
    4.0654   -0.6571    4.7819 H   0  0  0  0  0  0  0  0  0  0  0  0
    3.9006   -3.6664    4.3031 H   0  0  0  0  0  0  0  0  0  0  0  0
    4.3658   -2.8354    5.7910 H   0  0  0  0  0  0  0  0  0  0  0  0
    5.3945   -2.7245    4.3916 H   0  0  0  0  0  0  0  0  0  0  0  0
    4.8547   -1.1745    2.5384 H   0  0  0  0  0  0  0  0  0  0  0  0
    2.9020   -1.7309    0.0337 H   0  0  0  0  0  0  0  0  0  0  0  0
    2.8173   -4.5253    0.9052 H   0  0  0  0  0  0  0  0  0  0  0  0
    2.4137   -4.5431   -1.5888 H   0  0  0  0  0  0  0  0  0  0  0  0
    4.4804   -5.1620   -1.1694 H   0  0  0  0  0  0  0  0  0  0  0  0
    4.8332   -5.2238    1.5055 H   0  0  0  0  0  0  0  0  0  0  0  0
    6.2764   -5.2447    0.5143 H   0  0  0  0  0  0  0  0  0  0  0  0
    5.4161   -3.1872    2.3340 H   0  0  0  0  0  0  0  0  0  0  0  0
    6.8178   -3.0873    1.2989 H   0  0  0  0  0  0  0  0  0  0  0  0
    5.3641   -1.3070    0.3328 H   0  0  0  0  0  0  0  0  0  0  0  0
    7.1188   -2.2310   -1.7364 H   0  0  0  0  0  0  0  0  0  0  0  0
    6.7567   -3.8160   -2.3580 H   0  0  0  0  0  0  0  0  0  0  0  0
    7.3429   -3.6236   -0.7290 H   0  0  0  0  0  0  0  0  0  0  0  0
    4.9723   -1.3956   -2.4698 H   0  0  0  0  0  0  0  0  0  0  0  0
    3.4163   -2.1510   -2.0744 H   0  0  0  0  0  0  0  0  0  0  0  0
    4.5647   -2.9190   -3.1246 H   0  0  0  0  0  0  0  0  0  0  0  0
    3.8937    0.8368    2.8858 H   0  0  0  0  0  0  0  0  0  0  0  0
    2.7060    0.0574    0.5297 H   0  0  0  0  0  0  0  0  0  0  0  0
    1.0137    0.2312    2.1251 H   0  0  0  0  0  0  0  0  0  0  0  0
    2.3910    3.2674    2.2132 H   0  0  0  0  0  0  0  0  0  0  0  0
    3.5227    2.7975    3.4725 H   0  0  0  0  0  0  0  0  0  0  0  0
    2.2101    3.8609    3.8589 H   0  0  0  0  0  0  0  0  0  0  0  0
    0.0658    2.9542    4.5706 H   0  0  0  0  0  0  0  0  0  0  0  0
   -0.2156    2.7493    2.8524 H   0  0  0  0  0  0  0  0  0  0  0  0
   -1.6723    1.3740    4.6079 H   0  0  0  0  0  0  0  0  0  0  0  0
   -1.1525    0.6048    3.1125 H   0  0  0  0  0  0  0  0  0  0  0  0
    0.0751    0.3638    5.8428 H   0  0  0  0  0  0  0  0  0  0  0  0
  1  2  1  0
  1 30  1  0
  1 31  1  0
  1 32  1  0
  2 27  1  0
  2  3  1  0
  2 33  1  6
  3  4  1  0
  3 34  1  0
  3 35  1  0
  4  5  1  0
  4 36  1  0
  4 37  1  0
  5 28  1  0
  5  6  1  0
  5 38  1  6
  6  7  1  0
  6  8  1  0
  6 39  1  1
  7 40  1  0
  7 41  1  0
  7 42  1  0
  8  9  1  0
  8 20  1  0
  8 43  1  1
  9 10  1  0
 10 16  1  0
 10 11  1  0
 10 44  1  6
 11 12  1  0
 11 13  1  0
 11 45  1  1
 12 46  1  0
 13 17  1  0
 13 14  1  0
 13 47  1  6
 14 15  1  0
 14 48  1  0
 14 49  1  0
 15 16  1  0
 15 50  1  0
 15 51  1  0
 16 17  1  0
 16 52  1  6
 17 18  1  0
 17 19  1  0
 18 53  1  0
 18 54  1  0
 18 55  1  0
 19 56  1  0
 19 57  1  0
 19 58  1  0
 20 21  1  0
 20 22  1  0
 20 59  1  1
 21 60  1  0
 22 28  1  0
 22 23  1  0
 22 61  1  6
 23 29  1  0
 23 24  1  6
 23 25  1  0
 24 62  1  0
 24 63  1  0
 24 64  1  0
 25 26  1  0
 25 65  1  0
 25 66  1  0
 26 27  1  0
 26 67  1  0
 26 68  1  0
 27 28  1  0
 27 69  1  1
 28 29  1  1
M  END
>  <i_m_ct_stereo_status>  (128) 
1

>  <s_m_source_file>  (128) 
/var/tmp/pbs.5076255.sched01/tmprtix0sri/443g93ja_l.sdf

>  <i_m_source_file_index>  (128) 
13

>  <i_lp_mmshare_version>  (128) 
48012

>  <i_f3d_flags>  (128) 
0

>  <s_epik_input>  (128) 
W0NAXTEyM1tDQEBIXTRbQ0gyXVtDSDJdW0NAQEhdKFtDSDNdKVtDQEBIXTJbQ0gyXVtDSDJdW0NAXShPMykoW0NIM10pW0NASF0xW0NASF0oW09IXSlbQ0BASF0oW0NAQEhdNFtDSDNdKU9bQ0BIXShbQ0BASF0oW09IXSlbQ0BIXTU2KVtDQEBIXShbQ0gyXVtDSDJdNSlDNihbQ0gzXSlbQ0gzXQ==

>  <s_epik_cmdline>  (128) 
J2VwaWtfcHl0aG9uJywgJy1waHQnLCAnMi4wJywgJy1waCcsICc3LjAnLCAnLXRuJywgJzgnLCAnLW1hJywgJzIwMCcsICctaW1hZScsICc8aW5maWxlLm1hZT4nLCAnLW9tYWUnLCAnPG91dGZpbGUubWFlPic=

>  <r_lp_tautomer_probability>  (128) 
1

>  <r_epik_Ionization_Penalty>  (128) 
2.39253e-07

>  <r_epik_Ionization_Penalty_Charging>  (128) 
0

>  <r_epik_Ionization_Penalty_Neutral>  (128) 
2.39253e-07

>  <r_epik_State_Penalty>  (128) 
-0

>  <r_epik_Charging_Adjusted_Penalty>  (128) 
0

>  <i_epik_Tot_Q>  (128) 
0

>  <i_epik_Tot_abs_Q>  (128) 
0

>  <s_lp_Force_Field>  (128) 
OPLS3e

>  <r_lp_Energy>  (128) 
94.2248

>  <b_lp_Chiralities_Consistent>  (128) 
1

>  <s_lp_Variant>  (128) 
43:0-1

>  <s_i_glide_gridfile>  (128) 
pfpi4k_grid

>  <i_i_glide_lignum>  (128) 
13

>  <i_i_glide_rotatable_bonds>  (128) 
4

>  <r_i_docking_score>  (128) 
-2.36783

>  <r_i_glide_ligand_efficiency>  (128) 
-0.0816492

>  <r_i_glide_ligand_efficiency_sa>  (128) 
-0.250852

>  <r_i_glide_ligand_efficiency_ln>  (128) 
-0.542172

>  <r_i_glide_gscore>  (128) 
-2.36783

>  <r_i_glide_lipo>  (128) 
-0.37747

>  <r_i_glide_hbond>  (128) 
0

>  <r_i_glide_metal>  (128) 
-0

>  <r_i_glide_rewards>  (128) 
-0.650572

>  <r_i_glide_evdw>  (128) 
-20.4246

>  <r_i_glide_ecoul>  (128) 
-3.72385

>  <r_i_glide_erotb>  (128) 
0.240025

>  <r_i_glide_esite>  (128) 
0

>  <r_i_glide_emodel>  (128) 
-21.7503

>  <r_i_glide_energy>  (128) 
-24.1485

>  <r_i_glide_einternal>  (128) 
8.57343

>  <r_i_glide_intrahb_reward>  (128) 
-0

>  <i_i_glide_confnum>  (128) 
3

>  <i_i_glide_posenum>  (128) 
2

>  <r_i_glide_eff_state_penalty>  (128) 
0

>  <ligand_id>  (128) 
43

>  <original_smiles>  (128) 
CC1CCC2C(C)C(OC3C(O)C4CCC3C4(C)C)C(O)C3C4(C)CCC1C23O4

>  <smiles>  (128) 
[H]OC1([H])C([H])(OC2([H])C([H])(O[H])C3([H])C([H])([H])C([H])([H])C2([H])C3(C([H])([H])[H])C([H])([H])[H])C([H])(C([H])([H])[H])C2([H])C([H])([H])C([H])([H])C([H])(C([H])([H])[H])C3([H])C([H])([H])C([H])([H])C4(C([H])([H])[H])OC32C14[H]

$$$$
43:0:1
     RDKit          3D

 69 74  0  0  1  0  0  0  0  0999 V2000
   -1.7439   -3.7513    6.7545 C   0  0  0  0  0  0  0  0  0  0  0  0
   -0.4655   -3.1326    6.1638 C   0  0  2  0  0  0  0  0  0  0  0  0
    0.7658   -3.5646    6.9973 C   0  0  0  0  0  0  0  0  0  0  0  0
    2.0000   -2.6407    6.8449 C   0  0  0  0  0  0  0  0  0  0  0  0
    1.9915   -1.9439    5.4760 C   0  0  2  0  0  0  0  0  0  0  0  0
    3.2929   -1.2628    4.9810 C   0  0  1  0  0  0  0  0  0  0  0  0
    4.5901   -2.0395    5.2937 C   0  0  0  0  0  0  0  0  0  0  0  0
    3.1565   -0.9244    3.4663 C   0  0  1  0  0  0  0  0  0  0  0  0
    2.8664   -2.0991    2.6962 O   0  0  0  0  0  0  0  0  0  0  0  0
    3.7119   -2.3313    1.5720 C   0  0  2  0  0  0  0  0  0  0  0  0
    3.0122   -3.1970    0.4984 C   0  0  1  0  0  0  0  0  0  0  0  0
    2.9256   -2.5513   -0.7519 O   0  0  0  0  0  0  0  0  0  0  0  0
    3.9840   -4.3814    0.3357 C   0  0  2  0  0  0  0  0  0  0  0  0
    3.7648   -5.2830    1.5670 C   0  0  0  0  0  0  0  0  0  0  0  0
    4.4412   -4.4784    2.6809 C   0  0  0  0  0  0  0  0  0  0  0  0
    4.9393   -3.2086    1.9359 C   0  0  1  0  0  0  0  0  0  0  0  0
    5.3899   -3.7731    0.5685 C   0  0  0  0  0  0  0  0  0  0  0  0
    6.5314   -4.8152    0.6512 C   0  0  0  0  0  0  0  0  0  0  0  0
    5.8687   -2.7017   -0.4496 C   0  0  0  0  0  0  0  0  0  0  0  0
    2.0080    0.0828    3.2616 C   0  0  1  0  0  0  0  0  0  0  0  0
    1.8640    0.4437    1.8998 O   0  0  0  0  0  0  0  0  0  0  0  0
    0.6690   -0.3060    3.9349 C   0  0  2  0  0  0  0  0  0  0  0  0
   -0.0279    0.7711    4.7818 C   0  0  1  0  0  0  0  0  0  0  0  0
    0.1845    2.2592    4.4707 C   0  0  0  0  0  0  0  0  0  0  0  0
   -1.5128    0.5161    5.1186 C   0  0  0  0  0  0  0  0  0  0  0  0
   -1.7632   -0.9729    5.4008 C   0  0  0  0  0  0  0  0  0  0  0  0
   -0.4976   -1.5961    6.0129 C   0  0  2  0  0  0  0  0  0  0  0  0
    0.7644   -1.0175    5.3085 C   0  0  1  0  0  0  0  0  0  0  0  0
    0.8010    0.3173    5.9070 O   0  0  0  0  0  0  0  0  0  0  0  0
   -1.9005   -3.4599    7.7872 H   0  0  0  0  0  0  0  0  0  0  0  0
   -1.6730   -4.8434    6.7438 H   0  0  0  0  0  0  0  0  0  0  0  0
   -2.6266   -3.4534    6.1869 H   0  0  0  0  0  0  0  0  0  0  0  0
   -0.3455   -3.5353    5.1611 H   0  0  0  0  0  0  0  0  0  0  0  0
    0.5045   -3.6261    8.0547 H   0  0  0  0  0  0  0  0  0  0  0  0
    1.0391   -4.5765    6.6963 H   0  0  0  0  0  0  0  0  0  0  0  0
    2.0248   -1.8922    7.6409 H   0  0  0  0  0  0  0  0  0  0  0  0
    2.8919   -3.2553    6.9536 H   0  0  0  0  0  0  0  0  0  0  0  0
    1.8556   -2.7834    4.7886 H   0  0  0  0  0  0  0  0  0  0  0  0
    3.3916   -0.3131    5.5167 H   0  0  0  0  0  0  0  0  0  0  0  0
    4.5464   -3.0830    4.9813 H   0  0  0  0  0  0  0  0  0  0  0  0
    4.8076   -2.0239    6.3660 H   0  0  0  0  0  0  0  0  0  0  0  0
    5.4433   -1.5718    4.7962 H   0  0  0  0  0  0  0  0  0  0  0  0
    4.0879   -0.4531    3.1415 H   0  0  0  0  0  0  0  0  0  0  0  0
    4.0018   -1.3721    1.1394 H   0  0  0  0  0  0  0  0  0  0  0  0
    2.0201   -3.5165    0.8330 H   0  0  0  0  0  0  0  0  0  0  0  0
    2.2281   -1.8881   -0.7178 H   0  0  0  0  0  0  0  0  0  0  0  0
    3.8483   -4.9158   -0.6083 H   0  0  0  0  0  0  0  0  0  0  0  0
    2.7092   -5.4398    1.7921 H   0  0  0  0  0  0  0  0  0  0  0  0
    4.2091   -6.2691    1.4374 H   0  0  0  0  0  0  0  0  0  0  0  0
    3.7260   -4.2963    3.4829 H   0  0  0  0  0  0  0  0  0  0  0  0
    5.2754   -5.0228    3.1177 H   0  0  0  0  0  0  0  0  0  0  0  0
    5.7109   -2.6669    2.4698 H   0  0  0  0  0  0  0  0  0  0  0  0
    7.4928   -4.3613    0.8756 H   0  0  0  0  0  0  0  0  0  0  0  0
    6.6498   -5.3035   -0.3182 H   0  0  0  0  0  0  0  0  0  0  0  0
    6.3955   -5.6393    1.3433 H   0  0  0  0  0  0  0  0  0  0  0  0
    6.8482   -2.3047   -0.1767 H   0  0  0  0  0  0  0  0  0  0  0  0
    5.1736   -1.8788   -0.6235 H   0  0  0  0  0  0  0  0  0  0  0  0
    6.0392   -3.1465   -1.4266 H   0  0  0  0  0  0  0  0  0  0  0  0
    2.3987    0.9842    3.7354 H   0  0  0  0  0  0  0  0  0  0  0  0
    1.4244   -0.2525    1.4324 H   0  0  0  0  0  0  0  0  0  0  0  0
   -0.0086   -0.8397    3.2516 H   0  0  0  0  0  0  0  0  0  0  0  0
   -0.1478    2.4973    3.4568 H   0  0  0  0  0  0  0  0  0  0  0  0
    1.2288    2.5522    4.5551 H   0  0  0  0  0  0  0  0  0  0  0  0
   -0.3737    2.8901    5.1592 H   0  0  0  0  0  0  0  0  0  0  0  0
   -1.7926    1.1090    5.9891 H   0  0  0  0  0  0  0  0  0  0  0  0
   -2.1570    0.8420    4.2963 H   0  0  0  0  0  0  0  0  0  0  0  0
   -2.6148   -1.0919    6.0627 H   0  0  0  0  0  0  0  0  0  0  0  0
   -1.9877   -1.4615    4.4591 H   0  0  0  0  0  0  0  0  0  0  0  0
   -0.4813   -1.2445    7.0409 H   0  0  0  0  0  0  0  0  0  0  0  0
  1  2  1  0
  1 30  1  0
  1 31  1  0
  1 32  1  0
  2 27  1  0
  2  3  1  0
  2 33  1  6
  3  4  1  0
  3 34  1  0
  3 35  1  0
  4  5  1  0
  4 36  1  0
  4 37  1  0
  5 28  1  0
  5  6  1  0
  5 38  1  6
  6  7  1  0
  6  8  1  0
  6 39  1  1
  7 40  1  0
  7 41  1  0
  7 42  1  0
  8  9  1  0
  8 20  1  0
  8 43  1  6
  9 10  1  0
 10 16  1  0
 10 11  1  0
 10 44  1  6
 11 12  1  0
 11 13  1  0
 11 45  1  1
 12 46  1  0
 13 17  1  0
 13 14  1  0
 13 47  1  6
 14 15  1  0
 14 48  1  0
 14 49  1  0
 15 16  1  0
 15 50  1  0
 15 51  1  0
 16 17  1  0
 16 52  1  1
 17 18  1  0
 17 19  1  0
 18 53  1  0
 18 54  1  0
 18 55  1  0
 19 56  1  0
 19 57  1  0
 19 58  1  0
 20 21  1  0
 20 22  1  0
 20 59  1  1
 21 60  1  0
 22 28  1  0
 22 23  1  0
 22 61  1  6
 23 29  1  0
 23 24  1  6
 23 25  1  0
 24 62  1  0
 24 63  1  0
 24 64  1  0
 25 26  1  0
 25 65  1  0
 25 66  1  0
 26 27  1  0
 26 67  1  0
 26 68  1  0
 27 28  1  0
 27 69  1  1
 28 29  1  1
M  END
>  <i_m_ct_stereo_status>  (129) 
1

>  <s_m_source_file>  (129) 
/var/tmp/pbs.5076255.sched01/tmprtix0sri/443g93ja_l.sdf

>  <i_m_source_file_index>  (129) 
13

>  <i_lp_mmshare_version>  (129) 
48012

>  <i_f3d_flags>  (129) 
0

>  <s_epik_input>  (129) 
W0NAXTEyM1tDQEBIXTRbQ0gyXVtDSDJdW0NAQEhdKFtDSDNdKVtDQEBIXTJbQ0gyXVtDSDJdW0NAXShPMykoW0NIM10pW0NASF0xW0NASF0oW09IXSlbQ0BASF0oW0NAQEhdNFtDSDNdKU9bQ0BIXShbQ0BASF0oW09IXSlbQ0BIXTU2KVtDQEBIXShbQ0gyXVtDSDJdNSlDNihbQ0gzXSlbQ0gzXQ==

>  <s_epik_cmdline>  (129) 
J2VwaWtfcHl0aG9uJywgJy1waHQnLCAnMi4wJywgJy1waCcsICc3LjAnLCAnLXRuJywgJzgnLCAnLW1hJywgJzIwMCcsICctaW1hZScsICc8aW5maWxlLm1hZT4nLCAnLW9tYWUnLCAnPG91dGZpbGUubWFlPic=

>  <r_lp_tautomer_probability>  (129) 
1

>  <r_epik_Ionization_Penalty>  (129) 
2.39253e-07

>  <r_epik_Ionization_Penalty_Charging>  (129) 
0

>  <r_epik_Ionization_Penalty_Neutral>  (129) 
2.39253e-07

>  <r_epik_State_Penalty>  (129) 
-0

>  <r_epik_Charging_Adjusted_Penalty>  (129) 
0

>  <i_epik_Tot_Q>  (129) 
0

>  <i_epik_Tot_abs_Q>  (129) 
0

>  <s_lp_Force_Field>  (129) 
OPLS3e

>  <r_lp_Energy>  (129) 
94.2248

>  <b_lp_Chiralities_Consistent>  (129) 
1

>  <s_lp_Variant>  (129) 
43:0-1

>  <s_i_glide_gridfile>  (129) 
pfpi4k_grid

>  <i_i_glide_lignum>  (129) 
13

>  <i_i_glide_rotatable_bonds>  (129) 
4

>  <r_i_docking_score>  (129) 
-2.03935

>  <r_i_glide_ligand_efficiency>  (129) 
-0.0703224

>  <r_i_glide_ligand_efficiency_sa>  (129) 
-0.216053

>  <r_i_glide_ligand_efficiency_ln>  (129) 
-0.466959

>  <r_i_glide_gscore>  (129) 
-2.03935

>  <r_i_glide_lipo>  (129) 
-0.253328

>  <r_i_glide_hbond>  (129) 
0

>  <r_i_glide_metal>  (129) 
-0

>  <r_i_glide_rewards>  (129) 
-0.650572

>  <r_i_glide_evdw>  (129) 
-15.9477

>  <r_i_glide_ecoul>  (129) 
-3.85394

>  <r_i_glide_erotb>  (129) 
0.240025

>  <r_i_glide_esite>  (129) 
0

>  <r_i_glide_emodel>  (129) 
-21.1072

>  <r_i_glide_energy>  (129) 
-19.8016

>  <r_i_glide_einternal>  (129) 
2.03112

>  <r_i_glide_intrahb_reward>  (129) 
-0

>  <i_i_glide_confnum>  (129) 
3

>  <i_i_glide_posenum>  (129) 
6

>  <r_i_glide_eff_state_penalty>  (129) 
0

>  <ligand_id>  (129) 
43

>  <original_smiles>  (129) 
CC1CCC2C(C)C(OC3C(O)C4CCC3C4(C)C)C(O)C3C4(C)CCC1C23O4

>  <smiles>  (129) 
[H]OC1([H])C([H])(OC2([H])C([H])(O[H])C3([H])C([H])([H])C([H])([H])C2([H])C3(C([H])([H])[H])C([H])([H])[H])C([H])(C([H])([H])[H])C2([H])C([H])([H])C([H])([H])C([H])(C([H])([H])[H])C3([H])C([H])([H])C([H])([H])C4(C([H])([H])[H])OC32C14[H]

$$$$
43:0:2
     RDKit          3D

 69 74  0  0  1  0  0  0  0  0999 V2000
   -1.8362   -3.9769    7.1705 C   0  0  0  0  0  0  0  0  0  0  0  0
   -0.4805   -3.5819    6.5818 C   0  0  2  0  0  0  0  0  0  0  0  0
    0.6679   -4.0234    7.5301 C   0  0  0  0  0  0  0  0  0  0  0  0
    2.0060   -3.2868    7.3096 C   0  0  0  0  0  0  0  0  0  0  0  0
    2.1280   -2.7905    5.8563 C   0  0  2  0  0  0  0  0  0  0  0  0
    3.5066   -2.3280    5.3489 C   0  0  1  0  0  0  0  0  0  0  0  0
    4.6524   -3.2121    5.9011 C   0  0  0  0  0  0  0  0  0  0  0  0
    3.4616   -2.2316    3.7914 C   0  0  1  0  0  0  0  0  0  0  0  0
    3.1079   -3.4954    3.2087 O   0  0  0  0  0  0  0  0  0  0  0  0
    3.7105   -3.8354    1.9684 C   0  0  2  0  0  0  0  0  0  0  0  0
    3.1985   -5.1869    1.4124 C   0  0  1  0  0  0  0  0  0  0  0  0
    2.5178   -5.0311    0.1915 O   0  0  0  0  0  0  0  0  0  0  0  0
    4.5116   -5.9960    1.2355 C   0  0  2  0  0  0  0  0  0  0  0  0
    4.9680   -6.4048    2.6483 C   0  0  0  0  0  0  0  0  0  0  0  0
    5.4512   -5.0660    3.2840 C   0  0  0  0  0  0  0  0  0  0  0  0
    5.2439   -4.0870    2.0683 C   0  0  1  0  0  0  0  0  0  0  0  0
    5.5725   -4.9320    0.8294 C   0  0  0  0  0  0  0  0  0  0  0  0
    7.0385   -5.4641    0.7921 C   0  0  0  0  0  0  0  0  0  0  0  0
    5.3303   -4.1958   -0.5188 C   0  0  0  0  0  0  0  0  0  0  0  0
    2.4538   -1.1330    3.3860 C   0  0  1  0  0  0  0  0  0  0  0  0
    2.3679   -0.9102    1.9916 O   0  0  0  0  0  0  0  0  0  0  0  0
    1.0368   -1.2727    4.0342 C   0  0  2  0  0  0  0  0  0  0  0  0
    0.4798    0.0157    4.6801 C   0  0  1  0  0  0  0  0  0  0  0  0
    0.8878    1.3986    4.1741 C   0  0  0  0  0  0  0  0  0  0  0  0
   -1.0351   -0.0194    4.9866 C   0  0  0  0  0  0  0  0  0  0  0  0
   -1.4773   -1.4042    5.4757 C   0  0  0  0  0  0  0  0  0  0  0  0
   -0.3246   -2.0867    6.2299 C   0  0  2  0  0  0  0  0  0  0  0  0
    1.0265   -1.7687    5.5114 C   0  0  1  0  0  0  0  0  0  0  0  0
    1.2099   -0.3656    5.9193 O   0  0  0  0  0  0  0  0  0  0  0  0
   -2.0113   -3.4646    8.1176 H   0  0  0  0  0  0  0  0  0  0  0  0
   -1.8714   -5.0436    7.3884 H   0  0  0  0  0  0  0  0  0  0  0  0
   -2.6608   -3.7582    6.4927 H   0  0  0  0  0  0  0  0  0  0  0  0
   -0.3702   -4.1410    5.6388 H   0  0  0  0  0  0  0  0  0  0  0  0
    0.3733   -3.9008    8.5843 H   0  0  0  0  0  0  0  0  0  0  0  0
    0.8293   -5.0799    7.3897 H   0  0  0  0  0  0  0  0  0  0  0  0
    2.1031   -2.4469    7.9834 H   0  0  0  0  0  0  0  0  0  0  0  0
    2.8205   -3.9858    7.5407 H   0  0  0  0  0  0  0  0  0  0  0  0
    1.9073   -3.6900    5.2917 H   0  0  0  0  0  0  0  0  0  0  0  0
    3.6983   -1.3178    5.7210 H   0  0  0  0  0  0  0  0  0  0  0  0
    4.4250   -4.2615    5.8275 H   0  0  0  0  0  0  0  0  0  0  0  0
    4.8906   -2.9347    6.9442 H   0  0  0  0  0  0  0  0  0  0  0  0
    5.5616   -3.0551    5.3303 H   0  0  0  0  0  0  0  0  0  0  0  0
    4.4419   -1.9108    3.4287 H   0  0  0  0  0  0  0  0  0  0  0  0
    3.5049   -3.0280    1.2550 H   0  0  0  0  0  0  0  0  0  0  0  0
    2.4849   -5.6635    2.1219 H   0  0  0  0  0  0  0  0  0  0  0  0
    3.1513   -4.8786   -0.5183 H   0  0  0  0  0  0  0  0  0  0  0  0
    4.4068   -6.8552    0.5598 H   0  0  0  0  0  0  0  0  0  0  0  0
    4.1329   -6.7571    3.2637 H   0  0  0  0  0  0  0  0  0  0  0  0
    5.6967   -7.2038    2.6479 H   0  0  0  0  0  0  0  0  0  0  0  0
    4.8779   -4.8725    4.1188 H   0  0  0  0  0  0  0  0  0  0  0  0
    6.5338   -5.1366    3.5063 H   0  0  0  0  0  0  0  0  0  0  0  0
    5.8409   -3.1829    2.1397 H   0  0  0  0  0  0  0  0  0  0  0  0
    7.7488   -4.6466    0.6184 H   0  0  0  0  0  0  0  0  0  0  0  0
    7.1755   -6.2060    0.0047 H   0  0  0  0  0  0  0  0  0  0  0  0
    7.4110   -5.9799    1.6748 H   0  0  0  0  0  0  0  0  0  0  0  0
    6.1169   -3.4210   -0.6759 H   0  0  0  0  0  0  0  0  0  0  0  0
    4.3220   -3.7558   -0.6238 H   0  0  0  0  0  0  0  0  0  0  0  0
    5.4114   -4.8964   -1.3642 H   0  0  0  0  0  0  0  0  0  0  0  0
    2.9385   -0.2296    3.7478 H   0  0  0  0  0  0  0  0  0  0  0  0
    1.8709   -1.6222    1.5956 H   0  0  0  0  0  0  0  0  0  0  0  0
    0.3285   -1.8030    3.4147 H   0  0  0  0  0  0  0  0  0  0  0  0
    0.6194    1.5189    3.1282 H   0  0  0  0  0  0  0  0  0  0  0  0
    1.9552    1.5681    4.2655 H   0  0  0  0  0  0  0  0  0  0  0  0
    0.3945    2.1886    4.7411 H   0  0  0  0  0  0  0  0  0  0  0  0
   -1.2600    0.7305    5.7476 H   0  0  0  0  0  0  0  0  0  0  0  0
   -1.6055    0.2492    4.1043 H   0  0  0  0  0  0  0  0  0  0  0  0
   -2.3881   -1.3184    6.0588 H   0  0  0  0  0  0  0  0  0  0  0  0
   -1.7104   -2.0073    4.5977 H   0  0  0  0  0  0  0  0  0  0  0  0
   -0.2802   -1.5866    7.2129 H   0  0  0  0  0  0  0  0  0  0  0  0
  1  2  1  0
  1 30  1  0
  1 31  1  0
  1 32  1  0
  2 27  1  0
  2  3  1  0
  2 33  1  6
  3  4  1  0
  3 34  1  0
  3 35  1  0
  4  5  1  0
  4 36  1  0
  4 37  1  0
  5 28  1  0
  5  6  1  0
  5 38  1  6
  6  7  1  0
  6  8  1  0
  6 39  1  1
  7 40  1  0
  7 41  1  0
  7 42  1  0
  8  9  1  0
  8 20  1  0
  8 43  1  6
  9 10  1  0
 10 16  1  0
 10 11  1  0
 10 44  1  6
 11 12  1  0
 11 13  1  0
 11 45  1  1
 12 46  1  0
 13 17  1  0
 13 14  1  0
 13 47  1  6
 14 15  1  0
 14 48  1  0
 14 49  1  0
 15 16  1  0
 15 50  1  0
 15 51  1  0
 16 17  1  0
 16 52  1  1
 17 18  1  0
 17 19  1  0
 18 53  1  0
 18 54  1  0
 18 55  1  0
 19 56  1  0
 19 57  1  0
 19 58  1  0
 20 21  1  0
 20 22  1  0
 20 59  1  1
 21 60  1  0
 22 28  1  0
 22 23  1  0
 22 61  1  6
 23 29  1  0
 23 24  1  6
 23 25  1  0
 24 62  1  0
 24 63  1  0
 24 64  1  0
 25 26  1  0
 25 65  1  0
 25 66  1  0
 26 27  1  0
 26 67  1  0
 26 68  1  0
 27 28  1  0
 27 69  1  1
 28 29  1  1
M  END
>  <i_m_ct_stereo_status>  (130) 
1

>  <s_m_source_file>  (130) 
/var/tmp/pbs.5076255.sched01/tmprtix0sri/443g93ja_l.sdf

>  <i_m_source_file_index>  (130) 
13

>  <i_lp_mmshare_version>  (130) 
48012

>  <i_f3d_flags>  (130) 
0

>  <s_epik_input>  (130) 
W0NAXTEyM1tDQEBIXTRbQ0gyXVtDSDJdW0NAQEhdKFtDSDNdKVtDQEBIXTJbQ0gyXVtDSDJdW0NAXShPMykoW0NIM10pW0NASF0xW0NASF0oW09IXSlbQ0BASF0oW0NAQEhdNFtDSDNdKU9bQ0BIXShbQ0BASF0oW09IXSlbQ0BIXTU2KVtDQEBIXShbQ0gyXVtDSDJdNSlDNihbQ0gzXSlbQ0gzXQ==

>  <s_epik_cmdline>  (130) 
J2VwaWtfcHl0aG9uJywgJy1waHQnLCAnMi4wJywgJy1waCcsICc3LjAnLCAnLXRuJywgJzgnLCAnLW1hJywgJzIwMCcsICctaW1hZScsICc8aW5maWxlLm1hZT4nLCAnLW9tYWUnLCAnPG91dGZpbGUubWFlPic=

>  <r_lp_tautomer_probability>  (130) 
1

>  <r_epik_Ionization_Penalty>  (130) 
2.39253e-07

>  <r_epik_Ionization_Penalty_Charging>  (130) 
0

>  <r_epik_Ionization_Penalty_Neutral>  (130) 
2.39253e-07

>  <r_epik_State_Penalty>  (130) 
-0

>  <r_epik_Charging_Adjusted_Penalty>  (130) 
0

>  <i_epik_Tot_Q>  (130) 
0

>  <i_epik_Tot_abs_Q>  (130) 
0

>  <s_lp_Force_Field>  (130) 
OPLS3e

>  <r_lp_Energy>  (130) 
94.2248

>  <b_lp_Chiralities_Consistent>  (130) 
1

>  <s_lp_Variant>  (130) 
43:0-1

>  <s_i_glide_gridfile>  (130) 
pfpi4k_grid

>  <i_i_glide_lignum>  (130) 
13

>  <i_i_glide_rotatable_bonds>  (130) 
4

>  <r_i_docking_score>  (130) 
-1.89064

>  <r_i_glide_ligand_efficiency>  (130) 
-0.0651946

>  <r_i_glide_ligand_efficiency_sa>  (130) 
-0.200298

>  <r_i_glide_ligand_efficiency_ln>  (130) 
-0.432909

>  <r_i_glide_gscore>  (130) 
-1.89064

>  <r_i_glide_lipo>  (130) 
-0.352833

>  <r_i_glide_hbond>  (130) 
0

>  <r_i_glide_metal>  (130) 
-0

>  <r_i_glide_rewards>  (130) 
-0.650572

>  <r_i_glide_evdw>  (130) 
-16.5203

>  <r_i_glide_ecoul>  (130) 
-2.00832

>  <r_i_glide_erotb>  (130) 
0.240025

>  <r_i_glide_esite>  (130) 
0

>  <r_i_glide_emodel>  (130) 
-19.5115

>  <r_i_glide_energy>  (130) 
-18.5286

>  <r_i_glide_einternal>  (130) 
0.535232

>  <r_i_glide_intrahb_reward>  (130) 
-0

>  <i_i_glide_confnum>  (130) 
1

>  <i_i_glide_posenum>  (130) 
12

>  <r_i_glide_eff_state_penalty>  (130) 
0

>  <ligand_id>  (130) 
43

>  <original_smiles>  (130) 
CC1CCC2C(C)C(OC3C(O)C4CCC3C4(C)C)C(O)C3C4(C)CCC1C23O4

>  <smiles>  (130) 
[H]OC1([H])C([H])(OC2([H])C([H])(O[H])C3([H])C([H])([H])C([H])([H])C2([H])C3(C([H])([H])[H])C([H])([H])[H])C([H])(C([H])([H])[H])C2([H])C([H])([H])C([H])([H])C([H])(C([H])([H])[H])C3([H])C([H])([H])C([H])([H])C4(C([H])([H])[H])OC32C14[H]

$$$$
44:0:0
     RDKit          3D

 31 33  0  0  1  0  0  0  0  0999 V2000
    0.9214   -7.4715    1.8588 C   0  0  0  0  0  0  0  0  0  0  0  0
    1.8099   -6.3832    1.3909 C   0  0  0  0  0  0  0  0  0  0  0  0
    2.8577   -5.9880    2.0996 N   0  0  0  0  0  0  0  0  0  0  0  0
    3.4195   -4.9659    1.3184 O   0  0  0  0  0  0  0  0  0  0  0  0
    2.6088   -4.8587    0.2380 C   0  0  0  0  0  0  0  0  0  0  0  0
    2.8596   -3.8562   -0.8037 C   0  0  0  0  0  0  0  0  0  0  0  0
    4.0240   -3.1776   -0.8563 C   0  0  0  0  0  0  0  0  0  0  0  0
    4.3163   -2.1737   -1.9653 C   0  0  1  0  0  0  0  0  0  0  0  0
    4.7240   -2.9449   -3.2313 C   0  0  0  0  0  0  0  0  0  0  0  0
    3.3738   -3.3138   -3.8705 C   0  0  0  0  0  0  0  0  0  0  0  0
    2.3105   -2.6270   -2.9945 C   0  0  1  0  0  0  0  0  0  0  0  0
    1.7909   -3.5535   -1.8677 C   0  0  0  0  0  0  0  0  0  0  0  0
    3.0406   -1.5209   -2.3516 N   0  0  2  0  0  0  0  0  0  0  0  0
    3.2242   -0.3215   -3.2220 C   0  0  0  0  0  0  0  0  0  0  0  0
    1.5756   -5.7107    0.2281 N   0  0  0  0  0  0  0  0  0  0  0  0
    1.2769   -7.8734    2.8073 H   0  0  0  0  0  0  0  0  0  0  0  0
    0.9273   -8.2699    1.1216 H   0  0  0  0  0  0  0  0  0  0  0  0
   -0.0923   -7.0943    1.9960 H   0  0  0  0  0  0  0  0  0  0  0  0
    4.8274   -3.3839   -0.1635 H   0  0  0  0  0  0  0  0  0  0  0  0
    5.0676   -1.4603   -1.6258 H   0  0  0  0  0  0  0  0  0  0  0  0
    5.2723   -2.2869   -3.9003 H   0  0  0  0  0  0  0  0  0  0  0  0
    5.3624   -3.8107   -3.0418 H   0  0  0  0  0  0  0  0  0  0  0  0
    3.3135   -2.9283   -4.8836 H   0  0  0  0  0  0  0  0  0  0  0  0
    3.2279   -4.3849   -3.9377 H   0  0  0  0  0  0  0  0  0  0  0  0
    1.4726   -2.2851   -3.6007 H   0  0  0  0  0  0  0  0  0  0  0  0
    1.4132   -4.4769   -2.3006 H   0  0  0  0  0  0  0  0  0  0  0  0
    0.9370   -3.0914   -1.3820 H   0  0  0  0  0  0  0  0  0  0  0  0
    2.2675    0.1331   -3.4736 H   0  0  0  0  0  0  0  0  0  0  0  0
    3.7169   -0.5400   -4.1716 H   0  0  0  0  0  0  0  0  0  0  0  0
    3.8367    0.4407   -2.7411 H   0  0  0  0  0  0  0  0  0  0  0  0
    2.4879   -1.2677   -1.5317 H   0  0  0  0  0  0  0  0  0  0  0  0
  1  2  1  0
  1 16  1  0
  1 17  1  0
  1 18  1  0
  2 15  1  0
  2  3  2  0
  3  4  1  0
  4  5  1  0
  5  6  1  0
  5 15  2  0
  6 12  1  0
  6  7  2  0
  7  8  1  0
  7 19  1  0
  8 13  1  0
  8  9  1  0
  8 20  1  1
  9 10  1  0
  9 21  1  0
  9 22  1  0
 10 11  1  0
 10 23  1  0
 10 24  1  0
 11 12  1  0
 11 13  1  0
 11 25  1  6
 12 26  1  0
 12 27  1  0
 13 14  1  0
 13 31  1  1
 14 28  1  0
 14 29  1  0
 14 30  1  0
M  CHG  1  13   1
M  END
>  <i_m_ct_stereo_status>  (131) 
1

>  <s_m_source_file>  (131) 
/var/tmp/pbs.5076255.sched01/tmprtix0sri/443g93ja_l.sdf

>  <i_m_source_file_index>  (131) 
14

>  <i_lp_mmshare_version>  (131) 
48012

>  <i_f3d_flags>  (131) 
0

>  <s_epik_input>  (131) 
W0NIM11jMW5vYyhuMSlDKD1bQ0hdW0NAQEhdMjMpW0NIMl1bQ0hdKFtDSDJdW0NIMl0yKU4zW0NIM10=

>  <s_epik_cmdline>  (131) 
J2VwaWtfcHl0aG9uJywgJy1waHQnLCAnMi4wJywgJy1waCcsICc3LjAnLCAnLXRuJywgJzgnLCAnLW1hJywgJzIwMCcsICctaW1hZScsICc8aW5maWxlLm1hZT4nLCAnLW9tYWUnLCAnPG91dGZpbGUubWFlPic=

>  <r_epik_Ionization_Penalty>  (131) 
0.312481

>  <r_epik_Ionization_Penalty_Charging>  (131) 
0.312481

>  <r_epik_Ionization_Penalty_Neutral>  (131) 
2.09835e-13

>  <r_epik_State_Penalty>  (131) 
0.306586

>  <r_epik_Charging_Adjusted_Penalty>  (131) 
0.619067

>  <i_epik_Tot_Q>  (131) 
1

>  <i_epik_Tot_abs_Q>  (131) 
1

>  <s_lp_Force_Field>  (131) 
OPLS3e

>  <r_lp_Energy>  (131) 
23.961

>  <b_lp_Chiralities_Consistent>  (131) 
1

>  <s_lp_Variant>  (131) 
44:0-1

>  <s_i_glide_gridfile>  (131) 
pfpi4k_grid

>  <i_i_glide_lignum>  (131) 
14

>  <i_i_glide_rotatable_bonds>  (131) 
1

>  <r_i_docking_score>  (131) 
-4.36981

>  <r_i_glide_ligand_efficiency>  (131) 
-0.29132

>  <r_i_glide_ligand_efficiency_sa>  (131) 
-0.718458

>  <r_i_glide_ligand_efficiency_ln>  (131) 
-1.17846

>  <r_i_glide_gscore>  (131) 
-4.36981

>  <r_i_glide_lipo>  (131) 
-0.408122

>  <r_i_glide_hbond>  (131) 
-0.314249

>  <r_i_glide_metal>  (131) 
-0

>  <r_i_glide_rewards>  (131) 
-2.00274

>  <r_i_glide_evdw>  (131) 
-15.168

>  <r_i_glide_ecoul>  (131) 
-7.66684

>  <r_i_glide_erotb>  (131) 
0.387834

>  <r_i_glide_esite>  (131) 
-0.124099

>  <r_i_glide_emodel>  (131) 
-30.1496

>  <r_i_glide_energy>  (131) 
-22.8348

>  <r_i_glide_einternal>  (131) 
0.287171

>  <r_i_glide_intrahb_reward>  (131) 
-0

>  <i_i_glide_confnum>  (131) 
2

>  <i_i_glide_posenum>  (131) 
26

>  <r_i_glide_eff_state_penalty>  (131) 
0

>  <ligand_id>  (131) 
44

>  <original_smiles>  (131) 
Cc1noc(C2=CC3CCC(C2)N3C)n1

>  <smiles>  (131) 
[H]C1=C(c2nc(C([H])([H])[H])no2)C([H])([H])C2([H])C([H])([H])C([H])([H])C1([H])[N+]2([H])C([H])([H])[H]

$$$$
44:0:1
     RDKit          3D

 31 33  0  0  1  0  0  0  0  0999 V2000
    2.9308   -6.5764    3.1873 C   0  0  0  0  0  0  0  0  0  0  0  0
    2.5379   -5.9775    1.8962 C   0  0  0  0  0  0  0  0  0  0  0  0
    1.4301   -6.3500    1.2737 N   0  0  0  0  0  0  0  0  0  0  0  0
    1.4640   -5.6005    0.0923 O   0  0  0  0  0  0  0  0  0  0  0  0
    2.5556   -4.8062    0.1928 C   0  0  0  0  0  0  0  0  0  0  0  0
    2.8255   -3.8052   -0.8381 C   0  0  0  0  0  0  0  0  0  0  0  0
    3.9848   -3.1154   -0.8690 C   0  0  0  0  0  0  0  0  0  0  0  0
    4.2882   -2.1184   -1.9789 C   0  0  1  0  0  0  0  0  0  0  0  0
    4.7288   -2.9042   -3.2244 C   0  0  0  0  0  0  0  0  0  0  0  0
    3.3983   -3.2964   -3.8872 C   0  0  0  0  0  0  0  0  0  0  0  0
    2.3112   -2.6043   -3.0469 C   0  0  1  0  0  0  0  0  0  0  0  0
    1.7741   -3.5164   -1.9148 C   0  0  0  0  0  0  0  0  0  0  0  0
    3.0200   -1.4807   -2.4066 N   0  0  2  0  0  0  0  0  0  0  0  0
    3.2096   -0.2851   -3.2838 C   0  0  0  0  0  0  0  0  0  0  0  0
    3.2731   -5.0086    1.2906 N   0  0  0  0  0  0  0  0  0  0  0  0
    2.2142   -7.3378    3.4958 H   0  0  0  0  0  0  0  0  0  0  0  0
    2.9627   -5.8015    3.9548 H   0  0  0  0  0  0  0  0  0  0  0  0
    3.9091   -7.0505    3.0898 H   0  0  0  0  0  0  0  0  0  0  0  0
    4.7645   -3.3018   -0.1458 H   0  0  0  0  0  0  0  0  0  0  0  0
    5.0281   -1.3918   -1.6384 H   0  0  0  0  0  0  0  0  0  0  0  0
    5.2795   -2.2553   -3.8973 H   0  0  0  0  0  0  0  0  0  0  0  0
    5.3725   -3.7610   -3.0143 H   0  0  0  0  0  0  0  0  0  0  0  0
    3.3491   -2.9300   -4.9075 H   0  0  0  0  0  0  0  0  0  0  0  0
    3.2573   -4.3710   -3.9354 H   0  0  0  0  0  0  0  0  0  0  0  0
    1.4805   -2.2791   -3.6714 H   0  0  0  0  0  0  0  0  0  0  0  0
    1.4158   -4.4610   -2.3211 H   0  0  0  0  0  0  0  0  0  0  0  0
    0.9005   -3.0719   -1.4531 H   0  0  0  0  0  0  0  0  0  0  0  0
    2.2528    0.1517   -3.5678 H   0  0  0  0  0  0  0  0  0  0  0  0
    3.7219   -0.5074   -4.2234 H   0  0  0  0  0  0  0  0  0  0  0  0
    3.8103    0.4845   -2.7925 H   0  0  0  0  0  0  0  0  0  0  0  0
    2.4553   -1.2344   -1.5939 H   0  0  0  0  0  0  0  0  0  0  0  0
  1  2  1  0
  1 16  1  0
  1 17  1  0
  1 18  1  0
  2 15  1  0
  2  3  2  0
  3  4  1  0
  4  5  1  0
  5  6  1  0
  5 15  2  0
  6 12  1  0
  6  7  2  0
  7  8  1  0
  7 19  1  0
  8 13  1  0
  8  9  1  0
  8 20  1  1
  9 10  1  0
  9 21  1  0
  9 22  1  0
 10 11  1  0
 10 23  1  0
 10 24  1  0
 11 12  1  0
 11 13  1  0
 11 25  1  6
 12 26  1  0
 12 27  1  0
 13 14  1  0
 13 31  1  1
 14 28  1  0
 14 29  1  0
 14 30  1  0
M  CHG  1  13   1
M  END
>  <i_m_ct_stereo_status>  (132) 
1

>  <s_m_source_file>  (132) 
/var/tmp/pbs.5076255.sched01/tmprtix0sri/443g93ja_l.sdf

>  <i_m_source_file_index>  (132) 
14

>  <i_lp_mmshare_version>  (132) 
48012

>  <i_f3d_flags>  (132) 
0

>  <s_epik_input>  (132) 
W0NIM11jMW5vYyhuMSlDKD1bQ0hdW0NAQEhdMjMpW0NIMl1bQ0hdKFtDSDJdW0NIMl0yKU4zW0NIM10=

>  <s_epik_cmdline>  (132) 
J2VwaWtfcHl0aG9uJywgJy1waHQnLCAnMi4wJywgJy1waCcsICc3LjAnLCAnLXRuJywgJzgnLCAnLW1hJywgJzIwMCcsICctaW1hZScsICc8aW5maWxlLm1hZT4nLCAnLW9tYWUnLCAnPG91dGZpbGUubWFlPic=

>  <r_epik_Ionization_Penalty>  (132) 
0.312481

>  <r_epik_Ionization_Penalty_Charging>  (132) 
0.312481

>  <r_epik_Ionization_Penalty_Neutral>  (132) 
2.09835e-13

>  <r_epik_State_Penalty>  (132) 
0.306586

>  <r_epik_Charging_Adjusted_Penalty>  (132) 
0.619067

>  <i_epik_Tot_Q>  (132) 
1

>  <i_epik_Tot_abs_Q>  (132) 
1

>  <s_lp_Force_Field>  (132) 
OPLS3e

>  <r_lp_Energy>  (132) 
23.961

>  <b_lp_Chiralities_Consistent>  (132) 
1

>  <s_lp_Variant>  (132) 
44:0-1

>  <s_i_glide_gridfile>  (132) 
pfpi4k_grid

>  <i_i_glide_lignum>  (132) 
14

>  <i_i_glide_rotatable_bonds>  (132) 
1

>  <r_i_docking_score>  (132) 
-4.35173

>  <r_i_glide_ligand_efficiency>  (132) 
-0.290115

>  <r_i_glide_ligand_efficiency_sa>  (132) 
-0.715486

>  <r_i_glide_ligand_efficiency_ln>  (132) 
-1.17359

>  <r_i_glide_gscore>  (132) 
-4.35173

>  <r_i_glide_lipo>  (132) 
-0.423784

>  <r_i_glide_hbond>  (132) 
-0.191763

>  <r_i_glide_metal>  (132) 
-0

>  <r_i_glide_rewards>  (132) 
-2.00274

>  <r_i_glide_evdw>  (132) 
-15.5835

>  <r_i_glide_ecoul>  (132) 
-7.25269

>  <r_i_glide_erotb>  (132) 
0.387834

>  <r_i_glide_esite>  (132) 
-0.254197

>  <r_i_glide_emodel>  (132) 
-30.1918

>  <r_i_glide_energy>  (132) 
-22.8362

>  <r_i_glide_einternal>  (132) 
0.152866

>  <r_i_glide_intrahb_reward>  (132) 
-0

>  <i_i_glide_confnum>  (132) 
1

>  <i_i_glide_posenum>  (132) 
14

>  <r_i_glide_eff_state_penalty>  (132) 
0

>  <ligand_id>  (132) 
44

>  <original_smiles>  (132) 
Cc1noc(C2=CC3CCC(C2)N3C)n1

>  <smiles>  (132) 
[H]C1=C(c2nc(C([H])([H])[H])no2)C([H])([H])C2([H])C([H])([H])C([H])([H])C1([H])[N+]2([H])C([H])([H])[H]

$$$$
44:0:2
     RDKit          3D

 31 33  0  0  1  0  0  0  0  0999 V2000
    5.9261   -1.3233    0.2006 C   0  0  0  0  0  0  0  0  0  0  0  0
    4.5928   -1.2817    0.8312 C   0  0  0  0  0  0  0  0  0  0  0  0
    3.9097   -2.3852    1.0985 N   0  0  0  0  0  0  0  0  0  0  0  0
    2.7280   -1.9100    1.6682 O   0  0  0  0  0  0  0  0  0  0  0  0
    2.8500   -0.5580    1.6738 C   0  0  0  0  0  0  0  0  0  0  0  0
    1.7920    0.2973    2.2167 C   0  0  0  0  0  0  0  0  0  0  0  0
    0.6295   -0.2211    2.6572 C   0  0  0  0  0  0  0  0  0  0  0  0
   -0.4732    0.6469    3.2458 C   0  0  1  0  0  0  0  0  0  0  0  0
   -0.1157    0.9700    4.7028 C   0  0  0  0  0  0  0  0  0  0  0  0
    0.8482    2.1669    4.5731 C   0  0  0  0  0  0  0  0  0  0  0  0
    0.8456    2.5242    3.0668 C   0  0  1  0  0  0  0  0  0  0  0  0
    1.9935    1.8171    2.3009 C   0  0  0  0  0  0  0  0  0  0  0  0
   -0.4288    1.9671    2.5766 N   0  0  2  0  0  0  0  0  0  0  0  0
   -1.6124    2.8225    2.8572 C   0  0  0  0  0  0  0  0  0  0  0  0
    3.9973   -0.1129    1.1779 N   0  0  0  0  0  0  0  0  0  0  0  0
    6.2379   -2.3561    0.0160 H   0  0  0  0  0  0  0  0  0  0  0  0
    6.6654   -0.8527    0.8565 H   0  0  0  0  0  0  0  0  0  0  0  0
    5.8958   -0.7970   -0.7576 H   0  0  0  0  0  0  0  0  0  0  0  0
    0.4553   -1.2882    2.6469 H   0  0  0  0  0  0  0  0  0  0  0  0
   -1.4385    0.1587    3.1257 H   0  0  0  0  0  0  0  0  0  0  0  0
   -1.0122    1.2592    5.2526 H   0  0  0  0  0  0  0  0  0  0  0  0
    0.3204    0.1206    5.2343 H   0  0  0  0  0  0  0  0  0  0  0  0
    0.4782    3.0058    5.1607 H   0  0  0  0  0  0  0  0  0  0  0  0
    1.8478    1.9305    4.9420 H   0  0  0  0  0  0  0  0  0  0  0  0
    0.9146    3.6013    2.8988 H   0  0  0  0  0  0  0  0  0  0  0  0
    2.9501    2.0393    2.7786 H   0  0  0  0  0  0  0  0  0  0  0  0
    2.0516    2.1975    1.2845 H   0  0  0  0  0  0  0  0  0  0  0  0
   -1.5073    3.7929    2.3762 H   0  0  0  0  0  0  0  0  0  0  0  0
   -1.7503    3.0267    3.9209 H   0  0  0  0  0  0  0  0  0  0  0  0
   -2.5291    2.3546    2.4942 H   0  0  0  0  0  0  0  0  0  0  0  0
   -0.3482    1.8475    1.5747 H   0  0  0  0  0  0  0  0  0  0  0  0
  1  2  1  0
  1 16  1  0
  1 17  1  0
  1 18  1  0
  2 15  1  0
  2  3  2  0
  3  4  1  0
  4  5  1  0
  5  6  1  0
  5 15  2  0
  6 12  1  0
  6  7  2  0
  7  8  1  0
  7 19  1  0
  8 13  1  0
  8  9  1  0
  8 20  1  1
  9 10  1  0
  9 21  1  0
  9 22  1  0
 10 11  1  0
 10 23  1  0
 10 24  1  0
 11 12  1  0
 11 13  1  0
 11 25  1  1
 12 26  1  0
 12 27  1  0
 13 14  1  0
 13 31  1  6
 14 28  1  0
 14 29  1  0
 14 30  1  0
M  CHG  1  13   1
M  END
>  <i_m_ct_stereo_status>  (133) 
1

>  <s_m_source_file>  (133) 
/var/tmp/pbs.5076255.sched01/tmprtix0sri/443g93ja_l.sdf

>  <i_m_source_file_index>  (133) 
14

>  <i_lp_mmshare_version>  (133) 
48012

>  <i_f3d_flags>  (133) 
0

>  <s_epik_input>  (133) 
W0NIM11jMW5vYyhuMSlDKD1bQ0hdW0NAQEhdMjMpW0NIMl1bQ0hdKFtDSDJdW0NIMl0yKU4zW0NIM10=

>  <s_epik_cmdline>  (133) 
J2VwaWtfcHl0aG9uJywgJy1waHQnLCAnMi4wJywgJy1waCcsICc3LjAnLCAnLXRuJywgJzgnLCAnLW1hJywgJzIwMCcsICctaW1hZScsICc8aW5maWxlLm1hZT4nLCAnLW9tYWUnLCAnPG91dGZpbGUubWFlPic=

>  <r_epik_Ionization_Penalty>  (133) 
0.312481

>  <r_epik_Ionization_Penalty_Charging>  (133) 
0.312481

>  <r_epik_Ionization_Penalty_Neutral>  (133) 
2.09835e-13

>  <r_epik_State_Penalty>  (133) 
0.306586

>  <r_epik_Charging_Adjusted_Penalty>  (133) 
0.619067

>  <i_epik_Tot_Q>  (133) 
1

>  <i_epik_Tot_abs_Q>  (133) 
1

>  <s_lp_Force_Field>  (133) 
OPLS3e

>  <r_lp_Energy>  (133) 
23.961

>  <b_lp_Chiralities_Consistent>  (133) 
1

>  <s_lp_Variant>  (133) 
44:0-1

>  <s_i_glide_gridfile>  (133) 
pfpi4k_grid

>  <i_i_glide_lignum>  (133) 
14

>  <i_i_glide_rotatable_bonds>  (133) 
1

>  <r_i_docking_score>  (133) 
-3.11957

>  <r_i_glide_ligand_efficiency>  (133) 
-0.207971

>  <r_i_glide_ligand_efficiency_sa>  (133) 
-0.512901

>  <r_i_glide_ligand_efficiency_ln>  (133) 
-0.841296

>  <r_i_glide_gscore>  (133) 
-3.11957

>  <r_i_glide_lipo>  (133) 
-0.0574693

>  <r_i_glide_hbond>  (133) 
0

>  <r_i_glide_metal>  (133) 
-0

>  <r_i_glide_rewards>  (133) 
-2.02702

>  <r_i_glide_evdw>  (133) 
-15.5867

>  <r_i_glide_ecoul>  (133) 
-3.49634

>  <r_i_glide_erotb>  (133) 
0.387834

>  <r_i_glide_esite>  (133) 
-0.119134

>  <r_i_glide_emodel>  (133) 
-24.4006

>  <r_i_glide_energy>  (133) 
-19.083

>  <r_i_glide_einternal>  (133) 
0.0750095

>  <r_i_glide_intrahb_reward>  (133) 
-0

>  <i_i_glide_confnum>  (133) 
2

>  <i_i_glide_posenum>  (133) 
2

>  <r_i_glide_eff_state_penalty>  (133) 
0

>  <ligand_id>  (133) 
44

>  <original_smiles>  (133) 
Cc1noc(C2=CC3CCC(C2)N3C)n1

>  <smiles>  (133) 
[H]C1=C(c2nc(C([H])([H])[H])no2)C([H])([H])C2([H])C([H])([H])C([H])([H])C1([H])[N+]2([H])C([H])([H])[H]

$$$$
44:1:0
     RDKit          3D

 30 32  0  0  1  0  0  0  0  0999 V2000
    2.7476   -6.8748    3.1280 C   0  0  0  0  0  0  0  0  0  0  0  0
    2.4508   -6.1700    1.8581 C   0  0  0  0  0  0  0  0  0  0  0  0
    1.3316   -6.4022    1.1830 N   0  0  0  0  0  0  0  0  0  0  0  0
    1.4565   -5.5619    0.0683 O   0  0  0  0  0  0  0  0  0  0  0  0
    2.6198   -4.8815    0.2426 C   0  0  0  0  0  0  0  0  0  0  0  0
    3.0185   -3.8596   -0.7206 C   0  0  0  0  0  0  0  0  0  0  0  0
    4.2133   -3.2367   -0.6472 C   0  0  0  0  0  0  0  0  0  0  0  0
    4.6319   -2.1952   -1.6765 C   0  0  1  0  0  0  0  0  0  0  0  0
    5.1574   -2.9270   -2.9196 C   0  0  0  0  0  0  0  0  0  0  0  0
    3.8855   -3.2486   -3.7102 C   0  0  0  0  0  0  0  0  0  0  0  0
    2.7487   -2.5592   -2.9224 C   0  0  1  0  0  0  0  0  0  0  0  0
    2.0761   -3.4728   -1.8653 C   0  0  0  0  0  0  0  0  0  0  0  0
    3.4409   -1.5057   -2.1820 N   0  0  0  0  0  0  0  0  0  0  0  0
    3.7360   -0.3402   -3.0073 C   0  0  0  0  0  0  0  0  0  0  0  0
    3.2952   -5.2405    1.3304 N   0  0  0  0  0  0  0  0  0  0  0  0
    1.8741   -7.4091    3.4921 H   0  0  0  0  0  0  0  0  0  0  0  0
    3.0598   -6.1554    3.8811 H   0  0  0  0  0  0  0  0  0  0  0  0
    3.5442   -7.5970    2.9749 H   0  0  0  0  0  0  0  0  0  0  0  0
    4.9283   -3.4809    0.1266 H   0  0  0  0  0  0  0  0  0  0  0  0
    5.3471   -1.4993   -1.2353 H   0  0  0  0  0  0  0  0  0  0  0  0
    5.7949   -2.2697   -3.5005 H   0  0  0  0  0  0  0  0  0  0  0  0
    5.7436   -3.8157   -2.6783 H   0  0  0  0  0  0  0  0  0  0  0  0
    3.9453   -2.8444   -4.7194 H   0  0  0  0  0  0  0  0  0  0  0  0
    3.7349   -4.3200   -3.8105 H   0  0  0  0  0  0  0  0  0  0  0  0
    1.9820   -2.1727   -3.5948 H   0  0  0  0  0  0  0  0  0  0  0  0
    1.7228   -4.3568   -2.3784 H   0  0  0  0  0  0  0  0  0  0  0  0
    1.1708   -3.0548   -1.4462 H   0  0  0  0  0  0  0  0  0  0  0  0
    4.3379   -0.5688   -3.8885 H   0  0  0  0  0  0  0  0  0  0  0  0
    4.2661    0.3986   -2.4069 H   0  0  0  0  0  0  0  0  0  0  0  0
    2.7979    0.1081   -3.3390 H   0  0  0  0  0  0  0  0  0  0  0  0
  1  2  1  0
  1 16  1  0
  1 17  1  0
  1 18  1  0
  2 15  1  0
  2  3  2  0
  3  4  1  0
  4  5  1  0
  5  6  1  0
  5 15  2  0
  6 12  1  0
  6  7  2  0
  7  8  1  0
  7 19  1  0
  8 13  1  0
  8  9  1  0
  8 20  1  1
  9 10  1  0
  9 21  1  0
  9 22  1  0
 10 11  1  0
 10 23  1  0
 10 24  1  0
 11 12  1  0
 11 13  1  0
 11 25  1  6
 12 26  1  0
 12 27  1  0
 13 14  1  0
 14 28  1  0
 14 29  1  0
 14 30  1  0
M  END
>  <i_m_ct_stereo_status>  (134) 
1

>  <s_m_source_file>  (134) 
/var/tmp/pbs.5076255.sched01/tmprtix0sri/443g93ja_l.sdf

>  <i_m_source_file_index>  (134) 
15

>  <i_lp_mmshare_version>  (134) 
48012

>  <i_f3d_flags>  (134) 
0

>  <s_epik_input>  (134) 
W0NIM11jMW5vYyhuMSlDKD1bQ0hdW0NAQEhdMjMpW0NIMl1bQ0hdKFtDSDJdW0NIMl0yKU4zW0NIM10=

>  <s_epik_cmdline>  (134) 
J2VwaWtfcHl0aG9uJywgJy1waHQnLCAnMi4wJywgJy1waCcsICc3LjAnLCAnLXRuJywgJzgnLCAnLW1hJywgJzIwMCcsICctaW1hZScsICc8aW5maWxlLm1hZT4nLCAnLW9tYWUnLCAnPG91dGZpbGUubWFlPic=

>  <r_epik_Ionization_Penalty>  (134) 
0.528452

>  <r_epik_Ionization_Penalty_Charging>  (134) 
0

>  <r_epik_Ionization_Penalty_Neutral>  (134) 
0.528452

>  <r_epik_State_Penalty>  (134) 
0.537044

>  <r_epik_Charging_Adjusted_Penalty>  (134) 
0.537044

>  <i_epik_Tot_Q>  (134) 
0

>  <i_epik_Tot_abs_Q>  (134) 
0

>  <s_lp_Force_Field>  (134) 
OPLS3e

>  <r_lp_Energy>  (134) 
22.2613

>  <b_lp_Chiralities_Consistent>  (134) 
1

>  <s_lp_Variant>  (134) 
44:0-2

>  <s_i_glide_gridfile>  (134) 
pfpi4k_grid

>  <i_i_glide_lignum>  (134) 
15

>  <i_i_glide_rotatable_bonds>  (134) 
1

>  <r_i_docking_score>  (134) 
-3.68183

>  <r_i_glide_ligand_efficiency>  (134) 
-0.245455

>  <r_i_glide_ligand_efficiency_sa>  (134) 
-0.605344

>  <r_i_glide_ligand_efficiency_ln>  (134) 
-0.992928

>  <r_i_glide_gscore>  (134) 
-3.68183

>  <r_i_glide_lipo>  (134) 
-0.680647

>  <r_i_glide_hbond>  (134) 
0

>  <r_i_glide_metal>  (134) 
-0

>  <r_i_glide_rewards>  (134) 
-2.00962

>  <r_i_glide_evdw>  (134) 
-17.0709

>  <r_i_glide_ecoul>  (134) 
-2.32241

>  <r_i_glide_erotb>  (134) 
0.391025

>  <r_i_glide_esite>  (134) 
-0.180681

>  <r_i_glide_emodel>  (134) 
-24.1136

>  <r_i_glide_energy>  (134) 
-19.3933

>  <r_i_glide_einternal>  (134) 
0.0463107

>  <r_i_glide_intrahb_reward>  (134) 
-0

>  <i_i_glide_confnum>  (134) 
3

>  <i_i_glide_posenum>  (134) 
29

>  <r_i_glide_eff_state_penalty>  (134) 
0

>  <ligand_id>  (134) 
44

>  <original_smiles>  (134) 
Cc1noc(C2=CC3CCC(C2)N3C)n1

>  <smiles>  (134) 
[H]C1=C(c2nc(C([H])([H])[H])no2)C([H])([H])C2([H])N(C([H])([H])[H])C1([H])C([H])([H])C2([H])[H]

$$$$
44:1:1
     RDKit          3D

 30 32  0  0  1  0  0  0  0  0999 V2000
   -1.0039   -4.4819    9.6942 C   0  0  0  0  0  0  0  0  0  0  0  0
   -0.5976   -4.3860    8.2657 C   0  0  0  0  0  0  0  0  0  0  0  0
   -0.2304   -3.2346    7.7170 N   0  0  0  0  0  0  0  0  0  0  0  0
    0.0958   -3.5977    6.3985 O   0  0  0  0  0  0  0  0  0  0  0  0
   -0.1499   -4.9303    6.3172 C   0  0  0  0  0  0  0  0  0  0  0  0
    0.0895   -5.6692    5.0798 C   0  0  0  0  0  0  0  0  0  0  0  0
    0.9013   -5.1855    4.1209 C   0  0  0  0  0  0  0  0  0  0  0  0
    1.1135   -5.9268    2.8092 C   0  0  1  0  0  0  0  0  0  0  0  0
    2.1468   -7.0354    3.0467 C   0  0  0  0  0  0  0  0  0  0  0  0
    1.3038   -8.1777    3.6178 C   0  0  0  0  0  0  0  0  0  0  0  0
   -0.1557   -7.6830    3.5090 C   0  0  1  0  0  0  0  0  0  0  0  0
   -0.6428   -6.9832    4.8074 C   0  0  0  0  0  0  0  0  0  0  0  0
   -0.1169   -6.6543    2.4629 N   0  0  0  0  0  0  0  0  0  0  0  0
   -0.0688   -7.2291    1.1190 C   0  0  0  0  0  0  0  0  0  0  0  0
   -0.5890   -5.4711    7.4470 N   0  0  0  0  0  0  0  0  0  0  0  0
   -0.7295   -3.5793   10.2370 H   0  0  0  0  0  0  0  0  0  0  0  0
   -0.5086   -5.3341   10.1591 H   0  0  0  0  0  0  0  0  0  0  0  0
   -2.0818   -4.6169    9.7669 H   0  0  0  0  0  0  0  0  0  0  0  0
    1.4364   -4.2579    4.2558 H   0  0  0  0  0  0  0  0  0  0  0  0
    1.4123   -5.2223    2.0339 H   0  0  0  0  0  0  0  0  0  0  0  0
    2.6193   -7.3356    2.1119 H   0  0  0  0  0  0  0  0  0  0  0  0
    2.9453   -6.7270    3.7231 H   0  0  0  0  0  0  0  0  0  0  0  0
    1.4503   -9.0845    3.0315 H   0  0  0  0  0  0  0  0  0  0  0  0
    1.5779   -8.4121    4.6469 H   0  0  0  0  0  0  0  0  0  0  0  0
   -0.8354   -8.5012    3.2581 H   0  0  0  0  0  0  0  0  0  0  0  0
   -0.5036   -7.6541    5.6551 H   0  0  0  0  0  0  0  0  0  0  0  0
   -1.7115   -6.7766    4.7442 H   0  0  0  0  0  0  0  0  0  0  0  0
    0.7721   -7.9077    0.9723 H   0  0  0  0  0  0  0  0  0  0  0  0
    0.0120   -6.4372    0.3744 H   0  0  0  0  0  0  0  0  0  0  0  0
   -0.9809   -7.7912    0.9135 H   0  0  0  0  0  0  0  0  0  0  0  0
  1  2  1  0
  1 16  1  0
  1 17  1  0
  1 18  1  0
  2 15  1  0
  2  3  2  0
  3  4  1  0
  4  5  1  0
  5  6  1  0
  5 15  2  0
  6 12  1  0
  6  7  2  0
  7  8  1  0
  7 19  1  0
  8 13  1  0
  8  9  1  0
  8 20  1  6
  9 10  1  0
  9 21  1  0
  9 22  1  0
 10 11  1  0
 10 23  1  0
 10 24  1  0
 11 12  1  0
 11 13  1  0
 11 25  1  6
 12 26  1  0
 12 27  1  0
 13 14  1  0
 14 28  1  0
 14 29  1  0
 14 30  1  0
M  END
>  <i_m_ct_stereo_status>  (135) 
1

>  <s_m_source_file>  (135) 
/var/tmp/pbs.5076255.sched01/tmprtix0sri/443g93ja_l.sdf

>  <i_m_source_file_index>  (135) 
15

>  <i_lp_mmshare_version>  (135) 
48012

>  <i_f3d_flags>  (135) 
0

>  <s_epik_input>  (135) 
W0NIM11jMW5vYyhuMSlDKD1bQ0hdW0NAQEhdMjMpW0NIMl1bQ0hdKFtDSDJdW0NIMl0yKU4zW0NIM10=

>  <s_epik_cmdline>  (135) 
J2VwaWtfcHl0aG9uJywgJy1waHQnLCAnMi4wJywgJy1waCcsICc3LjAnLCAnLXRuJywgJzgnLCAnLW1hJywgJzIwMCcsICctaW1hZScsICc8aW5maWxlLm1hZT4nLCAnLW9tYWUnLCAnPG91dGZpbGUubWFlPic=

>  <r_epik_Ionization_Penalty>  (135) 
0.528452

>  <r_epik_Ionization_Penalty_Charging>  (135) 
0

>  <r_epik_Ionization_Penalty_Neutral>  (135) 
0.528452

>  <r_epik_State_Penalty>  (135) 
0.537044

>  <r_epik_Charging_Adjusted_Penalty>  (135) 
0.537044

>  <i_epik_Tot_Q>  (135) 
0

>  <i_epik_Tot_abs_Q>  (135) 
0

>  <s_lp_Force_Field>  (135) 
OPLS3e

>  <r_lp_Energy>  (135) 
22.2613

>  <b_lp_Chiralities_Consistent>  (135) 
1

>  <s_lp_Variant>  (135) 
44:0-2

>  <s_i_glide_gridfile>  (135) 
pfpi4k_grid

>  <i_i_glide_lignum>  (135) 
15

>  <i_i_glide_rotatable_bonds>  (135) 
1

>  <r_i_docking_score>  (135) 
-3.1471

>  <r_i_glide_ligand_efficiency>  (135) 
-0.209806

>  <r_i_glide_ligand_efficiency_sa>  (135) 
-0.517427

>  <r_i_glide_ligand_efficiency_ln>  (135) 
-0.84872

>  <r_i_glide_gscore>  (135) 
-3.1471

>  <r_i_glide_lipo>  (135) 
-0.00182278

>  <r_i_glide_hbond>  (135) 
-0.16

>  <r_i_glide_metal>  (135) 
-0

>  <r_i_glide_rewards>  (135) 
-2.00962

>  <r_i_glide_evdw>  (135) 
-13.9925

>  <r_i_glide_ecoul>  (135) 
-3.94528

>  <r_i_glide_erotb>  (135) 
0.391025

>  <r_i_glide_esite>  (135) 
-0.0752654

>  <r_i_glide_emodel>  (135) 
-21.6086

>  <r_i_glide_energy>  (135) 
-17.9378

>  <r_i_glide_einternal>  (135) 
0.695253

>  <r_i_glide_intrahb_reward>  (135) 
-0

>  <i_i_glide_confnum>  (135) 
3

>  <i_i_glide_posenum>  (135) 
20

>  <r_i_glide_eff_state_penalty>  (135) 
0

>  <ligand_id>  (135) 
44

>  <original_smiles>  (135) 
Cc1noc(C2=CC3CCC(C2)N3C)n1

>  <smiles>  (135) 
[H]C1=C(c2nc(C([H])([H])[H])no2)C([H])([H])C2([H])N(C([H])([H])[H])C1([H])C([H])([H])C2([H])[H]

$$$$
44:1:2
     RDKit          3D

 30 32  0  0  1  0  0  0  0  0999 V2000
    0.0836    1.7075    1.8640 C   0  0  0  0  0  0  0  0  0  0  0  0
   -0.7282    2.1625    3.0214 C   0  0  0  0  0  0  0  0  0  0  0  0
   -1.9443    2.6726    2.8661 N   0  0  0  0  0  0  0  0  0  0  0  0
   -2.3588    2.9426    4.1744 O   0  0  0  0  0  0  0  0  0  0  0  0
   -1.3284    2.5539    4.9612 C   0  0  0  0  0  0  0  0  0  0  0  0
   -1.4296    2.7174    6.4044 C   0  0  0  0  0  0  0  0  0  0  0  0
   -0.3514    2.6307    7.2088 C   0  0  0  0  0  0  0  0  0  0  0  0
   -0.4769    2.7738    8.7203 C   0  0  1  0  0  0  0  0  0  0  0  0
   -0.5501    4.2675    9.0645 C   0  0  0  0  0  0  0  0  0  0  0  0
   -2.0289    4.6056    8.8598 C   0  0  0  0  0  0  0  0  0  0  0  0
   -2.7037    3.2501    8.5633 C   0  0  1  0  0  0  0  0  0  0  0  0
   -2.7975    2.9348    7.0502 C   0  0  0  0  0  0  0  0  0  0  0  0
   -1.7882    2.2620    9.1357 N   0  0  0  0  0  0  0  0  0  0  0  0
   -1.9205    2.1594   10.5888 C   0  0  0  0  0  0  0  0  0  0  0  0
   -0.2795    2.0681    4.3010 N   0  0  0  0  0  0  0  0  0  0  0  0
   -0.5148    1.6649    0.9565 H   0  0  0  0  0  0  0  0  0  0  0  0
    0.4928    0.7157    2.0573 H   0  0  0  0  0  0  0  0  0  0  0  0
    0.9081    2.3966    1.6849 H   0  0  0  0  0  0  0  0  0  0  0  0
    0.6408    2.4719    6.8063 H   0  0  0  0  0  0  0  0  0  0  0  0
    0.3404    2.2500    9.2142 H   0  0  0  0  0  0  0  0  0  0  0  0
   -0.2604    4.4398   10.1010 H   0  0  0  0  0  0  0  0  0  0  0  0
    0.1091    4.8717    8.4409 H   0  0  0  0  0  0  0  0  0  0  0  0
   -2.4454    5.0572    9.7599 H   0  0  0  0  0  0  0  0  0  0  0  0
   -2.1688    5.3202    8.0539 H   0  0  0  0  0  0  0  0  0  0  0  0
   -3.6978    3.1915    9.0073 H   0  0  0  0  0  0  0  0  0  0  0  0
   -3.3068    3.7457    6.5326 H   0  0  0  0  0  0  0  0  0  0  0  0
   -3.3864    2.0329    6.8918 H   0  0  0  0  0  0  0  0  0  0  0  0
   -1.7789    3.1086   11.1044 H   0  0  0  0  0  0  0  0  0  0  0  0
   -1.1962    1.4480   10.9879 H   0  0  0  0  0  0  0  0  0  0  0  0
   -2.9154    1.8013   10.8559 H   0  0  0  0  0  0  0  0  0  0  0  0
  1  2  1  0
  1 16  1  0
  1 17  1  0
  1 18  1  0
  2 15  1  0
  2  3  2  0
  3  4  1  0
  4  5  1  0
  5  6  1  0
  5 15  2  0
  6 12  1  0
  6  7  2  0
  7  8  1  0
  7 19  1  0
  8 13  1  0
  8  9  1  0
  8 20  1  1
  9 10  1  0
  9 21  1  0
  9 22  1  0
 10 11  1  0
 10 23  1  0
 10 24  1  0
 11 12  1  0
 11 13  1  0
 11 25  1  1
 12 26  1  0
 12 27  1  0
 13 14  1  0
 14 28  1  0
 14 29  1  0
 14 30  1  0
M  END
>  <i_m_ct_stereo_status>  (136) 
1

>  <s_m_source_file>  (136) 
/var/tmp/pbs.5076255.sched01/tmprtix0sri/443g93ja_l.sdf

>  <i_m_source_file_index>  (136) 
15

>  <i_lp_mmshare_version>  (136) 
48012

>  <i_f3d_flags>  (136) 
0

>  <s_epik_input>  (136) 
W0NIM11jMW5vYyhuMSlDKD1bQ0hdW0NAQEhdMjMpW0NIMl1bQ0hdKFtDSDJdW0NIMl0yKU4zW0NIM10=

>  <s_epik_cmdline>  (136) 
J2VwaWtfcHl0aG9uJywgJy1waHQnLCAnMi4wJywgJy1waCcsICc3LjAnLCAnLXRuJywgJzgnLCAnLW1hJywgJzIwMCcsICctaW1hZScsICc8aW5maWxlLm1hZT4nLCAnLW9tYWUnLCAnPG91dGZpbGUubWFlPic=

>  <r_epik_Ionization_Penalty>  (136) 
0.528452

>  <r_epik_Ionization_Penalty_Charging>  (136) 
0

>  <r_epik_Ionization_Penalty_Neutral>  (136) 
0.528452

>  <r_epik_State_Penalty>  (136) 
0.537044

>  <r_epik_Charging_Adjusted_Penalty>  (136) 
0.537044

>  <i_epik_Tot_Q>  (136) 
0

>  <i_epik_Tot_abs_Q>  (136) 
0

>  <s_lp_Force_Field>  (136) 
OPLS3e

>  <r_lp_Energy>  (136) 
22.2613

>  <b_lp_Chiralities_Consistent>  (136) 
1

>  <s_lp_Variant>  (136) 
44:0-2

>  <s_i_glide_gridfile>  (136) 
pfpi4k_grid

>  <i_i_glide_lignum>  (136) 
15

>  <i_i_glide_rotatable_bonds>  (136) 
1

>  <r_i_docking_score>  (136) 
-3.07603

>  <r_i_glide_ligand_efficiency>  (136) 
-0.205068

>  <r_i_glide_ligand_efficiency_sa>  (136) 
-0.505742

>  <r_i_glide_ligand_efficiency_ln>  (136) 
-0.829553

>  <r_i_glide_gscore>  (136) 
-3.07603

>  <r_i_glide_lipo>  (136) 
-0.265539

>  <r_i_glide_hbond>  (136) 
0

>  <r_i_glide_metal>  (136) 
-0

>  <r_i_glide_rewards>  (136) 
-2.00962

>  <r_i_glide_evdw>  (136) 
-15.5051

>  <r_i_glide_ecoul>  (136) 
-1.82516

>  <r_i_glide_erotb>  (136) 
0.391025

>  <r_i_glide_esite>  (136) 
-0.142864

>  <r_i_glide_emodel>  (136) 
-21.1069

>  <r_i_glide_energy>  (136) 
-17.3303

>  <r_i_glide_einternal>  (136) 
0.342142

>  <r_i_glide_intrahb_reward>  (136) 
-0

>  <i_i_glide_confnum>  (136) 
1

>  <i_i_glide_posenum>  (136) 
2

>  <r_i_glide_eff_state_penalty>  (136) 
0

>  <ligand_id>  (136) 
44

>  <original_smiles>  (136) 
Cc1noc(C2=CC3CCC(C2)N3C)n1

>  <smiles>  (136) 
[H]C1=C(c2nc(C([H])([H])[H])no2)C([H])([H])C2([H])N(C([H])([H])[H])C1([H])C([H])([H])C2([H])[H]

$$$$
46:0:0
     RDKit          3D

 87 92  0  0  1  0  0  0  0  0999 V2000
    6.8665   -1.3591    0.8921 C   0  0  0  0  0  0  0  0  0  0  0  0
    6.0618   -2.3622    1.2872 C   0  0  0  0  0  0  0  0  0  0  0  0
    6.4699   -3.8052    1.0532 C   0  0  0  0  0  0  0  0  0  0  0  0
    4.7044   -2.1760    1.9838 C   0  0  2  0  0  0  0  0  0  0  0  0
    4.1470   -0.7351    1.9878 C   0  0  0  0  0  0  0  0  0  0  0  0
    4.3921   -0.2072    3.4026 C   0  0  1  0  0  0  0  0  0  0  0  0
    3.5580    0.8962    3.6939 O   0  0  0  0  0  0  0  0  0  0  0  0
    4.2305   -1.4095    4.3684 C   0  0  1  0  0  0  0  0  0  0  0  0
    5.1277   -1.1668    5.6042 C   0  0  0  0  0  0  0  0  0  0  0  0
    2.7643   -1.6063    4.8555 C   0  0  0  0  0  0  0  0  0  0  0  0
    2.3595   -3.0542    5.2372 C   0  0  0  0  0  0  0  0  0  0  0  0
    2.6449   -4.1337    4.1383 C   0  0  1  0  0  0  0  0  0  0  0  0
    1.9670   -3.6024    2.8444 C   0  0  0  0  0  0  0  0  0  0  0  0
    4.2296   -4.0357    3.8927 C   0  0  2  0  0  0  0  0  0  0  0  0
    5.1631   -4.5192    5.0606 C   0  0  0  0  0  0  0  0  0  0  0  0
    5.8711   -5.8594    4.8488 C   0  0  0  0  0  0  0  0  0  0  0  0
    4.9635   -6.9843    4.3666 C   0  0  0  0  0  0  0  0  0  0  0  0
    3.7894   -7.3156    5.3099 C   0  0  2  0  0  0  0  0  0  0  0  0
    2.9225   -8.5032    4.8845 C   0  0  1  0  0  0  0  0  0  0  0  0
    2.1509   -8.6762    6.2108 C   0  0  0  0  0  0  0  0  0  0  0  0
    1.7958   -7.2457    6.6235 C   0  0  1  0  0  0  0  0  0  0  0  0
    2.0497   -7.0514    8.0020 O   0  0  0  0  0  0  0  0  0  0  0  0
    2.6805   -6.3075    5.7262 C   0  0  2  0  0  0  0  0  0  0  0  0
    1.9593   -5.5976    4.5019 C   0  0  1  0  0  0  0  0  0  0  0  0
    0.4731   -5.3417    4.9215 C   0  0  0  0  0  0  0  0  0  0  0  0
    1.9038   -6.6435    3.2805 C   0  0  2  0  0  0  0  0  0  0  0  0
    0.8635   -6.3700    2.1447 C   0  0  0  0  0  0  0  0  0  0  0  0
   -0.2179   -7.3908    1.9353 C   0  0  0  0  0  0  0  0  0  0  0  0
   -0.3495   -8.5305    2.6186 C   0  0  0  0  0  0  0  0  0  0  0  0
   -1.5341   -9.4419    2.3612 C   0  0  0  0  0  0  0  0  0  0  0  0
    0.6502   -8.9392    3.6954 C   0  0  1  0  0  0  0  0  0  0  0  0
    0.7750  -10.4845    3.7977 C   0  0  0  0  0  0  0  0  0  0  0  0
    2.0471   -8.2068    3.5910 C   0  0  2  0  0  0  0  0  0  0  0  0
    2.7906   -8.8232    2.3651 C   0  0  0  0  0  0  0  0  0  0  0  0
    4.7452   -2.5937    3.4912 C   0  0  1  0  0  0  0  0  0  0  0  0
    7.8130   -1.5719    0.4146 H   0  0  0  0  0  0  0  0  0  0  0  0
    6.6161   -0.3200    1.0390 H   0  0  0  0  0  0  0  0  0  0  0  0
    6.5819   -4.3365    1.9990 H   0  0  0  0  0  0  0  0  0  0  0  0
    7.4225   -3.8664    0.5256 H   0  0  0  0  0  0  0  0  0  0  0  0
    5.7204   -4.3212    0.4518 H   0  0  0  0  0  0  0  0  0  0  0  0
    4.0292   -2.8003    1.4061 H   0  0  0  0  0  0  0  0  0  0  0  0
    4.5437   -0.0735    1.2189 H   0  0  0  0  0  0  0  0  0  0  0  0
    3.0754   -0.7578    1.7908 H   0  0  0  0  0  0  0  0  0  0  0  0
    5.4222    0.1474    3.4405 H   0  0  0  0  0  0  0  0  0  0  0  0
    3.7904    1.6133    3.1173 H   0  0  0  0  0  0  0  0  0  0  0  0
    5.0573   -1.9749    6.3277 H   0  0  0  0  0  0  0  0  0  0  0  0
    4.8524   -0.2470    6.1175 H   0  0  0  0  0  0  0  0  0  0  0  0
    6.1754   -1.0580    5.3304 H   0  0  0  0  0  0  0  0  0  0  0  0
    2.5990   -0.9827    5.7335 H   0  0  0  0  0  0  0  0  0  0  0  0
    2.0571   -1.2053    4.1309 H   0  0  0  0  0  0  0  0  0  0  0  0
    2.8448   -3.3149    6.1743 H   0  0  0  0  0  0  0  0  0  0  0  0
    1.3026   -3.0129    5.4880 H   0  0  0  0  0  0  0  0  0  0  0  0
    2.2302   -4.1964    1.9722 H   0  0  0  0  0  0  0  0  0  0  0  0
    2.2486   -2.5983    2.5812 H   0  0  0  0  0  0  0  0  0  0  0  0
    0.8897   -3.5072    2.9107 H   0  0  0  0  0  0  0  0  0  0  0  0
    4.4496   -4.6540    3.0246 H   0  0  0  0  0  0  0  0  0  0  0  0
    5.9869   -3.8329    5.2370 H   0  0  0  0  0  0  0  0  0  0  0  0
    4.6839   -4.4834    6.0286 H   0  0  0  0  0  0  0  0  0  0  0  0
    6.6710   -5.7296    4.1160 H   0  0  0  0  0  0  0  0  0  0  0  0
    6.3643   -6.1578    5.7757 H   0  0  0  0  0  0  0  0  0  0  0  0
    4.6817   -6.7888    3.3427 H   0  0  0  0  0  0  0  0  0  0  0  0
    5.5779   -7.8841    4.2925 H   0  0  0  0  0  0  0  0  0  0  0  0
    4.3094   -7.5942    6.2297 H   0  0  0  0  0  0  0  0  0  0  0  0
    3.5346   -9.3938    4.7248 H   0  0  0  0  0  0  0  0  0  0  0  0
    1.2911   -9.3427    6.1993 H   0  0  0  0  0  0  0  0  0  0  0  0
    2.8227   -9.1259    6.9442 H   0  0  0  0  0  0  0  0  0  0  0  0
    0.7229   -7.1317    6.5299 H   0  0  0  0  0  0  0  0  0  0  0  0
    2.9465   -7.2921    8.1771 H   0  0  0  0  0  0  0  0  0  0  0  0
    3.0380   -5.5485    6.4088 H   0  0  0  0  0  0  0  0  0  0  0  0
   -0.1341   -6.2405    4.8321 H   0  0  0  0  0  0  0  0  0  0  0  0
   -0.0546   -4.6061    4.3284 H   0  0  0  0  0  0  0  0  0  0  0  0
    0.3945   -4.9898    5.9501 H   0  0  0  0  0  0  0  0  0  0  0  0
    2.8104   -6.3762    2.7504 H   0  0  0  0  0  0  0  0  0  0  0  0
    0.3212   -5.4555    2.3080 H   0  0  0  0  0  0  0  0  0  0  0  0
    1.3813   -6.2725    1.1899 H   0  0  0  0  0  0  0  0  0  0  0  0
   -0.9505   -7.1544    1.1802 H   0  0  0  0  0  0  0  0  0  0  0  0
   -2.0665   -9.6722    3.2785 H   0  0  0  0  0  0  0  0  0  0  0  0
   -1.2002  -10.3755    1.9082 H   0  0  0  0  0  0  0  0  0  0  0  0
   -2.2513   -8.9871    1.6777 H   0  0  0  0  0  0  0  0  0  0  0  0
    0.1394   -8.5963    4.5925 H   0  0  0  0  0  0  0  0  0  0  0  0
   -0.1460  -10.9190    4.1831 H   0  0  0  0  0  0  0  0  0  0  0  0
    1.5664  -10.8039    4.4738 H   0  0  0  0  0  0  0  0  0  0  0  0
    0.9725  -10.9493    2.8323 H   0  0  0  0  0  0  0  0  0  0  0  0
    2.1987   -8.7442    1.4532 H   0  0  0  0  0  0  0  0  0  0  0  0
    3.0175   -9.8801    2.5015 H   0  0  0  0  0  0  0  0  0  0  0  0
    3.7414   -8.3373    2.1584 H   0  0  0  0  0  0  0  0  0  0  0  0
    5.8173   -2.5893    3.6574 H   0  0  0  0  0  0  0  0  0  0  0  0
  1  2  2  0
  1 36  1  0
  1 37  1  0
  2  3  1  0
  2  4  1  0
  3 38  1  0
  3 39  1  0
  3 40  1  0
  4 35  1  0
  4  5  1  0
  4 41  1  6
  5  6  1  0
  5 42  1  0
  5 43  1  0
  6  7  1  0
  6  8  1  0
  6 44  1  6
  7 45  1  0
  8 35  1  0
  8  9  1  1
  8 10  1  0
  9 46  1  0
  9 47  1  0
  9 48  1  0
 10 11  1  0
 10 49  1  0
 10 50  1  0
 11 12  1  0
 11 51  1  0
 11 52  1  0
 12 24  1  0
 12 13  1  6
 12 14  1  0
 13 53  1  0
 13 54  1  0
 13 55  1  0
 14 15  1  0
 14 35  1  0
 14 56  1  6
 15 16  1  0
 15 57  1  0
 15 58  1  0
 16 17  1  0
 16 59  1  0
 16 60  1  0
 17 18  1  0
 17 61  1  0
 17 62  1  0
 18 23  1  0
 18 19  1  0
 18 63  1  1
 19 33  1  0
 19 20  1  0
 19 64  1  6
 20 21  1  0
 20 65  1  0
 20 66  1  0
 21 22  1  0
 21 23  1  0
 21 67  1  1
 22 68  1  0
 23 24  1  0
 23 69  1  1
 24 25  1  1
 24 26  1  0
 25 70  1  0
 25 71  1  0
 25 72  1  0
 26 33  1  0
 26 27  1  0
 26 73  1  6
 27 28  1  0
 27 74  1  0
 27 75  1  0
 28 29  2  0
 28 76  1  0
 29 30  1  0
 29 31  1  0
 30 77  1  0
 30 78  1  0
 30 79  1  0
 31 32  1  0
 31 33  1  0
 31 80  1  1
 32 81  1  0
 32 82  1  0
 32 83  1  0
 33 34  1  6
 34 84  1  0
 34 85  1  0
 34 86  1  0
 35 87  1  1
M  END
>  <i_m_ct_stereo_status>  (137) 
1

>  <s_m_source_file>  (137) 
/var/tmp/pbs.5076255.sched01/tmprtix0sri/443g93ja_l.sdf

>  <i_m_source_file_index>  (137) 
18

>  <i_lp_mmshare_version>  (137) 
48012

>  <i_f3d_flags>  (137) 
0

>  <s_epik_input>  (137) 
W09IXVtDQEBIXTFbQ0gyXVtDQEBIXShDKD1bQ0gyXSlbQ0gzXSlbQ0BASF0oW0NAQF0xMltDSDNdKVtDQEBIXTNbQ0BdKFtDSDNdKShbQ0gyXVtDSDJdMilbQ0BdNChbQ0gzXSlbQ0BASF01W0NASF0oW0NIMl1bQ0gyXVtDSDJdMylbQ0BASF0oW0NIMl1bQ0BIXTVbT0hdKVtDQF02KFtDSDNdKVtDQEhdNFtDSDJdW0NIXT1DKFtDSDNdKVtDQEhdNltDSDNd

>  <s_epik_cmdline>  (137) 
J2VwaWtfcHl0aG9uJywgJy1waHQnLCAnMi4wJywgJy1waCcsICc3LjAnLCAnLXRuJywgJzgnLCAnLW1hJywgJzIwMCcsICctaW1hZScsICc8aW5maWxlLm1hZT4nLCAnLW9tYWUnLCAnPG91dGZpbGUubWFlPic=

>  <r_lp_tautomer_probability>  (137) 
1

>  <r_epik_Ionization_Penalty>  (137) 
4.82029e-06

>  <r_epik_Ionization_Penalty_Charging>  (137) 
0

>  <r_epik_Ionization_Penalty_Neutral>  (137) 
4.82029e-06

>  <r_epik_State_Penalty>  (137) 
-0

>  <r_epik_Charging_Adjusted_Penalty>  (137) 
0

>  <i_epik_Tot_Q>  (137) 
0

>  <i_epik_Tot_abs_Q>  (137) 
0

>  <s_lp_Force_Field>  (137) 
OPLS3e

>  <r_lp_Energy>  (137) 
138.445

>  <b_lp_Chiralities_Consistent>  (137) 
1

>  <s_lp_Variant>  (137) 
46:0-1

>  <s_i_glide_gridfile>  (137) 
pfpi4k_grid

>  <i_i_glide_lignum>  (137) 
18

>  <i_i_glide_rotatable_bonds>  (137) 
3

>  <r_i_docking_score>  (137) 
-2.56079

>  <r_i_glide_ligand_efficiency>  (137) 
-0.0731656

>  <r_i_glide_ligand_efficiency_sa>  (137) 
-0.239329

>  <r_i_glide_ligand_efficiency_ln>  (137) 
-0.562151

>  <r_i_glide_gscore>  (137) 
-2.56079

>  <r_i_glide_lipo>  (137) 
-0.703387

>  <r_i_glide_hbond>  (137) 
-0.128651

>  <r_i_glide_metal>  (137) 
-0

>  <r_i_glide_rewards>  (137) 
-0.131149

>  <r_i_glide_evdw>  (137) 
-28.405

>  <r_i_glide_ecoul>  (137) 
-1.76738

>  <r_i_glide_erotb>  (137) 
0.0877472

>  <r_i_glide_esite>  (137) 
0

>  <r_i_glide_emodel>  (137) 
-34.765

>  <r_i_glide_energy>  (137) 
-30.1723

>  <r_i_glide_einternal>  (137) 
0.387626

>  <r_i_glide_intrahb_reward>  (137) 
-0

>  <i_i_glide_confnum>  (137) 
1

>  <i_i_glide_posenum>  (137) 
36

>  <r_i_glide_eff_state_penalty>  (137) 
0

>  <ligand_id>  (137) 
46

>  <original_smiles>  (137) 
C=C(C)C1CC(O)C2(C)CCC3(C)C(CCCC4C5CC(O)C4C3(C)C3CC=C(C)C(C)C53C)C12

>  <smiles>  (137) 
[H]OC1([H])C([H])([H])C2([H])C3([H])C([H])([H])C([H])([H])C([H])([H])C4([H])C5([H])C([H])(C(=C([H])[H])C([H])([H])[H])C([H])([H])C([H])(O[H])C5(C([H])([H])[H])C([H])([H])C([H])([H])C4(C([H])([H])[H])C(C([H])([H])[H])(C13[H])C1([H])C([H])([H])C([H])=C(C([H])([H])[H])C([H])(C([H])([H])[H])C21C([H])([H])[H]

$$$$
46:0:1
     RDKit          3D

 87 92  0  0  1  0  0  0  0  0999 V2000
    0.1415    0.4595    1.7379 C   0  0  0  0  0  0  0  0  0  0  0  0
    0.0808    0.7217    3.0511 C   0  0  0  0  0  0  0  0  0  0  0  0
   -0.0240    2.1565    3.5398 C   0  0  0  0  0  0  0  0  0  0  0  0
    0.1354   -0.3956    4.1033 C   0  0  2  0  0  0  0  0  0  0  0  0
   -0.7956   -0.1657    5.3113 C   0  0  0  0  0  0  0  0  0  0  0  0
    0.1283    0.3025    6.4410 C   0  0  1  0  0  0  0  0  0  0  0  0
   -0.4749    0.1425    7.7085 O   0  0  0  0  0  0  0  0  0  0  0  0
    1.4779   -0.4413    6.2616 C   0  0  1  0  0  0  0  0  0  0  0  0
    2.6110    0.4480    6.8180 C   0  0  0  0  0  0  0  0  0  0  0  0
    1.5119   -1.8136    6.9978 C   0  0  0  0  0  0  0  0  0  0  0  0
    2.4383   -2.8938    6.3877 C   0  0  0  0  0  0  0  0  0  0  0  0
    2.2095   -3.1789    4.8642 C   0  0  1  0  0  0  0  0  0  0  0  0
    0.6883   -3.4879    4.7152 C   0  0  0  0  0  0  0  0  0  0  0  0
    2.4616   -1.7547    4.1575 C   0  0  2  0  0  0  0  0  0  0  0  0
    3.9343   -1.2064    4.1658 C   0  0  0  0  0  0  0  0  0  0  0  0
    4.6825   -1.2638    2.8316 C   0  0  0  0  0  0  0  0  0  0  0  0
    4.5938   -2.6084    2.1176 C   0  0  0  0  0  0  0  0  0  0  0  0
    5.1451   -3.8024    2.9195 C   0  0  2  0  0  0  0  0  0  0  0  0
    5.1581   -5.1432    2.1856 C   0  0  1  0  0  0  0  0  0  0  0  0
    6.0639   -5.9094    3.1731 C   0  0  0  0  0  0  0  0  0  0  0  0
    5.5362   -5.5030    4.5494 C   0  0  1  0  0  0  0  0  0  0  0  0
    6.6240   -5.1770    5.3918 O   0  0  0  0  0  0  0  0  0  0  0  0
    4.6128   -4.2574    4.3089 C   0  0  2  0  0  0  0  0  0  0  0  0
    3.0471   -4.5109    4.3467 C   0  0  1  0  0  0  0  0  0  0  0  0
    2.7835   -5.6715    5.3654 C   0  0  0  0  0  0  0  0  0  0  0  0
    2.6019   -5.0796    2.9116 C   0  0  2  0  0  0  0  0  0  0  0  0
    1.2380   -5.8416    2.8366 C   0  0  0  0  0  0  0  0  0  0  0  0
    1.2660   -7.2859    2.4186 C   0  0  0  0  0  0  0  0  0  0  0  0
    2.3603   -7.9704    2.0808 C   0  0  0  0  0  0  0  0  0  0  0  0
    2.2729   -9.4550    1.7596 C   0  0  0  0  0  0  0  0  0  0  0  0
    3.7375   -7.3152    2.0598 C   0  0  1  0  0  0  0  0  0  0  0  0
    4.6686   -7.9863    1.0139 C   0  0  0  0  0  0  0  0  0  0  0  0
    3.7054   -5.7382    1.9569 C   0  0  2  0  0  0  0  0  0  0  0  0
    3.2843   -5.3877    0.4954 C   0  0  0  0  0  0  0  0  0  0  0  0
    1.5612   -0.5780    4.7090 C   0  0  1  0  0  0  0  0  0  0  0  0
    0.1072    1.2610    1.0100 H   0  0  0  0  0  0  0  0  0  0  0  0
    0.2372   -0.5476    1.3576 H   0  0  0  0  0  0  0  0  0  0  0  0
   -0.9631    2.3358    4.0610 H   0  0  0  0  0  0  0  0  0  0  0  0
    0.0119    2.8534    2.7016 H   0  0  0  0  0  0  0  0  0  0  0  0
    0.8058    2.3928    4.2040 H   0  0  0  0  0  0  0  0  0  0  0  0
   -0.1807   -1.2938    3.5802 H   0  0  0  0  0  0  0  0  0  0  0  0
   -1.6060    0.5379    5.1251 H   0  0  0  0  0  0  0  0  0  0  0  0
   -1.2868   -1.0933    5.5982 H   0  0  0  0  0  0  0  0  0  0  0  0
    0.2870    1.3736    6.3156 H   0  0  0  0  0  0  0  0  0  0  0  0
    0.0973    0.5301    8.3545 H   0  0  0  0  0  0  0  0  0  0  0  0
    3.5846   -0.0298    6.7309 H   0  0  0  0  0  0  0  0  0  0  0  0
    2.4590    0.6739    7.8723 H   0  0  0  0  0  0  0  0  0  0  0  0
    2.6671    1.4048    6.2983 H   0  0  0  0  0  0  0  0  0  0  0  0
    1.8347   -1.6545    8.0261 H   0  0  0  0  0  0  0  0  0  0  0  0
    0.5095   -2.2186    7.1141 H   0  0  0  0  0  0  0  0  0  0  0  0
    3.4704   -2.6181    6.5823 H   0  0  0  0  0  0  0  0  0  0  0  0
    2.2866   -3.7891    6.9857 H   0  0  0  0  0  0  0  0  0  0  0  0
    0.3865   -3.5485    3.6723 H   0  0  0  0  0  0  0  0  0  0  0  0
    0.0447   -2.7386    5.1424 H   0  0  0  0  0  0  0  0  0  0  0  0
    0.3554   -4.3755    5.2436 H   0  0  0  0  0  0  0  0  0  0  0  0
    2.1595   -1.8545    3.1158 H   0  0  0  0  0  0  0  0  0  0  0  0
    3.9772   -0.1500    4.4217 H   0  0  0  0  0  0  0  0  0  0  0  0
    4.5356   -1.6133    4.9659 H   0  0  0  0  0  0  0  0  0  0  0  0
    4.2779   -0.4974    2.1650 H   0  0  0  0  0  0  0  0  0  0  0  0
    5.7287   -0.9952    2.9917 H   0  0  0  0  0  0  0  0  0  0  0  0
    3.5893   -2.7386    1.7445 H   0  0  0  0  0  0  0  0  0  0  0  0
    5.1969   -2.5267    1.2114 H   0  0  0  0  0  0  0  0  0  0  0  0
    6.1845   -3.5068    3.0608 H   0  0  0  0  0  0  0  0  0  0  0  0
    5.6872   -5.0564    1.2353 H   0  0  0  0  0  0  0  0  0  0  0  0
    6.1394   -6.9871    3.0463 H   0  0  0  0  0  0  0  0  0  0  0  0
    7.0886   -5.5540    3.0484 H   0  0  0  0  0  0  0  0  0  0  0  0
    5.0786   -6.3743    5.0072 H   0  0  0  0  0  0  0  0  0  0  0  0
    7.1348   -5.9598    5.5256 H   0  0  0  0  0  0  0  0  0  0  0  0
    4.8825   -3.5765    5.1051 H   0  0  0  0  0  0  0  0  0  0  0  0
    2.9928   -6.6470    4.9276 H   0  0  0  0  0  0  0  0  0  0  0  0
    1.7618   -5.7578    5.7163 H   0  0  0  0  0  0  0  0  0  0  0  0
    3.3935   -5.5748    6.2640 H   0  0  0  0  0  0  0  0  0  0  0  0
    2.3207   -4.1561    2.4185 H   0  0  0  0  0  0  0  0  0  0  0  0
    0.6954   -5.8471    3.7717 H   0  0  0  0  0  0  0  0  0  0  0  0
    0.6056   -5.3463    2.1090 H   0  0  0  0  0  0  0  0  0  0  0  0
    0.3091   -7.7858    2.4257 H   0  0  0  0  0  0  0  0  0  0  0  0
    2.9612  -10.0278    2.3817 H   0  0  0  0  0  0  0  0  0  0  0  0
    2.5085   -9.6466    0.7120 H   0  0  0  0  0  0  0  0  0  0  0  0
    1.2659   -9.8345    1.9418 H   0  0  0  0  0  0  0  0  0  0  0  0
    4.1060   -7.5884    3.0453 H   0  0  0  0  0  0  0  0  0  0  0  0
    4.9178   -9.0059    1.3128 H   0  0  0  0  0  0  0  0  0  0  0  0
    5.6145   -7.4611    0.8919 H   0  0  0  0  0  0  0  0  0  0  0  0
    4.2134   -8.0402    0.0265 H   0  0  0  0  0  0  0  0  0  0  0  0
    2.3336   -5.8500    0.2287 H   0  0  0  0  0  0  0  0  0  0  0  0
    4.0143   -5.7229   -0.2414 H   0  0  0  0  0  0  0  0  0  0  0  0
    3.1644   -4.3182    0.3319 H   0  0  0  0  0  0  0  0  0  0  0  0
    2.0260    0.3491    4.3764 H   0  0  0  0  0  0  0  0  0  0  0  0
  1  2  2  0
  1 36  1  0
  1 37  1  0
  2  3  1  0
  2  4  1  0
  3 38  1  0
  3 39  1  0
  3 40  1  0
  4 35  1  0
  4  5  1  0
  4 41  1  6
  5  6  1  0
  5 42  1  0
  5 43  1  0
  6  7  1  0
  6  8  1  0
  6 44  1  6
  7 45  1  0
  8 35  1  0
  8  9  1  1
  8 10  1  0
  9 46  1  0
  9 47  1  0
  9 48  1  0
 10 11  1  0
 10 49  1  0
 10 50  1  0
 11 12  1  0
 11 51  1  0
 11 52  1  0
 12 24  1  0
 12 13  1  1
 12 14  1  0
 13 53  1  0
 13 54  1  0
 13 55  1  0
 14 15  1  0
 14 35  1  0
 14 56  1  6
 15 16  1  0
 15 57  1  0
 15 58  1  0
 16 17  1  0
 16 59  1  0
 16 60  1  0
 17 18  1  0
 17 61  1  0
 17 62  1  0
 18 23  1  0
 18 19  1  0
 18 63  1  1
 19 33  1  0
 19 20  1  0
 19 64  1  6
 20 21  1  0
 20 65  1  0
 20 66  1  0
 21 22  1  0
 21 23  1  0
 21 67  1  1
 22 68  1  0
 23 24  1  0
 23 69  1  1
 24 25  1  1
 24 26  1  0
 25 70  1  0
 25 71  1  0
 25 72  1  0
 26 33  1  0
 26 27  1  0
 26 73  1  6
 27 28  1  0
 27 74  1  0
 27 75  1  0
 28 29  2  0
 28 76  1  0
 29 30  1  0
 29 31  1  0
 30 77  1  0
 30 78  1  0
 30 79  1  0
 31 32  1  0
 31 33  1  0
 31 80  1  1
 32 81  1  0
 32 82  1  0
 32 83  1  0
 33 34  1  6
 34 84  1  0
 34 85  1  0
 34 86  1  0
 35 87  1  6
M  END
>  <i_m_ct_stereo_status>  (138) 
1

>  <s_m_source_file>  (138) 
/var/tmp/pbs.5076255.sched01/tmprtix0sri/443g93ja_l.sdf

>  <i_m_source_file_index>  (138) 
18

>  <i_lp_mmshare_version>  (138) 
48012

>  <i_f3d_flags>  (138) 
0

>  <s_epik_input>  (138) 
W09IXVtDQEBIXTFbQ0gyXVtDQEBIXShDKD1bQ0gyXSlbQ0gzXSlbQ0BASF0oW0NAQF0xMltDSDNdKVtDQEBIXTNbQ0BdKFtDSDNdKShbQ0gyXVtDSDJdMilbQ0BdNChbQ0gzXSlbQ0BASF01W0NASF0oW0NIMl1bQ0gyXVtDSDJdMylbQ0BASF0oW0NIMl1bQ0BIXTVbT0hdKVtDQF02KFtDSDNdKVtDQEhdNFtDSDJdW0NIXT1DKFtDSDNdKVtDQEhdNltDSDNd

>  <s_epik_cmdline>  (138) 
J2VwaWtfcHl0aG9uJywgJy1waHQnLCAnMi4wJywgJy1waCcsICc3LjAnLCAnLXRuJywgJzgnLCAnLW1hJywgJzIwMCcsICctaW1hZScsICc8aW5maWxlLm1hZT4nLCAnLW9tYWUnLCAnPG91dGZpbGUubWFlPic=

>  <r_lp_tautomer_probability>  (138) 
1

>  <r_epik_Ionization_Penalty>  (138) 
4.82029e-06

>  <r_epik_Ionization_Penalty_Charging>  (138) 
0

>  <r_epik_Ionization_Penalty_Neutral>  (138) 
4.82029e-06

>  <r_epik_State_Penalty>  (138) 
-0

>  <r_epik_Charging_Adjusted_Penalty>  (138) 
0

>  <i_epik_Tot_Q>  (138) 
0

>  <i_epik_Tot_abs_Q>  (138) 
0

>  <s_lp_Force_Field>  (138) 
OPLS3e

>  <r_lp_Energy>  (138) 
138.445

>  <b_lp_Chiralities_Consistent>  (138) 
1

>  <s_lp_Variant>  (138) 
46:0-1

>  <s_i_glide_gridfile>  (138) 
pfpi4k_grid

>  <i_i_glide_lignum>  (138) 
18

>  <i_i_glide_rotatable_bonds>  (138) 
3

>  <r_i_docking_score>  (138) 
-2.17235

>  <r_i_glide_ligand_efficiency>  (138) 
-0.0620671

>  <r_i_glide_ligand_efficiency_sa>  (138) 
-0.203026

>  <r_i_glide_ligand_efficiency_ln>  (138) 
-0.476879

>  <r_i_glide_gscore>  (138) 
-2.17235

>  <r_i_glide_lipo>  (138) 
-0.28863

>  <r_i_glide_hbond>  (138) 
-0.0311456

>  <r_i_glide_metal>  (138) 
-0

>  <r_i_glide_rewards>  (138) 
-0.131149

>  <r_i_glide_evdw>  (138) 
-25.706

>  <r_i_glide_ecoul>  (138) 
-3.49247

>  <r_i_glide_erotb>  (138) 
0.0877472

>  <r_i_glide_esite>  (138) 
0

>  <r_i_glide_emodel>  (138) 
-32.2062

>  <r_i_glide_energy>  (138) 
-29.1985

>  <r_i_glide_einternal>  (138) 
2.01064

>  <r_i_glide_intrahb_reward>  (138) 
-0

>  <i_i_glide_confnum>  (138) 
2

>  <i_i_glide_posenum>  (138) 
1

>  <r_i_glide_eff_state_penalty>  (138) 
0

>  <ligand_id>  (138) 
46

>  <original_smiles>  (138) 
C=C(C)C1CC(O)C2(C)CCC3(C)C(CCCC4C5CC(O)C4C3(C)C3CC=C(C)C(C)C53C)C12

>  <smiles>  (138) 
[H]OC1([H])C([H])([H])C2([H])C3([H])C([H])([H])C([H])([H])C([H])([H])C4([H])C5([H])C([H])(C(=C([H])[H])C([H])([H])[H])C([H])([H])C([H])(O[H])C5(C([H])([H])[H])C([H])([H])C([H])([H])C4(C([H])([H])[H])C(C([H])([H])[H])(C13[H])C1([H])C([H])([H])C([H])=C(C([H])([H])[H])C([H])(C([H])([H])[H])C21C([H])([H])[H]

$$$$
46:0:2
     RDKit          3D

 87 92  0  0  1  0  0  0  0  0999 V2000
   -0.9643    1.6967    3.0236 C   0  0  0  0  0  0  0  0  0  0  0  0
   -0.1040    0.6604    3.0393 C   0  0  0  0  0  0  0  0  0  0  0  0
    0.8753    0.4938    1.8908 C   0  0  0  0  0  0  0  0  0  0  0  0
   -0.0130   -0.4199    4.1347 C   0  0  2  0  0  0  0  0  0  0  0  0
   -0.9196   -0.2189    5.3704 C   0  0  0  0  0  0  0  0  0  0  0  0
    0.0153    0.2923    6.4630 C   0  0  1  0  0  0  0  0  0  0  0  0
   -0.5629    0.1520    7.7443 O   0  0  0  0  0  0  0  0  0  0  0  0
    1.3766   -0.4261    6.2690 C   0  0  1  0  0  0  0  0  0  0  0  0
    2.5017    0.4966    6.7907 C   0  0  0  0  0  0  0  0  0  0  0  0
    1.4655   -1.7909    7.0123 C   0  0  0  0  0  0  0  0  0  0  0  0
    2.4102   -2.8509    6.3860 C   0  0  0  0  0  0  0  0  0  0  0  0
    2.1607   -3.1538    4.8694 C   0  0  1  0  0  0  0  0  0  0  0  0
    0.6482   -3.5083    4.7494 C   0  0  0  0  0  0  0  0  0  0  0  0
    2.3566   -1.7290    4.1522 C   0  0  2  0  0  0  0  0  0  0  0  0
    3.8148   -1.1401    4.1189 C   0  0  0  0  0  0  0  0  0  0  0  0
    4.5393   -1.1891    2.7704 C   0  0  0  0  0  0  0  0  0  0  0  0
    4.4761   -2.5396    2.0700 C   0  0  0  0  0  0  0  0  0  0  0  0
    5.0788   -3.7110    2.8703 C   0  0  2  0  0  0  0  0  0  0  0  0
    5.1149   -5.0574    2.1491 C   0  0  1  0  0  0  0  0  0  0  0  0
    6.0594   -5.7926    3.1228 C   0  0  0  0  0  0  0  0  0  0  0  0
    5.5448   -5.3914    4.5057 C   0  0  1  0  0  0  0  0  0  0  0  0
    6.6302   -5.0418    5.3383 O   0  0  0  0  0  0  0  0  0  0  0  0
    4.5844   -4.1703    4.2729 C   0  0  2  0  0  0  0  0  0  0  0  0
    3.0249   -4.4685    4.3440 C   0  0  1  0  0  0  0  0  0  0  0  0
    2.8170   -5.6266    5.3761 C   0  0  0  0  0  0  0  0  0  0  0  0
    2.5706   -5.0595    2.9213 C   0  0  2  0  0  0  0  0  0  0  0  0
    1.2258   -5.8617    2.8779 C   0  0  0  0  0  0  0  0  0  0  0  0
    1.2891   -7.3080    2.4727 C   0  0  0  0  0  0  0  0  0  0  0  0
    2.3969   -7.9642    2.1199 C   0  0  0  0  0  0  0  0  0  0  0  0
    2.3438   -9.4529    1.8121 C   0  0  0  0  0  0  0  0  0  0  0  0
    3.7510   -7.2713    2.0671 C   0  0  1  0  0  0  0  0  0  0  0  0
    4.6857   -7.9246    1.0125 C   0  0  0  0  0  0  0  0  0  0  0  0
    3.6736   -5.6957    1.9497 C   0  0  2  0  0  0  0  0  0  0  0  0
    3.2155   -5.3707    0.4962 C   0  0  0  0  0  0  0  0  0  0  0  0
    1.4310   -0.5711    4.7194 C   0  0  1  0  0  0  0  0  0  0  0  0
   -0.9393    2.3934    2.1947 H   0  0  0  0  0  0  0  0  0  0  0  0
   -1.6976    1.8880    3.7923 H   0  0  0  0  0  0  0  0  0  0  0  0
    1.9140    0.5715    2.2104 H   0  0  0  0  0  0  0  0  0  0  0  0
    0.7158    1.2499    1.1220 H   0  0  0  0  0  0  0  0  0  0  0  0
    0.7380   -0.4790    1.4217 H   0  0  0  0  0  0  0  0  0  0  0  0
   -0.3202   -1.3302    3.6309 H   0  0  0  0  0  0  0  0  0  0  0  0
   -1.7759    0.4374    5.2383 H   0  0  0  0  0  0  0  0  0  0  0  0
   -1.3455   -1.1751    5.6756 H   0  0  0  0  0  0  0  0  0  0  0  0
    0.1488    1.3592    6.2922 H   0  0  0  0  0  0  0  0  0  0  0  0
    0.0153    0.5615    8.3735 H   0  0  0  0  0  0  0  0  0  0  0  0
    3.4858    0.0465    6.6831 H   0  0  0  0  0  0  0  0  0  0  0  0
    2.3651    0.7307    7.8450 H   0  0  0  0  0  0  0  0  0  0  0  0
    2.5189    1.4501    6.2609 H   0  0  0  0  0  0  0  0  0  0  0  0
    1.8033   -1.6186    8.0339 H   0  0  0  0  0  0  0  0  0  0  0  0
    0.4769   -2.2240    7.1446 H   0  0  0  0  0  0  0  0  0  0  0  0
    3.4403   -2.5434    6.5565 H   0  0  0  0  0  0  0  0  0  0  0  0
    2.2979   -3.7457    6.9922 H   0  0  0  0  0  0  0  0  0  0  0  0
    0.3301   -3.5865    3.7120 H   0  0  0  0  0  0  0  0  0  0  0  0
   -0.0078   -2.7738    5.1809 H   0  0  0  0  0  0  0  0  0  0  0  0
    0.3509   -4.3994    5.2898 H   0  0  0  0  0  0  0  0  0  0  0  0
    2.0397   -1.8530    3.1181 H   0  0  0  0  0  0  0  0  0  0  0  0
    3.8318   -0.0802    4.3619 H   0  0  0  0  0  0  0  0  0  0  0  0
    4.4452   -1.5222    4.9118 H   0  0  0  0  0  0  0  0  0  0  0  0
    4.1062   -0.4413    2.1033 H   0  0  0  0  0  0  0  0  0  0  0  0
    5.5810   -0.8919    2.9093 H   0  0  0  0  0  0  0  0  0  0  0  0
    3.4673   -2.7035    1.7174 H   0  0  0  0  0  0  0  0  0  0  0  0
    5.0574   -2.4507    1.1503 H   0  0  0  0  0  0  0  0  0  0  0  0
    6.1100   -3.3765    2.9947 H   0  0  0  0  0  0  0  0  0  0  0  0
    5.6226   -4.9638    1.1868 H   0  0  0  0  0  0  0  0  0  0  0  0
    6.1616   -6.8687    3.0029 H   0  0  0  0  0  0  0  0  0  0  0  0
    7.0721   -5.4127    2.9756 H   0  0  0  0  0  0  0  0  0  0  0  0
    5.1179   -6.2703    4.9757 H   0  0  0  0  0  0  0  0  0  0  0  0
    7.1728   -5.8060    5.4604 H   0  0  0  0  0  0  0  0  0  0  0  0
    4.8487   -3.4755    5.0582 H   0  0  0  0  0  0  0  0  0  0  0  0
    3.0455   -6.5993    4.9431 H   0  0  0  0  0  0  0  0  0  0  0  0
    1.8062   -5.7392    5.7489 H   0  0  0  0  0  0  0  0  0  0  0  0
    3.4412   -5.5042    6.2618 H   0  0  0  0  0  0  0  0  0  0  0  0
    2.2538   -4.1499    2.4263 H   0  0  0  0  0  0  0  0  0  0  0  0
    0.7040   -5.8762    3.8258 H   0  0  0  0  0  0  0  0  0  0  0  0
    0.5575   -5.3946    2.1611 H   0  0  0  0  0  0  0  0  0  0  0  0
    0.3491   -7.8362    2.5050 H   0  0  0  0  0  0  0  0  0  0  0  0
    3.0599  -10.0017    2.4248 H   0  0  0  0  0  0  0  0  0  0  0  0
    2.5657   -9.6484    0.7619 H   0  0  0  0  0  0  0  0  0  0  0  0
    1.3527   -9.8598    2.0152 H   0  0  0  0  0  0  0  0  0  0  0  0
    4.1478   -7.5250    3.0474 H   0  0  0  0  0  0  0  0  0  0  0  0
    4.9668   -8.9342    1.3116 H   0  0  0  0  0  0  0  0  0  0  0  0
    5.6128   -7.3749    0.8758 H   0  0  0  0  0  0  0  0  0  0  0  0
    4.2187   -7.9972    0.0317 H   0  0  0  0  0  0  0  0  0  0  0  0
    2.2740   -5.8603    0.2507 H   0  0  0  0  0  0  0  0  0  0  0  0
    3.9408   -5.6913   -0.2519 H   0  0  0  0  0  0  0  0  0  0  0  0
    3.0637   -4.3070    0.3249 H   0  0  0  0  0  0  0  0  0  0  0  0
    1.8651    0.3736    4.4031 H   0  0  0  0  0  0  0  0  0  0  0  0
  1  2  2  0
  1 36  1  0
  1 37  1  0
  2  3  1  0
  2  4  1  0
  3 38  1  0
  3 39  1  0
  3 40  1  0
  4 35  1  0
  4  5  1  0
  4 41  1  6
  5  6  1  0
  5 42  1  0
  5 43  1  0
  6  7  1  0
  6  8  1  0
  6 44  1  6
  7 45  1  0
  8 35  1  0
  8  9  1  1
  8 10  1  0
  9 46  1  0
  9 47  1  0
  9 48  1  0
 10 11  1  0
 10 49  1  0
 10 50  1  0
 11 12  1  0
 11 51  1  0
 11 52  1  0
 12 24  1  0
 12 13  1  1
 12 14  1  0
 13 53  1  0
 13 54  1  0
 13 55  1  0
 14 15  1  0
 14 35  1  0
 14 56  1  6
 15 16  1  0
 15 57  1  0
 15 58  1  0
 16 17  1  0
 16 59  1  0
 16 60  1  0
 17 18  1  0
 17 61  1  0
 17 62  1  0
 18 23  1  0
 18 19  1  0
 18 63  1  1
 19 33  1  0
 19 20  1  0
 19 64  1  6
 20 21  1  0
 20 65  1  0
 20 66  1  0
 21 22  1  0
 21 23  1  0
 21 67  1  1
 22 68  1  0
 23 24  1  0
 23 69  1  1
 24 25  1  1
 24 26  1  0
 25 70  1  0
 25 71  1  0
 25 72  1  0
 26 33  1  0
 26 27  1  0
 26 73  1  6
 27 28  1  0
 27 74  1  0
 27 75  1  0
 28 29  2  0
 28 76  1  0
 29 30  1  0
 29 31  1  0
 30 77  1  0
 30 78  1  0
 30 79  1  0
 31 32  1  0
 31 33  1  0
 31 80  1  1
 32 81  1  0
 32 82  1  0
 32 83  1  0
 33 34  1  6
 34 84  1  0
 34 85  1  0
 34 86  1  0
 35 87  1  6
M  END
>  <i_m_ct_stereo_status>  (139) 
1

>  <s_m_source_file>  (139) 
/var/tmp/pbs.5076255.sched01/tmprtix0sri/443g93ja_l.sdf

>  <i_m_source_file_index>  (139) 
18

>  <i_lp_mmshare_version>  (139) 
48012

>  <i_f3d_flags>  (139) 
0

>  <s_epik_input>  (139) 
W09IXVtDQEBIXTFbQ0gyXVtDQEBIXShDKD1bQ0gyXSlbQ0gzXSlbQ0BASF0oW0NAQF0xMltDSDNdKVtDQEBIXTNbQ0BdKFtDSDNdKShbQ0gyXVtDSDJdMilbQ0BdNChbQ0gzXSlbQ0BASF01W0NASF0oW0NIMl1bQ0gyXVtDSDJdMylbQ0BASF0oW0NIMl1bQ0BIXTVbT0hdKVtDQF02KFtDSDNdKVtDQEhdNFtDSDJdW0NIXT1DKFtDSDNdKVtDQEhdNltDSDNd

>  <s_epik_cmdline>  (139) 
J2VwaWtfcHl0aG9uJywgJy1waHQnLCAnMi4wJywgJy1waCcsICc3LjAnLCAnLXRuJywgJzgnLCAnLW1hJywgJzIwMCcsICctaW1hZScsICc8aW5maWxlLm1hZT4nLCAnLW9tYWUnLCAnPG91dGZpbGUubWFlPic=

>  <r_lp_tautomer_probability>  (139) 
1

>  <r_epik_Ionization_Penalty>  (139) 
4.82029e-06

>  <r_epik_Ionization_Penalty_Charging>  (139) 
0

>  <r_epik_Ionization_Penalty_Neutral>  (139) 
4.82029e-06

>  <r_epik_State_Penalty>  (139) 
-0

>  <r_epik_Charging_Adjusted_Penalty>  (139) 
0

>  <i_epik_Tot_Q>  (139) 
0

>  <i_epik_Tot_abs_Q>  (139) 
0

>  <s_lp_Force_Field>  (139) 
OPLS3e

>  <r_lp_Energy>  (139) 
138.445

>  <b_lp_Chiralities_Consistent>  (139) 
1

>  <s_lp_Variant>  (139) 
46:0-1

>  <s_i_glide_gridfile>  (139) 
pfpi4k_grid

>  <i_i_glide_lignum>  (139) 
18

>  <i_i_glide_rotatable_bonds>  (139) 
3

>  <r_i_docking_score>  (139) 
-2.15874

>  <r_i_glide_ligand_efficiency>  (139) 
-0.0616783

>  <r_i_glide_ligand_efficiency_sa>  (139) 
-0.201754

>  <r_i_glide_ligand_efficiency_ln>  (139) 
-0.473891

>  <r_i_glide_gscore>  (139) 
-2.15874

>  <r_i_glide_lipo>  (139) 
-0.262959

>  <r_i_glide_hbond>  (139) 
-0.0436818

>  <r_i_glide_metal>  (139) 
-0

>  <r_i_glide_rewards>  (139) 
-0.131149

>  <r_i_glide_evdw>  (139) 
-25.948

>  <r_i_glide_ecoul>  (139) 
-3.40866

>  <r_i_glide_erotb>  (139) 
0.0877472

>  <r_i_glide_esite>  (139) 
0

>  <r_i_glide_emodel>  (139) 
-32.3069

>  <r_i_glide_energy>  (139) 
-29.3566

>  <r_i_glide_einternal>  (139) 
1.91286

>  <r_i_glide_intrahb_reward>  (139) 
-0

>  <i_i_glide_confnum>  (139) 
2

>  <i_i_glide_posenum>  (139) 
27

>  <r_i_glide_eff_state_penalty>  (139) 
0

>  <ligand_id>  (139) 
46

>  <original_smiles>  (139) 
C=C(C)C1CC(O)C2(C)CCC3(C)C(CCCC4C5CC(O)C4C3(C)C3CC=C(C)C(C)C53C)C12

>  <smiles>  (139) 
[H]OC1([H])C([H])([H])C2([H])C3([H])C([H])([H])C([H])([H])C([H])([H])C4([H])C5([H])C([H])(C(=C([H])[H])C([H])([H])[H])C([H])([H])C([H])(O[H])C5(C([H])([H])[H])C([H])([H])C([H])([H])C4(C([H])([H])[H])C(C([H])([H])[H])(C13[H])C1([H])C([H])([H])C([H])=C(C([H])([H])[H])C([H])(C([H])([H])[H])C21C([H])([H])[H]

$$$$
47:0:0
     RDKit          3D

 33 36  0  0  1  0  0  0  0  0999 V2000
    3.4128   -1.3172    0.4316 C   0  0  0  0  0  0  0  0  0  0  0  0
    3.6361   -2.1118   -0.4699 C   0  0  0  0  0  0  0  0  0  0  0  0
    3.8815   -3.0069   -1.5718 C   0  0  0  0  0  0  0  0  0  0  0  0
    4.6143   -2.5330   -2.8070 C   0  0  0  0  0  0  0  0  0  0  0  0
    3.1384   -2.8554   -2.8820 C   0  0  0  0  0  0  0  0  0  0  0  0
    3.1125   -0.3567    1.4379 C   0  0  0  0  0  0  0  0  0  0  0  0
    2.0788    0.5373    1.5183 C   0  0  0  0  0  0  0  0  0  0  0  0
    2.2871    1.1875    2.7114 N   0  0  0  0  0  0  0  0  0  0  0  0
    1.5146    2.2563    3.2981 C   0  0  2  0  0  0  0  0  0  0  0  0
    1.7626    2.6836    4.7880 C   0  0  0  0  0  0  0  0  0  0  0  0
    0.3321    3.2077    4.7354 C   0  0  2  0  0  0  0  0  0  0  0  0
   -0.7398    3.1392    5.8029 C   0  0  0  0  0  0  0  0  0  0  0  0
   -2.0067    2.9339    5.3645 C   0  0  0  0  0  0  0  0  0  0  0  0
   -2.2515    2.7183    3.9281 C   0  0  0  0  0  0  0  0  0  0  0  0
   -1.2379    2.3095    3.1263 C   0  0  0  0  0  0  0  0  0  0  0  0
    0.0846    2.0166    3.8069 C   0  0  1  0  0  0  0  0  0  0  0  0
    3.4012    0.7244    3.3276 N   0  0  0  0  0  0  0  0  0  0  0  0
    3.8981   -0.2069    2.5762 N   0  0  0  0  0  0  0  0  0  0  0  0
    4.0808   -4.0213   -1.2171 H   0  0  0  0  0  0  0  0  0  0  0  0
    4.9109   -1.4839   -2.8453 H   0  0  0  0  0  0  0  0  0  0  0  0
    5.3005   -3.2241   -3.2902 H   0  0  0  0  0  0  0  0  0  0  0  0
    2.8526   -3.7589   -3.4146 H   0  0  0  0  0  0  0  0  0  0  0  0
    2.4311   -2.0291   -2.9659 H   0  0  0  0  0  0  0  0  0  0  0  0
    1.2454    0.7358    0.8557 H   0  0  0  0  0  0  0  0  0  0  0  0
    1.5795    3.1079    2.6109 H   0  0  0  0  0  0  0  0  0  0  0  0
    1.9166    1.8475    5.4778 H   0  0  0  0  0  0  0  0  0  0  0  0
    2.5170    3.4635    4.8995 H   0  0  0  0  0  0  0  0  0  0  0  0
    0.2898    4.1746    4.2288 H   0  0  0  0  0  0  0  0  0  0  0  0
   -0.4938    3.3043    6.8409 H   0  0  0  0  0  0  0  0  0  0  0  0
   -2.8328    2.9008    6.0626 H   0  0  0  0  0  0  0  0  0  0  0  0
   -3.2342    2.8966    3.5164 H   0  0  0  0  0  0  0  0  0  0  0  0
   -1.3594    2.1267    2.0690 H   0  0  0  0  0  0  0  0  0  0  0  0
    0.0187    1.0572    4.3270 H   0  0  0  0  0  0  0  0  0  0  0  0
  1  2  3  0
  1  6  1  0
  2  3  1  0
  3  5  1  0
  3  4  1  0
  3 19  1  0
  4  5  1  0
  4 20  1  0
  4 21  1  0
  5 22  1  0
  5 23  1  0
  6 18  1  0
  6  7  2  0
  7  8  1  0
  7 24  1  0
  8  9  1  0
  8 17  1  0
  9 16  1  0
  9 10  1  0
  9 25  1  6
 10 11  1  0
 10 26  1  0
 10 27  1  0
 11 16  1  0
 11 12  1  0
 11 28  1  6
 12 13  2  0
 12 29  1  0
 13 14  1  0
 13 30  1  0
 14 15  2  0
 14 31  1  0
 15 16  1  0
 15 32  1  0
 16 33  1  1
 17 18  2  0
M  END
>  <i_m_ct_stereo_status>  (140) 
1

>  <s_m_source_file>  (140) 
/var/tmp/pbs.5076255.sched01/tmprtix0sri/443g93ja_l.sdf

>  <i_m_source_file_index>  (140) 
19

>  <i_lp_mmshare_version>  (140) 
48012

>  <i_f3d_flags>  (140) 
0

>  <s_epik_input>  (140) 
W0NIMl0xW0NIMl1bQ0hdMUMjQ2MyW2NIXW4obm4yKVtDQEhdKFtDSDJdMylbQ0BASF0oW0NASF0zNClbQ0hdPVtDSF1bQ0hdPVtDSF00

>  <s_epik_cmdline>  (140) 
J2VwaWtfcHl0aG9uJywgJy1waHQnLCAnMi4wJywgJy1waCcsICc3LjAnLCAnLXRuJywgJzgnLCAnLW1hJywgJzIwMCcsICctaW1hZScsICc8aW5maWxlLm1hZT4nLCAnLW9tYWUnLCAnPG91dGZpbGUubWFlPic=

>  <r_lp_tautomer_probability>  (140) 
1

>  <r_epik_Ionization_Penalty>  (140) 
1.02993e-06

>  <r_epik_Ionization_Penalty_Charging>  (140) 
0

>  <r_epik_Ionization_Penalty_Neutral>  (140) 
1.02993e-06

>  <r_epik_State_Penalty>  (140) 
-0

>  <r_epik_Charging_Adjusted_Penalty>  (140) 
0

>  <i_epik_Tot_Q>  (140) 
0

>  <i_epik_Tot_abs_Q>  (140) 
0

>  <s_lp_Force_Field>  (140) 
OPLS3e

>  <r_lp_Energy>  (140) 
34.4602

>  <b_lp_Chiralities_Consistent>  (140) 
1

>  <s_lp_Variant>  (140) 
47:0-1

>  <s_i_glide_gridfile>  (140) 
pfpi4k_grid

>  <i_i_glide_lignum>  (140) 
19

>  <i_i_glide_rotatable_bonds>  (140) 
3

>  <r_i_docking_score>  (140) 
-2.40122

>  <r_i_glide_ligand_efficiency>  (140) 
-0.133401

>  <r_i_glide_ligand_efficiency_sa>  (140) 
-0.34961

>  <r_i_glide_ligand_efficiency_ln>  (140) 
-0.617222

>  <r_i_glide_gscore>  (140) 
-2.40122

>  <r_i_glide_lipo>  (140) 
-0.135273

>  <r_i_glide_hbond>  (140) 
0

>  <r_i_glide_metal>  (140) 
-0

>  <r_i_glide_rewards>  (140) 
-1.80286

>  <r_i_glide_evdw>  (140) 
-23.8105

>  <r_i_glide_ecoul>  (140) 
-1.24082

>  <r_i_glide_erotb>  (140) 
0.918278

>  <r_i_glide_esite>  (140) 
-0.00471975

>  <r_i_glide_emodel>  (140) 
-29.0994

>  <r_i_glide_energy>  (140) 
-25.0513

>  <r_i_glide_einternal>  (140) 
-0.0393444

>  <r_i_glide_intrahb_reward>  (140) 
-0

>  <i_i_glide_confnum>  (140) 
1

>  <i_i_glide_posenum>  (140) 
1

>  <r_i_glide_eff_state_penalty>  (140) 
0

>  <ligand_id>  (140) 
47

>  <original_smiles>  (140) 
C(#CC1CC1)c1cn(C2CC3C=CC=CC32)nn1

>  <smiles>  (140) 
[H]C1=C([H])C2([H])C([H])([H])C([H])(n3nnc(C#CC4([H])C([H])([H])C4([H])[H])c3[H])C2([H])C([H])=C1[H]

$$$$
47:0:1
     RDKit          3D

 33 36  0  0  1  0  0  0  0  0999 V2000
   -0.1227   -5.0852    5.3292 C   0  0  0  0  0  0  0  0  0  0  0  0
   -0.2062   -6.2325    4.9160 C   0  0  0  0  0  0  0  0  0  0  0  0
   -0.3193   -7.5666    4.3820 C   0  0  0  0  0  0  0  0  0  0  0  0
   -0.2659   -7.8155    2.8908 C   0  0  0  0  0  0  0  0  0  0  0  0
   -1.5607   -8.0191    3.6454 C   0  0  0  0  0  0  0  0  0  0  0  0
   -0.0550   -3.7265    5.7467 C   0  0  0  0  0  0  0  0  0  0  0  0
   -0.1069   -2.5841    4.9947 C   0  0  0  0  0  0  0  0  0  0  0  0
   -0.0057   -1.5716    5.9240 N   0  0  0  0  0  0  0  0  0  0  0  0
    0.0295   -0.1504    5.7020 C   0  0  2  0  0  0  0  0  0  0  0  0
   -0.8129    0.8096    6.6144 C   0  0  0  0  0  0  0  0  0  0  0  0
   -0.7532    1.7690    5.4317 C   0  0  2  0  0  0  0  0  0  0  0  0
   -1.8423    2.6707    4.8917 C   0  0  0  0  0  0  0  0  0  0  0  0
   -1.8902    2.8010    3.5417 C   0  0  0  0  0  0  0  0  0  0  0  0
   -0.9577    2.0283    2.7035 C   0  0  0  0  0  0  0  0  0  0  0  0
   -0.3677    0.9137    3.1960 C   0  0  0  0  0  0  0  0  0  0  0  0
   -0.8020    0.4939    4.5852 C   0  0  1  0  0  0  0  0  0  0  0  0
    0.1664   -2.0672    7.1713 N   0  0  0  0  0  0  0  0  0  0  0  0
    0.0840   -3.3572    7.0808 N   0  0  0  0  0  0  0  0  0  0  0  0
    0.1736   -8.2897    5.0357 H   0  0  0  0  0  0  0  0  0  0  0  0
   -0.1835   -6.9508    2.2310 H   0  0  0  0  0  0  0  0  0  0  0  0
    0.2440   -8.7088    2.5389 H   0  0  0  0  0  0  0  0  0  0  0  0
   -1.8924   -9.0465    3.7875 H   0  0  0  0  0  0  0  0  0  0  0  0
   -2.3616   -7.2930    3.5069 H   0  0  0  0  0  0  0  0  0  0  0  0
   -0.2066   -2.4123    3.9321 H   0  0  0  0  0  0  0  0  0  0  0  0
    1.0842    0.1389    5.6677 H   0  0  0  0  0  0  0  0  0  0  0  0
   -1.8172    0.4491    6.8470 H   0  0  0  0  0  0  0  0  0  0  0  0
   -0.2760    1.1648    7.4952 H   0  0  0  0  0  0  0  0  0  0  0  0
    0.2087    2.2861    5.3945 H   0  0  0  0  0  0  0  0  0  0  0  0
   -2.4912    3.2145    5.5606 H   0  0  0  0  0  0  0  0  0  0  0  0
   -2.6165    3.4505    3.0742 H   0  0  0  0  0  0  0  0  0  0  0  0
   -0.7226    2.3674    1.7058 H   0  0  0  0  0  0  0  0  0  0  0  0
    0.3197    0.3111    2.6183 H   0  0  0  0  0  0  0  0  0  0  0  0
   -1.7970    0.0448    4.5312 H   0  0  0  0  0  0  0  0  0  0  0  0
  1  2  3  0
  1  6  1  0
  2  3  1  0
  3  5  1  0
  3  4  1  0
  3 19  1  0
  4  5  1  0
  4 20  1  0
  4 21  1  0
  5 22  1  0
  5 23  1  0
  6 18  1  0
  6  7  2  0
  7  8  1  0
  7 24  1  0
  8  9  1  0
  8 17  1  0
  9 16  1  0
  9 10  1  0
  9 25  1  6
 10 11  1  0
 10 26  1  0
 10 27  1  0
 11 16  1  0
 11 12  1  0
 11 28  1  1
 12 13  2  0
 12 29  1  0
 13 14  1  0
 13 30  1  0
 14 15  2  0
 14 31  1  0
 15 16  1  0
 15 32  1  0
 16 33  1  6
 17 18  2  0
M  END
>  <i_m_ct_stereo_status>  (141) 
1

>  <s_m_source_file>  (141) 
/var/tmp/pbs.5076255.sched01/tmprtix0sri/443g93ja_l.sdf

>  <i_m_source_file_index>  (141) 
19

>  <i_lp_mmshare_version>  (141) 
48012

>  <i_f3d_flags>  (141) 
0

>  <s_epik_input>  (141) 
W0NIMl0xW0NIMl1bQ0hdMUMjQ2MyW2NIXW4obm4yKVtDQEhdKFtDSDJdMylbQ0BASF0oW0NASF0zNClbQ0hdPVtDSF1bQ0hdPVtDSF00

>  <s_epik_cmdline>  (141) 
J2VwaWtfcHl0aG9uJywgJy1waHQnLCAnMi4wJywgJy1waCcsICc3LjAnLCAnLXRuJywgJzgnLCAnLW1hJywgJzIwMCcsICctaW1hZScsICc8aW5maWxlLm1hZT4nLCAnLW9tYWUnLCAnPG91dGZpbGUubWFlPic=

>  <r_lp_tautomer_probability>  (141) 
1

>  <r_epik_Ionization_Penalty>  (141) 
1.02993e-06

>  <r_epik_Ionization_Penalty_Charging>  (141) 
0

>  <r_epik_Ionization_Penalty_Neutral>  (141) 
1.02993e-06

>  <r_epik_State_Penalty>  (141) 
-0

>  <r_epik_Charging_Adjusted_Penalty>  (141) 
0

>  <i_epik_Tot_Q>  (141) 
0

>  <i_epik_Tot_abs_Q>  (141) 
0

>  <s_lp_Force_Field>  (141) 
OPLS3e

>  <r_lp_Energy>  (141) 
34.4602

>  <b_lp_Chiralities_Consistent>  (141) 
1

>  <s_lp_Variant>  (141) 
47:0-1

>  <s_i_glide_gridfile>  (141) 
pfpi4k_grid

>  <i_i_glide_lignum>  (141) 
19

>  <i_i_glide_rotatable_bonds>  (141) 
3

>  <r_i_docking_score>  (141) 
-2.30289

>  <r_i_glide_ligand_efficiency>  (141) 
-0.127938

>  <r_i_glide_ligand_efficiency_sa>  (141) 
-0.335293

>  <r_i_glide_ligand_efficiency_ln>  (141) 
-0.591946

>  <r_i_glide_gscore>  (141) 
-2.30289

>  <r_i_glide_lipo>  (141) 
0

>  <r_i_glide_hbond>  (141) 
0

>  <r_i_glide_metal>  (141) 
-0

>  <r_i_glide_rewards>  (141) 
-1.79114

>  <r_i_glide_evdw>  (141) 
-21.0767

>  <r_i_glide_ecoul>  (141) 
-1.93877

>  <r_i_glide_erotb>  (141) 
0.918278

>  <r_i_glide_esite>  (141) 
-0.0853787

>  <r_i_glide_emodel>  (141) 
-26.9656

>  <r_i_glide_energy>  (141) 
-23.0154

>  <r_i_glide_einternal>  (141) 
-0.11014

>  <r_i_glide_intrahb_reward>  (141) 
-0

>  <i_i_glide_confnum>  (141) 
3

>  <i_i_glide_posenum>  (141) 
2

>  <r_i_glide_eff_state_penalty>  (141) 
0

>  <ligand_id>  (141) 
47

>  <original_smiles>  (141) 
C(#CC1CC1)c1cn(C2CC3C=CC=CC32)nn1

>  <smiles>  (141) 
[H]C1=C([H])C2([H])C([H])([H])C([H])(n3nnc(C#CC4([H])C([H])([H])C4([H])[H])c3[H])C2([H])C([H])=C1[H]

$$$$
47:0:2
     RDKit          3D

 33 36  0  0  1  0  0  0  0  0999 V2000
    3.5999   -0.5436    0.5880 C   0  0  0  0  0  0  0  0  0  0  0  0
    3.9321   -1.1272   -0.4332 C   0  0  0  0  0  0  0  0  0  0  0  0
    4.2721   -1.8041   -1.6610 C   0  0  0  0  0  0  0  0  0  0  0  0
    3.7350   -1.3174   -2.9886 C   0  0  0  0  0  0  0  0  0  0  0  0
    3.2443   -2.6259   -2.4093 C   0  0  0  0  0  0  0  0  0  0  0  0
    3.1621    0.1618    1.7424 C   0  0  0  0  0  0  0  0  0  0  0  0
    2.1625    1.0873    1.8832 C   0  0  0  0  0  0  0  0  0  0  0  0
    2.2112    1.4355    3.2132 N   0  0  0  0  0  0  0  0  0  0  0  0
    1.4059    2.4029    3.9143 C   0  0  2  0  0  0  0  0  0  0  0  0
    1.3780    2.4205    5.4837 C   0  0  0  0  0  0  0  0  0  0  0  0
    0.0222    3.0944    5.3196 C   0  0  2  0  0  0  0  0  0  0  0  0
   -1.2396    2.8852    6.1276 C   0  0  0  0  0  0  0  0  0  0  0  0
   -2.4038    2.9434    5.4349 C   0  0  0  0  0  0  0  0  0  0  0  0
   -2.3768    3.1052    3.9712 C   0  0  0  0  0  0  0  0  0  0  0  0
   -1.2486    2.8017    3.2777 C   0  0  0  0  0  0  0  0  0  0  0  0
   -0.1091    2.2047    4.0825 C   0  0  1  0  0  0  0  0  0  0  0  0
    3.2055    0.7755    3.8524 N   0  0  0  0  0  0  0  0  0  0  0  0
    3.7670   -0.0072    2.9821 N   0  0  0  0  0  0  0  0  0  0  0  0
    5.2956   -2.1788   -1.6267 H   0  0  0  0  0  0  0  0  0  0  0  0
    3.0490   -0.4685   -2.9806 H   0  0  0  0  0  0  0  0  0  0  0  0
    4.3874   -1.3723   -3.8560 H   0  0  0  0  0  0  0  0  0  0  0  0
    3.5751   -3.5415   -2.8940 H   0  0  0  0  0  0  0  0  0  0  0  0
    2.2290   -2.6602   -2.0096 H   0  0  0  0  0  0  0  0  0  0  0  0
    1.4522    1.5171    1.1930 H   0  0  0  0  0  0  0  0  0  0  0  0
    1.6550    3.3857    3.4981 H   0  0  0  0  0  0  0  0  0  0  0  0
    1.3434    1.4276    5.9440 H   0  0  0  0  0  0  0  0  0  0  0  0
    2.1383    3.0644    5.9268 H   0  0  0  0  0  0  0  0  0  0  0  0
    0.1382    4.1553    5.0883 H   0  0  0  0  0  0  0  0  0  0  0  0
   -1.1943    2.7590    7.1992 H   0  0  0  0  0  0  0  0  0  0  0  0
   -3.3495    2.8356    5.9495 H   0  0  0  0  0  0  0  0  0  0  0  0
   -3.2495    3.4752    3.4539 H   0  0  0  0  0  0  0  0  0  0  0  0
   -1.1670    2.8985    2.2047 H   0  0  0  0  0  0  0  0  0  0  0  0
   -0.3349    1.1611    4.3130 H   0  0  0  0  0  0  0  0  0  0  0  0
  1  2  3  0
  1  6  1  0
  2  3  1  0
  3  5  1  0
  3  4  1  0
  3 19  1  0
  4  5  1  0
  4 20  1  0
  4 21  1  0
  5 22  1  0
  5 23  1  0
  6 18  1  0
  6  7  2  0
  7  8  1  0
  7 24  1  0
  8  9  1  0
  8 17  1  0
  9 16  1  0
  9 10  1  0
  9 25  1  6
 10 11  1  0
 10 26  1  0
 10 27  1  0
 11 16  1  0
 11 12  1  0
 11 28  1  6
 12 13  2  0
 12 29  1  0
 13 14  1  0
 13 30  1  0
 14 15  2  0
 14 31  1  0
 15 16  1  0
 15 32  1  0
 16 33  1  1
 17 18  2  0
M  END
>  <i_m_ct_stereo_status>  (142) 
1

>  <s_m_source_file>  (142) 
/var/tmp/pbs.5076255.sched01/tmprtix0sri/443g93ja_l.sdf

>  <i_m_source_file_index>  (142) 
19

>  <i_lp_mmshare_version>  (142) 
48012

>  <i_f3d_flags>  (142) 
0

>  <s_epik_input>  (142) 
W0NIMl0xW0NIMl1bQ0hdMUMjQ2MyW2NIXW4obm4yKVtDQEhdKFtDSDJdMylbQ0BASF0oW0NASF0zNClbQ0hdPVtDSF1bQ0hdPVtDSF00

>  <s_epik_cmdline>  (142) 
J2VwaWtfcHl0aG9uJywgJy1waHQnLCAnMi4wJywgJy1waCcsICc3LjAnLCAnLXRuJywgJzgnLCAnLW1hJywgJzIwMCcsICctaW1hZScsICc8aW5maWxlLm1hZT4nLCAnLW9tYWUnLCAnPG91dGZpbGUubWFlPic=

>  <r_lp_tautomer_probability>  (142) 
1

>  <r_epik_Ionization_Penalty>  (142) 
1.02993e-06

>  <r_epik_Ionization_Penalty_Charging>  (142) 
0

>  <r_epik_Ionization_Penalty_Neutral>  (142) 
1.02993e-06

>  <r_epik_State_Penalty>  (142) 
-0

>  <r_epik_Charging_Adjusted_Penalty>  (142) 
0

>  <i_epik_Tot_Q>  (142) 
0

>  <i_epik_Tot_abs_Q>  (142) 
0

>  <s_lp_Force_Field>  (142) 
OPLS3e

>  <r_lp_Energy>  (142) 
34.4602

>  <b_lp_Chiralities_Consistent>  (142) 
1

>  <s_lp_Variant>  (142) 
47:0-1

>  <s_i_glide_gridfile>  (142) 
pfpi4k_grid

>  <i_i_glide_lignum>  (142) 
19

>  <i_i_glide_rotatable_bonds>  (142) 
3

>  <r_i_docking_score>  (142) 
-2.14664

>  <r_i_glide_ligand_efficiency>  (142) 
-0.119258

>  <r_i_glide_ligand_efficiency_sa>  (142) 
-0.312544

>  <r_i_glide_ligand_efficiency_ln>  (142) 
-0.551782

>  <r_i_glide_gscore>  (142) 
-2.14664

>  <r_i_glide_lipo>  (142) 
-0.0622181

>  <r_i_glide_hbond>  (142) 
0

>  <r_i_glide_metal>  (142) 
-0

>  <r_i_glide_rewards>  (142) 
-1.79114

>  <r_i_glide_evdw>  (142) 
-23.615

>  <r_i_glide_ecoul>  (142) 
-0.152275

>  <r_i_glide_erotb>  (142) 
0.918278

>  <r_i_glide_esite>  (142) 
-0.00796655

>  <r_i_glide_emodel>  (142) 
-27.4036

>  <r_i_glide_energy>  (142) 
-23.7673

>  <r_i_glide_einternal>  (142) 
-0.0714223

>  <r_i_glide_intrahb_reward>  (142) 
-0

>  <i_i_glide_confnum>  (142) 
2

>  <i_i_glide_posenum>  (142) 
39

>  <r_i_glide_eff_state_penalty>  (142) 
0

>  <ligand_id>  (142) 
47

>  <original_smiles>  (142) 
C(#CC1CC1)c1cn(C2CC3C=CC=CC32)nn1

>  <smiles>  (142) 
[H]C1=C([H])C2([H])C([H])([H])C([H])(n3nnc(C#CC4([H])C([H])([H])C4([H])[H])c3[H])C2([H])C([H])=C1[H]

$$$$
49:0:0
     RDKit          3D

 81 89  0  0  1  0  0  0  0  0999 V2000
    2.7432  -12.0767    4.0559 C   0  0  0  0  0  0  0  0  0  0  0  0
    2.4867  -11.2760    5.2788 N   0  0  1  0  0  0  0  0  0  0  0  0
    3.7259  -11.2101    6.1964 C   0  0  0  0  0  0  0  0  0  0  0  0
    4.8256  -10.0429    6.1228 C   0  0  0  0  0  0  0  0  0  0  0  0
    4.3509   -8.5589    6.2422 C   0  0  2  0  0  0  0  0  0  0  0  0
    4.3872   -7.9896    7.6615 C   0  0  0  0  0  0  0  0  0  0  0  0
    5.6066   -7.1228    7.9142 C   0  0  0  0  0  0  0  0  0  0  0  0
    6.7757   -7.7010    8.4478 C   0  0  0  0  0  0  0  0  0  0  0  0
    7.9098   -6.9042    8.6951 C   0  0  0  0  0  0  0  0  0  0  0  0
    7.8810   -5.5242    8.4128 C   0  0  0  0  0  0  0  0  0  0  0  0
    6.7107   -4.9395    7.8905 C   0  0  0  0  0  0  0  0  0  0  0  0
    5.5749   -5.7372    7.6448 C   0  0  0  0  0  0  0  0  0  0  0  0
    3.2194   -8.6382    5.3746 C   0  0  1  0  0  0  0  0  0  0  0  0
    1.8529   -8.9537    6.0407 C   0  0  1  0  0  0  0  0  0  0  0  0
    1.9118   -9.4579    7.3751 O   0  0  0  0  0  0  0  0  0  0  0  0
    0.7336   -7.8808    6.2524 C   0  0  0  0  0  0  0  0  0  0  0  0
    1.1998   -6.4758    6.4116 C   0  0  0  0  0  0  0  0  0  0  0  0
    2.2090   -5.8875    5.7065 C   0  0  0  0  0  0  0  0  0  0  0  0
    2.3537   -4.5812    6.1614 N   0  0  0  0  0  0  0  0  0  0  0  0
    1.4407   -4.2924    7.1544 C   0  0  0  0  0  0  0  0  0  0  0  0
    1.1922   -3.1305    7.9154 C   0  0  0  0  0  0  0  0  0  0  0  0
    0.1670   -3.1278    8.8777 C   0  0  0  0  0  0  0  0  0  0  0  0
   -0.6098   -4.2881    9.0619 C   0  0  0  0  0  0  0  0  0  0  0  0
   -0.3460   -5.4432    8.2950 C   0  0  0  0  0  0  0  0  0  0  0  0
    0.6862   -5.4825    7.3266 C   0  0  0  0  0  0  0  0  0  0  0  0
    3.0890   -6.4482    4.6306 C   0  0  2  0  0  0  0  0  0  0  0  0
    2.3709   -6.9155    3.2868 C   0  0  2  0  0  0  0  0  0  0  0  0
    1.2028   -8.0100    3.2125 C   0  0  0  0  0  0  0  0  0  0  0  0
    1.3169   -9.5588    3.5933 C   0  0  0  0  0  0  0  0  0  0  0  0
    1.4841  -10.1074    5.1070 C   0  0  1  0  0  0  0  0  0  0  0  0
    3.3693   -7.1057    2.1818 N   0  0  1  0  0  0  0  0  0  0  0  0
    3.7831   -5.8243    1.5358 C   0  0  0  0  0  0  0  0  0  0  0  0
    4.7328   -6.0132    0.3633 C   0  0  0  0  0  0  0  0  0  0  0  0
    6.1894   -5.6064    0.5083 C   0  0  0  0  0  0  0  0  0  0  0  0
    5.2714   -4.8149   -0.3882 C   0  0  0  0  0  0  0  0  0  0  0  0
    4.5159   -7.9734    2.5689 C   0  0  0  0  0  0  0  0  0  0  0  0
    5.1313   -7.5726    3.9311 C   0  0  0  0  0  0  0  0  0  0  0  0
    4.1008   -7.5063    5.0706 C   0  0  1  0  0  0  0  0  0  0  0  0
    3.0534   -3.9423    5.8140 H   0  0  0  0  0  0  0  0  0  0  0  0
    3.4788  -11.6055    3.3973 H   0  0  0  0  0  0  0  0  0  0  0  0
    1.8211  -12.2478    3.4915 H   0  0  0  0  0  0  0  0  0  0  0  0
    3.1411  -13.0520    4.3394 H   0  0  0  0  0  0  0  0  0  0  0  0
    3.4145  -11.3331    7.2305 H   0  0  0  0  0  0  0  0  0  0  0  0
    4.2791  -12.1356    6.0330 H   0  0  0  0  0  0  0  0  0  0  0  0
    5.5739  -10.2242    6.8932 H   0  0  0  0  0  0  0  0  0  0  0  0
    5.3792  -10.1585    5.1887 H   0  0  0  0  0  0  0  0  0  0  0  0
    3.5019   -7.3777    7.8257 H   0  0  0  0  0  0  0  0  0  0  0  0
    4.3393   -8.7972    8.3946 H   0  0  0  0  0  0  0  0  0  0  0  0
    6.7999   -8.7560    8.6754 H   0  0  0  0  0  0  0  0  0  0  0  0
    8.8025   -7.3550    9.1019 H   0  0  0  0  0  0  0  0  0  0  0  0
    8.7533   -4.9158    8.6003 H   0  0  0  0  0  0  0  0  0  0  0  0
    6.6831   -3.8804    7.6815 H   0  0  0  0  0  0  0  0  0  0  0  0
    4.6788   -5.2795    7.2583 H   0  0  0  0  0  0  0  0  0  0  0  0
    3.4326   -9.2417    4.5044 H   0  0  0  0  0  0  0  0  0  0  0  0
    1.7833  -10.3981    7.3815 H   0  0  0  0  0  0  0  0  0  0  0  0
   -0.0451   -7.9343    5.5038 H   0  0  0  0  0  0  0  0  0  0  0  0
    0.1376   -8.1341    7.1308 H   0  0  0  0  0  0  0  0  0  0  0  0
    1.7914   -2.2480    7.7697 H   0  0  0  0  0  0  0  0  0  0  0  0
   -0.0157   -2.2449    9.4790 H   0  0  0  0  0  0  0  0  0  0  0  0
   -1.3995   -4.3013    9.8014 H   0  0  0  0  0  0  0  0  0  0  0  0
   -0.9431   -6.3236    8.4481 H   0  0  0  0  0  0  0  0  0  0  0  0
    3.7040   -5.5947    4.3473 H   0  0  0  0  0  0  0  0  0  0  0  0
    1.8171   -6.0212    2.9999 H   0  0  0  0  0  0  0  0  0  0  0  0
    0.2811   -7.5762    3.5857 H   0  0  0  0  0  0  0  0  0  0  0  0
    0.9569   -8.0469    2.1505 H   0  0  0  0  0  0  0  0  0  0  0  0
    0.4204  -10.0456    3.2017 H   0  0  0  0  0  0  0  0  0  0  0  0
    2.1022   -9.9341    2.9387 H   0  0  0  0  0  0  0  0  0  0  0  0
    0.5137  -10.4983    5.4184 H   0  0  0  0  0  0  0  0  0  0  0  0
    2.8997   -5.3037    1.1632 H   0  0  0  0  0  0  0  0  0  0  0  0
    4.2596   -5.1573    2.2536 H   0  0  0  0  0  0  0  0  0  0  0  0
    4.5226   -6.8833   -0.2612 H   0  0  0  0  0  0  0  0  0  0  0  0
    6.5004   -5.1481    1.4448 H   0  0  0  0  0  0  0  0  0  0  0  0
    6.9370   -6.2567    0.0640 H   0  0  0  0  0  0  0  0  0  0  0  0
    5.3961   -4.9192   -1.4650 H   0  0  0  0  0  0  0  0  0  0  0  0
    4.9659   -3.8259   -0.0524 H   0  0  0  0  0  0  0  0  0  0  0  0
    4.1791   -9.0090    2.5723 H   0  0  0  0  0  0  0  0  0  0  0  0
    5.2973   -7.9763    1.8086 H   0  0  0  0  0  0  0  0  0  0  0  0
    5.9199   -8.2819    4.1742 H   0  0  0  0  0  0  0  0  0  0  0  0
    5.6407   -6.6110    3.8416 H   0  0  0  0  0  0  0  0  0  0  0  0
    2.8808   -7.6028    1.4514 H   0  0  0  0  0  0  0  0  0  0  0  0
    1.9320  -11.9186    5.8413 H   0  0  0  0  0  0  0  0  0  0  0  0
  1  2  1  0
  1 40  1  0
  1 41  1  0
  1 42  1  0
  2 30  1  0
  2  3  1  0
  2 81  1  1
  3  4  1  0
  3 43  1  0
  3 44  1  0
  4  5  1  0
  4 45  1  0
  4 46  1  0
  5 38  1  0
  5  6  1  1
  5 13  1  0
  6  7  1  0
  6 47  1  0
  6 48  1  0
  7 12  1  0
  7  8  2  0
  8  9  1  0
  8 49  1  0
  9 10  2  0
  9 50  1  0
 10 11  1  0
 10 51  1  0
 11 12  2  0
 11 52  1  0
 12 53  1  0
 13 38  1  0
 13 14  1  0
 13 54  1  6
 14 30  1  0
 14 15  1  1
 14 16  1  0
 15 55  1  0
 16 17  1  0
 16 56  1  0
 16 57  1  0
 17 25  1  0
 17 18  2  0
 18 19  1  0
 18 26  1  0
 19 39  1  0
 19 20  1  0
 20 25  2  0
 20 21  1  0
 21 22  2  0
 21 58  1  0
 22 23  1  0
 22 59  1  0
 23 24  2  0
 23 60  1  0
 24 25  1  0
 24 61  1  0
 26 38  1  0
 26 27  1  0
 26 62  1  6
 27 28  1  0
 27 31  1  0
 27 63  1  6
 28 29  1  0
 28 64  1  0
 28 65  1  0
 29 30  1  0
 29 66  1  0
 29 67  1  0
 30 68  1  1
 31 32  1  0
 31 36  1  0
 31 80  1  6
 32 33  1  0
 32 69  1  0
 32 70  1  0
 33 35  1  0
 33 34  1  0
 33 71  1  0
 34 35  1  0
 34 72  1  0
 34 73  1  0
 35 74  1  0
 35 75  1  0
 36 37  1  0
 36 76  1  0
 36 77  1  0
 38 37  1  6
 37 78  1  0
 37 79  1  0
M  CHG  2   2   1  31   1
M  END
>  <i_m_ct_stereo_status>  (143) 
1

>  <s_m_source_file>  (143) 
/var/tmp/pbs.5076255.sched01/tmprtix0sri/443g93ja_l.sdf

>  <i_m_source_file_index>  (143) 
21

>  <i_lp_mmshare_version>  (143) 
48012

>  <i_f3d_flags>  (143) 
0

>  <s_epik_input>  (143) 
W2NIXTFbY0hdW2NIXVtjSF1bY0hdYzFbQ0gyXVtDQF0yKFtDQEBdMzQ1KVtDQEhdM1tDQF02KFtPSF0pW0NASF0oTihbQ0gzXSlbQ0gyXVtDSDJdMilbQ0gyXVtDSDJdW0NASF0oTihbQ0gyXVtDSDJdNSlbQ0gyXVtDSF03W0NIMl1bQ0gyXTcpW0NASF00YzhjKFtDSDJdNiljOWMoW25IXTgpW2NIXVtjSF1bY0hdW2NIXTk=

>  <s_epik_cmdline>  (143) 
J2VwaWtfcHl0aG9uJywgJy1waHQnLCAnMi4wJywgJy1waCcsICc3LjAnLCAnLXRuJywgJzgnLCAnLW1hJywgJzIwMCcsICctaW1hZScsICc8aW5maWxlLm1hZT4nLCAnLW9tYWUnLCAnPG91dGZpbGUubWFlPic=

>  <r_epik_Ionization_Penalty>  (143) 
0.018342

>  <r_epik_Ionization_Penalty_Charging>  (143) 
0.0183419

>  <r_epik_Ionization_Penalty_Neutral>  (143) 
1.1036e-07

>  <r_epik_State_Penalty>  (143) 
0.0113969

>  <r_epik_Charging_Adjusted_Penalty>  (143) 
0.0297388

>  <i_epik_Tot_Q>  (143) 
2

>  <i_epik_Tot_abs_Q>  (143) 
2

>  <s_lp_Force_Field>  (143) 
OPLS3e

>  <r_lp_Energy>  (143) 
203.946

>  <b_lp_Chiralities_Consistent>  (143) 
1

>  <s_lp_Variant>  (143) 
49:0-1

>  <s_i_glide_gridfile>  (143) 
pfpi4k_grid

>  <i_i_glide_lignum>  (143) 
21

>  <i_i_glide_rotatable_bonds>  (143) 
5

>  <r_i_docking_score>  (143) 
-2.70109

>  <r_i_glide_ligand_efficiency>  (143) 
-0.0710813

>  <r_i_glide_ligand_efficiency_sa>  (143) 
-0.238974

>  <r_i_glide_ligand_efficiency_ln>  (143) 
-0.582434

>  <r_i_glide_gscore>  (143) 
-2.70109

>  <r_i_glide_lipo>  (143) 
-0.312704

>  <r_i_glide_hbond>  (143) 
-0.34493

>  <r_i_glide_metal>  (143) 
-0

>  <r_i_glide_rewards>  (143) 
0

>  <r_i_glide_evdw>  (143) 
-17.6967

>  <r_i_glide_ecoul>  (143) 
-9.24083

>  <r_i_glide_erotb>  (143) 
0.315324

>  <r_i_glide_esite>  (143) 
-0.0878186

>  <r_i_glide_emodel>  (143) 
-34.1282

>  <r_i_glide_energy>  (143) 
-26.9376

>  <r_i_glide_einternal>  (143) 
1.90647

>  <r_i_glide_intrahb_reward>  (143) 
-0

>  <i_i_glide_confnum>  (143) 
1

>  <i_i_glide_posenum>  (143) 
20

>  <r_i_glide_eff_state_penalty>  (143) 
0

>  <ligand_id>  (143) 
49

>  <original_smiles>  (143) 
CN1CCC2(Cc3ccccc3)C3C4(O)Cc5c([nH]c6ccccc56)C5C(CCC14)N(CC1CC1)CCC532

>  <smiles>  (143) 
[H]OC12C([H])([H])c3c(n([H])c4c([H])c([H])c([H])c([H])c34)C3([H])C45C([H])([H])C([H])([H])[N+]([H])(C([H])([H])C6([H])C([H])([H])C6([H])[H])C3([H])C([H])([H])C([H])([H])C1([H])[N+]([H])(C([H])([H])[H])C([H])([H])C([H])([H])C4(C([H])([H])c1c([H])c([H])c([H])c([H])c1[H])C25[H]

$$$$
49:0:1
     RDKit          3D

 81 89  0  0  1  0  0  0  0  0999 V2000
    0.4816  -10.8732    2.7608 C   0  0  0  0  0  0  0  0  0  0  0  0
    0.2848  -10.2585    4.0956 N   0  0  1  0  0  0  0  0  0  0  0  0
    1.0500  -11.0306    5.1917 C   0  0  0  0  0  0  0  0  0  0  0  0
    2.5486  -10.6758    5.6556 C   0  0  0  0  0  0  0  0  0  0  0  0
    2.8645   -9.2259    6.1394 C   0  0  2  0  0  0  0  0  0  0  0  0
    2.7317   -9.0000    7.6488 C   0  0  0  0  0  0  0  0  0  0  0  0
    3.9875   -9.3688    8.4144 C   0  0  0  0  0  0  0  0  0  0  0  0
    4.9132   -8.3728    8.7945 C   0  0  0  0  0  0  0  0  0  0  0  0
    6.0724   -8.7264    9.5133 C   0  0  0  0  0  0  0  0  0  0  0  0
    6.3109  -10.0726    9.8532 C   0  0  0  0  0  0  0  0  0  0  0  0
    5.3819  -11.0655    9.4855 C   0  0  0  0  0  0  0  0  0  0  0  0
    4.2189  -10.7115    8.7773 C   0  0  0  0  0  0  0  0  0  0  0  0
    2.1831   -8.5235    5.1015 C   0  0  1  0  0  0  0  0  0  0  0  0
    0.7147   -8.1181    5.3835 C   0  0  1  0  0  0  0  0  0  0  0  0
    0.0834   -8.7513    6.4885 O   0  0  0  0  0  0  0  0  0  0  0  0
    0.2820   -6.6483    5.6990 C   0  0  0  0  0  0  0  0  0  0  0  0
    1.2978   -5.7895    6.3551 C   0  0  0  0  0  0  0  0  0  0  0  0
    2.6277   -5.7684    6.0544 C   0  0  0  0  0  0  0  0  0  0  0  0
    3.2489   -4.8591    6.9021 N   0  0  0  0  0  0  0  0  0  0  0  0
    2.3375   -4.2625    7.7498 C   0  0  0  0  0  0  0  0  0  0  0  0
    2.4747   -3.2892    8.7608 C   0  0  0  0  0  0  0  0  0  0  0  0
    1.3429   -2.8585    9.4736 C   0  0  0  0  0  0  0  0  0  0  0  0
    0.0822   -3.4081    9.1715 C   0  0  0  0  0  0  0  0  0  0  0  0
   -0.0437   -4.3802    8.1553 C   0  0  0  0  0  0  0  0  0  0  0  0
    1.0810   -4.8359    7.4194 C   0  0  0  0  0  0  0  0  0  0  0  0
    3.3952   -6.5513    5.0336 C   0  0  2  0  0  0  0  0  0  0  0  0
    2.9936   -6.3278    3.5071 C   0  0  2  0  0  0  0  0  0  0  0  0
    1.5275   -6.5592    2.9026 C   0  0  0  0  0  0  0  0  0  0  0  0
    0.7325   -7.9463    2.8173 C   0  0  0  0  0  0  0  0  0  0  0  0
    0.1265   -8.7165    4.1039 C   0  0  1  0  0  0  0  0  0  0  0  0
    4.0510   -6.8670    2.5897 N   0  0  1  0  0  0  0  0  0  0  0  0
    5.2286   -5.9611    2.4472 C   0  0  0  0  0  0  0  0  0  0  0  0
    6.1586   -6.3663    1.3145 C   0  0  0  0  0  0  0  0  0  0  0  0
    7.4244   -7.1531    1.6013 C   0  0  0  0  0  0  0  0  0  0  0  0
    7.5197   -5.7123    1.1807 C   0  0  0  0  0  0  0  0  0  0  0  0
    4.4324   -8.2739    2.8966 C   0  0  0  0  0  0  0  0  0  0  0  0
    4.7077   -8.5022    4.4047 C   0  0  0  0  0  0  0  0  0  0  0  0
    3.5535   -8.0466    5.3135 C   0  0  1  0  0  0  0  0  0  0  0  0
    4.2395   -4.6719    6.8876 H   0  0  0  0  0  0  0  0  0  0  0  0
    1.5229  -10.7876    2.4471 H   0  0  0  0  0  0  0  0  0  0  0  0
   -0.1704  -10.4087    2.0206 H   0  0  0  0  0  0  0  0  0  0  0  0
    0.2328  -11.9360    2.7729 H   0  0  0  0  0  0  0  0  0  0  0  0
    0.4056  -11.0889    6.0660 H   0  0  0  0  0  0  0  0  0  0  0  0
    1.0943  -12.0737    4.8738 H   0  0  0  0  0  0  0  0  0  0  0  0
    2.8490  -11.3661    6.4374 H   0  0  0  0  0  0  0  0  0  0  0  0
    3.2299  -10.9339    4.8435 H   0  0  0  0  0  0  0  0  0  0  0  0
    2.5119   -7.9483    7.8310 H   0  0  0  0  0  0  0  0  0  0  0  0
    1.8950   -9.5693    8.0557 H   0  0  0  0  0  0  0  0  0  0  0  0
    4.7333   -7.3369    8.5469 H   0  0  0  0  0  0  0  0  0  0  0  0
    6.7814   -7.9648    9.8036 H   0  0  0  0  0  0  0  0  0  0  0  0
    7.2016  -10.3467   10.3989 H   0  0  0  0  0  0  0  0  0  0  0  0
    5.5554  -12.0994    9.7433 H   0  0  0  0  0  0  0  0  0  0  0  0
    3.5015  -11.4775    8.5190 H   0  0  0  0  0  0  0  0  0  0  0  0
    2.3237   -9.0018    4.1435 H   0  0  0  0  0  0  0  0  0  0  0  0
    0.2190   -9.6851    6.4406 H   0  0  0  0  0  0  0  0  0  0  0  0
   -0.1548   -6.1428    4.8489 H   0  0  0  0  0  0  0  0  0  0  0  0
   -0.5855   -6.6486    6.3577 H   0  0  0  0  0  0  0  0  0  0  0  0
    3.4423   -2.8779    8.9914 H   0  0  0  0  0  0  0  0  0  0  0  0
    1.4405   -2.1166   10.2579 H   0  0  0  0  0  0  0  0  0  0  0  0
   -0.7815   -3.0928    9.7378 H   0  0  0  0  0  0  0  0  0  0  0  0
   -1.0159   -4.7943    7.9408 H   0  0  0  0  0  0  0  0  0  0  0  0
    4.4050   -6.1518    5.1227 H   0  0  0  0  0  0  0  0  0  0  0  0
    3.0694   -5.2447    3.4084 H   0  0  0  0  0  0  0  0  0  0  0  0
    0.8831   -5.7443    3.2168 H   0  0  0  0  0  0  0  0  0  0  0  0
    1.6451   -6.2889    1.8525 H   0  0  0  0  0  0  0  0  0  0  0  0
   -0.1126   -7.7858    2.1441 H   0  0  0  0  0  0  0  0  0  0  0  0
    1.3879   -8.5926    2.2346 H   0  0  0  0  0  0  0  0  0  0  0  0
   -0.9496   -8.5373    4.1153 H   0  0  0  0  0  0  0  0  0  0  0  0
    4.8930   -4.9455    2.2320 H   0  0  0  0  0  0  0  0  0  0  0  0
    5.8022   -5.9142    3.3722 H   0  0  0  0  0  0  0  0  0  0  0  0
    5.6531   -6.5728    0.3710 H   0  0  0  0  0  0  0  0  0  0  0  0
    7.6341   -7.3980    2.6417 H   0  0  0  0  0  0  0  0  0  0  0  0
    7.7199   -7.9127    0.8789 H   0  0  0  0  0  0  0  0  0  0  0  0
    7.9024   -5.5223    0.1793 H   0  0  0  0  0  0  0  0  0  0  0  0
    7.8184   -4.9890    1.9374 H   0  0  0  0  0  0  0  0  0  0  0  0
    3.6479   -8.9362    2.5333 H   0  0  0  0  0  0  0  0  0  0  0  0
    5.3015   -8.5829    2.3169 H   0  0  0  0  0  0  0  0  0  0  0  0
    4.9167   -9.5588    4.5633 H   0  0  0  0  0  0  0  0  0  0  0  0
    5.6263   -7.9914    4.6996 H   0  0  0  0  0  0  0  0  0  0  0  0
    3.6382   -6.8812    1.6689 H   0  0  0  0  0  0  0  0  0  0  0  0
   -0.6668  -10.5483    4.3313 H   0  0  0  0  0  0  0  0  0  0  0  0
  1  2  1  0
  1 40  1  0
  1 41  1  0
  1 42  1  0
  2 30  1  0
  2  3  1  0
  2 81  1  1
  3  4  1  0
  3 43  1  0
  3 44  1  0
  4  5  1  0
  4 45  1  0
  4 46  1  0
  5 38  1  0
  5  6  1  1
  5 13  1  0
  6  7  1  0
  6 47  1  0
  6 48  1  0
  7 12  1  0
  7  8  2  0
  8  9  1  0
  8 49  1  0
  9 10  2  0
  9 50  1  0
 10 11  1  0
 10 51  1  0
 11 12  2  0
 11 52  1  0
 12 53  1  0
 13 38  1  0
 13 14  1  0
 13 54  1  6
 14 30  1  0
 14 15  1  1
 14 16  1  0
 15 55  1  0
 16 17  1  0
 16 56  1  0
 16 57  1  0
 17 25  1  0
 17 18  2  0
 18 19  1  0
 18 26  1  0
 19 39  1  0
 19 20  1  0
 20 25  2  0
 20 21  1  0
 21 22  2  0
 21 58  1  0
 22 23  1  0
 22 59  1  0
 23 24  2  0
 23 60  1  0
 24 25  1  0
 24 61  1  0
 26 38  1  0
 26 27  1  0
 26 62  1  6
 27 28  1  0
 27 31  1  0
 27 63  1  1
 28 29  1  0
 28 64  1  0
 28 65  1  0
 29 30  1  0
 29 66  1  0
 29 67  1  0
 30 68  1  1
 31 32  1  0
 31 36  1  0
 31 80  1  6
 32 33  1  0
 32 69  1  0
 32 70  1  0
 33 35  1  0
 33 34  1  0
 33 71  1  0
 34 35  1  0
 34 72  1  0
 34 73  1  0
 35 74  1  0
 35 75  1  0
 36 37  1  0
 36 76  1  0
 36 77  1  0
 38 37  1  6
 37 78  1  0
 37 79  1  0
M  CHG  2   2   1  31   1
M  END
>  <i_m_ct_stereo_status>  (144) 
1

>  <s_m_source_file>  (144) 
/var/tmp/pbs.5076255.sched01/tmprtix0sri/443g93ja_l.sdf

>  <i_m_source_file_index>  (144) 
21

>  <i_lp_mmshare_version>  (144) 
48012

>  <i_f3d_flags>  (144) 
0

>  <s_epik_input>  (144) 
W2NIXTFbY0hdW2NIXVtjSF1bY0hdYzFbQ0gyXVtDQF0yKFtDQEBdMzQ1KVtDQEhdM1tDQF02KFtPSF0pW0NASF0oTihbQ0gzXSlbQ0gyXVtDSDJdMilbQ0gyXVtDSDJdW0NASF0oTihbQ0gyXVtDSDJdNSlbQ0gyXVtDSF03W0NIMl1bQ0gyXTcpW0NASF00YzhjKFtDSDJdNiljOWMoW25IXTgpW2NIXVtjSF1bY0hdW2NIXTk=

>  <s_epik_cmdline>  (144) 
J2VwaWtfcHl0aG9uJywgJy1waHQnLCAnMi4wJywgJy1waCcsICc3LjAnLCAnLXRuJywgJzgnLCAnLW1hJywgJzIwMCcsICctaW1hZScsICc8aW5maWxlLm1hZT4nLCAnLW9tYWUnLCAnPG91dGZpbGUubWFlPic=

>  <r_epik_Ionization_Penalty>  (144) 
0.018342

>  <r_epik_Ionization_Penalty_Charging>  (144) 
0.0183419

>  <r_epik_Ionization_Penalty_Neutral>  (144) 
1.1036e-07

>  <r_epik_State_Penalty>  (144) 
0.0113969

>  <r_epik_Charging_Adjusted_Penalty>  (144) 
0.0297388

>  <i_epik_Tot_Q>  (144) 
2

>  <i_epik_Tot_abs_Q>  (144) 
2

>  <s_lp_Force_Field>  (144) 
OPLS3e

>  <r_lp_Energy>  (144) 
203.946

>  <b_lp_Chiralities_Consistent>  (144) 
1

>  <s_lp_Variant>  (144) 
49:0-1

>  <s_i_glide_gridfile>  (144) 
pfpi4k_grid

>  <i_i_glide_lignum>  (144) 
21

>  <i_i_glide_rotatable_bonds>  (144) 
5

>  <r_i_docking_score>  (144) 
-2.36507

>  <r_i_glide_ligand_efficiency>  (144) 
-0.0622387

>  <r_i_glide_ligand_efficiency_sa>  (144) 
-0.209245

>  <r_i_glide_ligand_efficiency_ln>  (144) 
-0.509979

>  <r_i_glide_gscore>  (144) 
-2.36507

>  <r_i_glide_lipo>  (144) 
-0.249504

>  <r_i_glide_hbond>  (144) 
-0.2

>  <r_i_glide_metal>  (144) 
-0

>  <r_i_glide_rewards>  (144) 
0

>  <r_i_glide_evdw>  (144) 
-18.9525

>  <r_i_glide_ecoul>  (144) 
-8.09815

>  <r_i_glide_erotb>  (144) 
0.315324

>  <r_i_glide_esite>  (144) 
-0.0685445

>  <r_i_glide_emodel>  (144) 
-34.0632

>  <r_i_glide_energy>  (144) 
-27.0507

>  <r_i_glide_einternal>  (144) 
0.319441

>  <r_i_glide_intrahb_reward>  (144) 
-0

>  <i_i_glide_confnum>  (144) 
3

>  <i_i_glide_posenum>  (144) 
6

>  <r_i_glide_eff_state_penalty>  (144) 
0

>  <ligand_id>  (144) 
49

>  <original_smiles>  (144) 
CN1CCC2(Cc3ccccc3)C3C4(O)Cc5c([nH]c6ccccc56)C5C(CCC14)N(CC1CC1)CCC532

>  <smiles>  (144) 
[H]OC12C([H])([H])c3c(n([H])c4c([H])c([H])c([H])c([H])c34)C3([H])C45C([H])([H])C([H])([H])[N+]([H])(C([H])([H])C6([H])C([H])([H])C6([H])[H])C3([H])C([H])([H])C([H])([H])C1([H])[N+]([H])(C([H])([H])[H])C([H])([H])C([H])([H])C4(C([H])([H])c1c([H])c([H])c([H])c([H])c1[H])C25[H]

$$$$
49:0:2
     RDKit          3D

 81 89  0  0  1  0  0  0  0  0999 V2000
    4.3194   -4.7659    5.7976 C   0  0  0  0  0  0  0  0  0  0  0  0
    3.5719   -3.5945    6.3055 N   0  0  1  0  0  0  0  0  0  0  0  0
    4.4928   -2.6015    6.9887 C   0  0  0  0  0  0  0  0  0  0  0  0
    5.1766   -1.4068    6.2313 C   0  0  0  0  0  0  0  0  0  0  0  0
    4.3038   -0.3374    5.4757 C   0  0  2  0  0  0  0  0  0  0  0  0
    3.9003    0.9019    6.2905 C   0  0  0  0  0  0  0  0  0  0  0  0
    4.9425    2.0200    6.3362 C   0  0  0  0  0  0  0  0  0  0  0  0
    4.5772    3.3590    6.0687 C   0  0  0  0  0  0  0  0  0  0  0  0
    5.5528    4.3843    6.1364 C   0  0  0  0  0  0  0  0  0  0  0  0
    6.8953    4.0900    6.4787 C   0  0  0  0  0  0  0  0  0  0  0  0
    7.2564    2.7680    6.7592 C   0  0  0  0  0  0  0  0  0  0  0  0
    6.2933    1.7539    6.6997 C   0  0  0  0  0  0  0  0  0  0  0  0
    3.4380   -1.2639    4.8279 C   0  0  1  0  0  0  0  0  0  0  0  0
    2.1365   -1.6464    5.5650 C   0  0  1  0  0  0  0  0  0  0  0  0
    2.0741   -1.2908    6.9331 O   0  0  0  0  0  0  0  0  0  0  0  0
    0.7288   -1.1319    5.1319 C   0  0  0  0  0  0  0  0  0  0  0  0
    0.7055    0.1790    4.4287 C   0  0  0  0  0  0  0  0  0  0  0  0
    1.6068    0.6056    3.4986 C   0  0  0  0  0  0  0  0  0  0  0  0
    1.2508    1.8906    3.1075 N   0  0  0  0  0  0  0  0  0  0  0  0
    0.1068    2.3161    3.7512 C   0  0  0  0  0  0  0  0  0  0  0  0
   -0.6391    3.5076    3.6878 C   0  0  0  0  0  0  0  0  0  0  0  0
   -1.7906    3.6596    4.4815 C   0  0  0  0  0  0  0  0  0  0  0  0
   -2.1773    2.6149    5.3357 C   0  0  0  0  0  0  0  0  0  0  0  0
   -1.4272    1.4240    5.3849 C   0  0  0  0  0  0  0  0  0  0  0  0
   -0.2587    1.2358    4.6016 C   0  0  0  0  0  0  0  0  0  0  0  0
    2.8185   -0.0824    2.9411 C   0  0  2  0  0  0  0  0  0  0  0  0
    2.5566   -1.4325    2.1501 C   0  0  2  0  0  0  0  0  0  0  0  0
    1.8288   -2.7226    2.7500 C   0  0  0  0  0  0  0  0  0  0  0  0
    2.3290   -3.6413    3.9591 C   0  0  0  0  0  0  0  0  0  0  0  0
    2.3409   -3.1600    5.4942 C   0  0  1  0  0  0  0  0  0  0  0  0
    3.7528   -1.8171    1.3399 N   0  0  1  0  0  0  0  0  0  0  0  0
    3.8996   -1.0400    0.0754 C   0  0  0  0  0  0  0  0  0  0  0  0
    4.4884   -1.8836   -1.0395 C   0  0  0  0  0  0  0  0  0  0  0  0
    5.9709   -1.8551   -1.3553 C   0  0  0  0  0  0  0  0  0  0  0  0
    4.9994   -1.1926   -2.2953 C   0  0  0  0  0  0  0  0  0  0  0  0
    5.0070   -1.8340    2.1275 C   0  0  0  0  0  0  0  0  0  0  0  0
    5.1841   -0.5668    3.0056 C   0  0  0  0  0  0  0  0  0  0  0  0
    3.9780   -0.2628    3.9129 C   0  0  1  0  0  0  0  0  0  0  0  0
    1.7470    2.4483    2.4228 H   0  0  0  0  0  0  0  0  0  0  0  0
    5.0030   -4.4964    4.9883 H   0  0  0  0  0  0  0  0  0  0  0  0
    3.6414   -5.5449    5.4461 H   0  0  0  0  0  0  0  0  0  0  0  0
    4.9261   -5.2169    6.5851 H   0  0  0  0  0  0  0  0  0  0  0  0
    4.0429   -2.2094    7.8960 H   0  0  0  0  0  0  0  0  0  0  0  0
    5.3354   -3.1539    7.3910 H   0  0  0  0  0  0  0  0  0  0  0  0
    5.7240   -0.9752    7.0758 H   0  0  0  0  0  0  0  0  0  0  0  0
    5.9441   -1.7665    5.5393 H   0  0  0  0  0  0  0  0  0  0  0  0
    2.9914    1.3012    5.8420 H   0  0  0  0  0  0  0  0  0  0  0  0
    3.6503    0.6393    7.3176 H   0  0  0  0  0  0  0  0  0  0  0  0
    3.5549    3.6156    5.8073 H   0  0  0  0  0  0  0  0  0  0  0  0
    5.2786    5.4105    5.9117 H   0  0  0  0  0  0  0  0  0  0  0  0
    7.6578    4.8501    6.5195 H   0  0  0  0  0  0  0  0  0  0  0  0
    8.2606    2.4741    7.0230 H   0  0  0  0  0  0  0  0  0  0  0  0
    6.6898    0.7750    6.9616 H   0  0  0  0  0  0  0  0  0  0  0  0
    3.9847   -2.1125    4.4588 H   0  0  0  0  0  0  0  0  0  0  0  0
    2.1246   -0.3470    6.9881 H   0  0  0  0  0  0  0  0  0  0  0  0
    0.1709   -1.8647    4.5688 H   0  0  0  0  0  0  0  0  0  0  0  0
    0.0744   -1.0560    5.9998 H   0  0  0  0  0  0  0  0  0  0  0  0
   -0.3305    4.2948    3.0183 H   0  0  0  0  0  0  0  0  0  0  0  0
   -2.3836    4.5590    4.4282 H   0  0  0  0  0  0  0  0  0  0  0  0
   -3.0722    2.7244    5.9442 H   0  0  0  0  0  0  0  0  0  0  0  0
   -1.7574    0.6269    6.0309 H   0  0  0  0  0  0  0  0  0  0  0  0
    3.1821    0.6215    2.1854 H   0  0  0  0  0  0  0  0  0  0  0  0
    1.8002   -1.1403    1.4327 H   0  0  0  0  0  0  0  0  0  0  0  0
    0.7589   -2.5296    2.8176 H   0  0  0  0  0  0  0  0  0  0  0  0
    1.8259   -3.4223    1.9171 H   0  0  0  0  0  0  0  0  0  0  0  0
    1.7210   -4.5476    3.9433 H   0  0  0  0  0  0  0  0  0  0  0  0
    3.3080   -3.9862    3.6397 H   0  0  0  0  0  0  0  0  0  0  0  0
    1.4896   -3.6171    5.9898 H   0  0  0  0  0  0  0  0  0  0  0  0
    2.9558   -0.6760   -0.3090 H   0  0  0  0  0  0  0  0  0  0  0  0
    4.5049   -0.1535    0.2141 H   0  0  0  0  0  0  0  0  0  0  0  0
    3.9557   -2.8090   -1.2388 H   0  0  0  0  0  0  0  0  0  0  0  0
    6.5825   -1.2302   -0.7114 H   0  0  0  0  0  0  0  0  0  0  0  0
    6.4254   -2.7933   -1.6750 H   0  0  0  0  0  0  0  0  0  0  0  0
    4.8423   -1.6846   -3.2549 H   0  0  0  0  0  0  0  0  0  0  0  0
    4.9858   -0.1068   -2.3246 H   0  0  0  0  0  0  0  0  0  0  0  0
    5.0344   -2.7263    2.7476 H   0  0  0  0  0  0  0  0  0  0  0  0
    5.8680   -1.9491    1.4703 H   0  0  0  0  0  0  0  0  0  0  0  0
    6.0883   -0.6635    3.6075 H   0  0  0  0  0  0  0  0  0  0  0  0
    5.3900    0.2937    2.3641 H   0  0  0  0  0  0  0  0  0  0  0  0
    3.5866   -2.7507    1.0374 H   0  0  0  0  0  0  0  0  0  0  0  0
    3.1339   -3.9652    7.1259 H   0  0  0  0  0  0  0  0  0  0  0  0
  1  2  1  0
  1 40  1  0
  1 41  1  0
  1 42  1  0
  2 30  1  0
  2  3  1  0
  2 81  1  1
  3  4  1  0
  3 43  1  0
  3 44  1  0
  4  5  1  0
  4 45  1  0
  4 46  1  0
  5 38  1  0
  5  6  1  1
  5 13  1  0
  6  7  1  0
  6 47  1  0
  6 48  1  0
  7 12  1  0
  7  8  2  0
  8  9  1  0
  8 49  1  0
  9 10  2  0
  9 50  1  0
 10 11  1  0
 10 51  1  0
 11 12  2  0
 11 52  1  0
 12 53  1  0
 13 38  1  0
 13 14  1  0
 13 54  1  6
 14 30  1  0
 14 15  1  1
 14 16  1  0
 15 55  1  0
 16 17  1  0
 16 56  1  0
 16 57  1  0
 17 25  1  0
 17 18  2  0
 18 19  1  0
 18 26  1  0
 19 39  1  0
 19 20  1  0
 20 25  2  0
 20 21  1  0
 21 22  2  0
 21 58  1  0
 22 23  1  0
 22 59  1  0
 23 24  2  0
 23 60  1  0
 24 25  1  0
 24 61  1  0
 26 38  1  0
 26 27  1  0
 26 62  1  6
 27 28  1  0
 27 31  1  0
 27 63  1  6
 28 29  1  0
 28 64  1  0
 28 65  1  0
 29 30  1  0
 29 66  1  0
 29 67  1  0
 30 68  1  1
 31 32  1  0
 31 36  1  0
 31 80  1  6
 32 33  1  0
 32 69  1  0
 32 70  1  0
 33 35  1  0
 33 34  1  0
 33 71  1  0
 34 35  1  0
 34 72  1  0
 34 73  1  0
 35 74  1  0
 35 75  1  0
 36 37  1  0
 36 76  1  0
 36 77  1  0
 38 37  1  6
 37 78  1  0
 37 79  1  0
M  CHG  2   2   1  31   1
M  END
>  <i_m_ct_stereo_status>  (145) 
1

>  <s_m_source_file>  (145) 
/var/tmp/pbs.5076255.sched01/tmprtix0sri/443g93ja_l.sdf

>  <i_m_source_file_index>  (145) 
21

>  <i_lp_mmshare_version>  (145) 
48012

>  <i_f3d_flags>  (145) 
0

>  <s_epik_input>  (145) 
W2NIXTFbY0hdW2NIXVtjSF1bY0hdYzFbQ0gyXVtDQF0yKFtDQEBdMzQ1KVtDQEhdM1tDQF02KFtPSF0pW0NASF0oTihbQ0gzXSlbQ0gyXVtDSDJdMilbQ0gyXVtDSDJdW0NASF0oTihbQ0gyXVtDSDJdNSlbQ0gyXVtDSF03W0NIMl1bQ0gyXTcpW0NASF00YzhjKFtDSDJdNiljOWMoW25IXTgpW2NIXVtjSF1bY0hdW2NIXTk=

>  <s_epik_cmdline>  (145) 
J2VwaWtfcHl0aG9uJywgJy1waHQnLCAnMi4wJywgJy1waCcsICc3LjAnLCAnLXRuJywgJzgnLCAnLW1hJywgJzIwMCcsICctaW1hZScsICc8aW5maWxlLm1hZT4nLCAnLW9tYWUnLCAnPG91dGZpbGUubWFlPic=

>  <r_epik_Ionization_Penalty>  (145) 
0.018342

>  <r_epik_Ionization_Penalty_Charging>  (145) 
0.0183419

>  <r_epik_Ionization_Penalty_Neutral>  (145) 
1.1036e-07

>  <r_epik_State_Penalty>  (145) 
0.0113969

>  <r_epik_Charging_Adjusted_Penalty>  (145) 
0.0297388

>  <i_epik_Tot_Q>  (145) 
2

>  <i_epik_Tot_abs_Q>  (145) 
2

>  <s_lp_Force_Field>  (145) 
OPLS3e

>  <r_lp_Energy>  (145) 
203.946

>  <b_lp_Chiralities_Consistent>  (145) 
1

>  <s_lp_Variant>  (145) 
49:0-1

>  <s_i_glide_gridfile>  (145) 
pfpi4k_grid

>  <i_i_glide_lignum>  (145) 
21

>  <i_i_glide_rotatable_bonds>  (145) 
5

>  <r_i_docking_score>  (145) 
-2.09192

>  <r_i_glide_ligand_efficiency>  (145) 
-0.0550504

>  <r_i_glide_ligand_efficiency_sa>  (145) 
-0.185078

>  <r_i_glide_ligand_efficiency_ln>  (145) 
-0.451079

>  <r_i_glide_gscore>  (145) 
-2.09192

>  <r_i_glide_lipo>  (145) 
-0.432847

>  <r_i_glide_hbond>  (145) 
0

>  <r_i_glide_metal>  (145) 
-0

>  <r_i_glide_rewards>  (145) 
0

>  <r_i_glide_evdw>  (145) 
-25.5254

>  <r_i_glide_ecoul>  (145) 
-4.33301

>  <r_i_glide_erotb>  (145) 
0.315324

>  <r_i_glide_esite>  (145) 
-0.0481725

>  <r_i_glide_emodel>  (145) 
-34.6112

>  <r_i_glide_energy>  (145) 
-29.8584

>  <r_i_glide_einternal>  (145) 
1.79049

>  <r_i_glide_intrahb_reward>  (145) 
-0

>  <i_i_glide_confnum>  (145) 
3

>  <i_i_glide_posenum>  (145) 
8

>  <r_i_glide_eff_state_penalty>  (145) 
0

>  <ligand_id>  (145) 
49

>  <original_smiles>  (145) 
CN1CCC2(Cc3ccccc3)C3C4(O)Cc5c([nH]c6ccccc56)C5C(CCC14)N(CC1CC1)CCC532

>  <smiles>  (145) 
[H]OC12C([H])([H])c3c(n([H])c4c([H])c([H])c([H])c([H])c34)C3([H])C45C([H])([H])C([H])([H])[N+]([H])(C([H])([H])C6([H])C([H])([H])C6([H])[H])C3([H])C([H])([H])C([H])([H])C1([H])[N+]([H])(C([H])([H])[H])C([H])([H])C([H])([H])C4(C([H])([H])c1c([H])c([H])c([H])c([H])c1[H])C25[H]

$$$$
49:1:0
     RDKit          3D

 80 88  0  0  1  0  0  0  0  0999 V2000
    3.5149   -5.2941    5.7647 C   0  0  0  0  0  0  0  0  0  0  0  0
    3.6051   -3.8728    5.4684 N   0  0  0  0  0  0  0  0  0  0  0  0
    4.3895   -3.0726    6.4839 C   0  0  0  0  0  0  0  0  0  0  0  0
    5.1163   -1.6980    6.0912 C   0  0  0  0  0  0  0  0  0  0  0  0
    4.3294   -0.5547    5.3615 C   0  0  2  0  0  0  0  0  0  0  0  0
    3.8695    0.5779    6.2748 C   0  0  0  0  0  0  0  0  0  0  0  0
    4.8455    1.7418    6.3423 C   0  0  0  0  0  0  0  0  0  0  0  0
    6.1892    1.5247    6.7167 C   0  0  0  0  0  0  0  0  0  0  0  0
    7.0925    2.5959    6.7996 C   0  0  0  0  0  0  0  0  0  0  0  0
    6.6589    3.9037    6.5163 C   0  0  0  0  0  0  0  0  0  0  0  0
    5.3156    4.1348    6.1554 C   0  0  0  0  0  0  0  0  0  0  0  0
    4.4097    3.0579    6.0687 C   0  0  0  0  0  0  0  0  0  0  0  0
    3.5326   -1.3594    4.4978 C   0  0  1  0  0  0  0  0  0  0  0  0
    2.1666   -1.8094    5.0603 C   0  0  1  0  0  0  0  0  0  0  0  0
    1.9964   -1.6173    6.4578 O   0  0  0  0  0  0  0  0  0  0  0  0
    0.8025   -1.2183    4.5734 C   0  0  0  0  0  0  0  0  0  0  0  0
    0.8473    0.1626    4.0196 C   0  0  0  0  0  0  0  0  0  0  0  0
    1.8418    0.6784    3.2383 C   0  0  0  0  0  0  0  0  0  0  0  0
    1.5308    2.0050    2.9494 N   0  0  0  0  0  0  0  0  0  0  0  0
    0.3246    2.3641    3.5204 C   0  0  0  0  0  0  0  0  0  0  0  0
   -0.4078    3.5624    3.5124 C   0  0  0  0  0  0  0  0  0  0  0  0
   -1.6454    3.6330    4.1718 C   0  0  0  0  0  0  0  0  0  0  0  0
   -2.1259    2.5040    4.8577 C   0  0  0  0  0  0  0  0  0  0  0  0
   -1.3821    1.3096    4.8626 C   0  0  0  0  0  0  0  0  0  0  0  0
   -0.1335    1.2037    4.1965 C   0  0  0  0  0  0  0  0  0  0  0  0
    3.0965    0.0396    2.7358 C   0  0  2  0  0  0  0  0  0  0  0  0
    2.9153   -1.2132    1.7617 C   0  0  2  0  0  0  0  0  0  0  0  0
    2.0945   -2.5392    2.1180 C   0  0  0  0  0  0  0  0  0  0  0  0
    2.3988   -3.6134    3.2627 C   0  0  0  0  0  0  0  0  0  0  0  0
    2.3456   -3.3141    4.8295 C   0  0  1  0  0  0  0  0  0  0  0  0
    4.1940   -1.5262    1.0428 N   0  0  1  0  0  0  0  0  0  0  0  0
    4.4577   -0.6166   -0.1087 C   0  0  0  0  0  0  0  0  0  0  0  0
    3.8807   -1.1455   -1.4151 C   0  0  0  0  0  0  0  0  0  0  0  0
    4.7683   -1.8125   -2.4492 C   0  0  0  0  0  0  0  0  0  0  0  0
    4.2061   -0.4445   -2.7207 C   0  0  0  0  0  0  0  0  0  0  0  0
    5.3694   -1.6400    1.9471 C   0  0  0  0  0  0  0  0  0  0  0  0
    5.4543   -0.4758    2.9693 C   0  0  0  0  0  0  0  0  0  0  0  0
    4.1692   -0.2590    3.7881 C   0  0  1  0  0  0  0  0  0  0  0  0
    2.1045    2.6123    2.3844 H   0  0  0  0  0  0  0  0  0  0  0  0
    4.5081   -5.7065    5.9496 H   0  0  0  0  0  0  0  0  0  0  0  0
    3.0920   -5.8378    4.9183 H   0  0  0  0  0  0  0  0  0  0  0  0
    2.8938   -5.4784    6.6403 H   0  0  0  0  0  0  0  0  0  0  0  0
    3.8026   -2.9350    7.3901 H   0  0  0  0  0  0  0  0  0  0  0  0
    5.2182   -3.7036    6.8110 H   0  0  0  0  0  0  0  0  0  0  0  0
    5.5524   -1.3125    7.0102 H   0  0  0  0  0  0  0  0  0  0  0  0
    5.9610   -1.9585    5.4593 H   0  0  0  0  0  0  0  0  0  0  0  0
    2.9118    0.9451    5.9044 H   0  0  0  0  0  0  0  0  0  0  0  0
    3.7038    0.1979    7.2822 H   0  0  0  0  0  0  0  0  0  0  0  0
    6.5515    0.5401    6.9545 H   0  0  0  0  0  0  0  0  0  0  0  0
    8.1159    2.4008    7.0813 H   0  0  0  0  0  0  0  0  0  0  0  0
    7.3594    4.7225    6.5769 H   0  0  0  0  0  0  0  0  0  0  0  0
    4.9824    5.1384    5.9380 H   0  0  0  0  0  0  0  0  0  0  0  0
    3.3821    3.2495    5.7939 H   0  0  0  0  0  0  0  0  0  0  0  0
    4.0892   -2.1528    4.0305 H   0  0  0  0  0  0  0  0  0  0  0  0
    2.0669   -0.6901    6.6292 H   0  0  0  0  0  0  0  0  0  0  0  0
    0.2898   -1.8767    3.8844 H   0  0  0  0  0  0  0  0  0  0  0  0
    0.0752   -1.2185    5.3874 H   0  0  0  0  0  0  0  0  0  0  0  0
   -0.0386    4.4065    2.9557 H   0  0  0  0  0  0  0  0  0  0  0  0
   -2.2315    4.5393    4.1418 H   0  0  0  0  0  0  0  0  0  0  0  0
   -3.0731    2.5598    5.3686 H   0  0  0  0  0  0  0  0  0  0  0  0
   -1.7698    0.4504    5.3770 H   0  0  0  0  0  0  0  0  0  0  0  0
    3.5466    0.8225    2.1261 H   0  0  0  0  0  0  0  0  0  0  0  0
    2.2689   -0.8110    0.9803 H   0  0  0  0  0  0  0  0  0  0  0  0
    1.0422   -2.2850    2.0911 H   0  0  0  0  0  0  0  0  0  0  0  0
    2.1818   -3.1413    1.2119 H   0  0  0  0  0  0  0  0  0  0  0  0
    1.7397   -4.4691    3.0958 H   0  0  0  0  0  0  0  0  0  0  0  0
    3.3905   -4.0131    3.0370 H   0  0  0  0  0  0  0  0  0  0  0  0
    1.4692   -3.8028    5.2575 H   0  0  0  0  0  0  0  0  0  0  0  0
    4.0643    0.3757    0.0843 H   0  0  0  0  0  0  0  0  0  0  0  0
    5.5233   -0.4654   -0.2646 H   0  0  0  0  0  0  0  0  0  0  0  0
    2.8584   -1.5195   -1.3481 H   0  0  0  0  0  0  0  0  0  0  0  0
    5.8303   -1.8996   -2.2235 H   0  0  0  0  0  0  0  0  0  0  0  0
    4.3416   -2.6435   -3.0103 H   0  0  0  0  0  0  0  0  0  0  0  0
    3.4112   -0.3716   -3.4615 H   0  0  0  0  0  0  0  0  0  0  0  0
    4.8934    0.3974   -2.7088 H   0  0  0  0  0  0  0  0  0  0  0  0
    5.3328   -2.6018    2.4569 H   0  0  0  0  0  0  0  0  0  0  0  0
    6.2907   -1.6924    1.3612 H   0  0  0  0  0  0  0  0  0  0  0  0
    6.2748   -0.6522    3.6510 H   0  0  0  0  0  0  0  0  0  0  0  0
    5.7170    0.4463    2.4541 H   0  0  0  0  0  0  0  0  0  0  0  0
    4.0776   -2.4418    0.6307 H   0  0  0  0  0  0  0  0  0  0  0  0
  1  2  1  0
  1 40  1  0
  1 41  1  0
  1 42  1  0
  2 30  1  0
  2  3  1  0
  3  4  1  0
  3 43  1  0
  3 44  1  0
  4  5  1  0
  4 45  1  0
  4 46  1  0
  5 38  1  0
  5  6  1  1
  5 13  1  0
  6  7  1  0
  6 47  1  0
  6 48  1  0
  7 12  1  0
  7  8  2  0
  8  9  1  0
  8 49  1  0
  9 10  2  0
  9 50  1  0
 10 11  1  0
 10 51  1  0
 11 12  2  0
 11 52  1  0
 12 53  1  0
 13 38  1  0
 13 14  1  0
 13 54  1  6
 14 30  1  0
 14 15  1  1
 14 16  1  0
 15 55  1  0
 16 17  1  0
 16 56  1  0
 16 57  1  0
 17 25  1  0
 17 18  2  0
 18 19  1  0
 18 26  1  0
 19 39  1  0
 19 20  1  0
 20 25  2  0
 20 21  1  0
 21 22  2  0
 21 58  1  0
 22 23  1  0
 22 59  1  0
 23 24  2  0
 23 60  1  0
 24 25  1  0
 24 61  1  0
 26 38  1  0
 26 27  1  0
 26 62  1  6
 27 28  1  0
 27 31  1  0
 27 63  1  6
 28 29  1  0
 28 64  1  0
 28 65  1  0
 29 30  1  0
 29 66  1  0
 29 67  1  0
 30 68  1  1
 31 32  1  0
 31 36  1  0
 31 80  1  6
 32 33  1  0
 32 69  1  0
 32 70  1  0
 33 35  1  0
 33 34  1  0
 33 71  1  0
 34 35  1  0
 34 72  1  0
 34 73  1  0
 35 74  1  0
 35 75  1  0
 36 37  1  0
 36 76  1  0
 36 77  1  0
 38 37  1  6
 37 78  1  0
 37 79  1  0
M  CHG  1  31   1
M  END
>  <i_m_ct_stereo_status>  (146) 
1

>  <s_m_source_file>  (146) 
/var/tmp/pbs.5076255.sched01/tmprtix0sri/443g93ja_l.sdf

>  <i_m_source_file_index>  (146) 
22

>  <i_lp_mmshare_version>  (146) 
48012

>  <i_f3d_flags>  (146) 
0

>  <s_epik_input>  (146) 
W2NIXTFbY0hdW2NIXVtjSF1bY0hdYzFbQ0gyXVtDQF0yKFtDQEBdMzQ1KVtDQEhdM1tDQF02KFtPSF0pW0NASF0oTihbQ0gzXSlbQ0gyXVtDSDJdMilbQ0gyXVtDSDJdW0NASF0oTihbQ0gyXVtDSDJdNSlbQ0gyXVtDSF03W0NIMl1bQ0gyXTcpW0NASF00YzhjKFtDSDJdNiljOWMoW25IXTgpW2NIXVtjSF1bY0hdW2NIXTk=

>  <s_epik_cmdline>  (146) 
J2VwaWtfcHl0aG9uJywgJy1waHQnLCAnMi4wJywgJy1waCcsICc3LjAnLCAnLXRuJywgJzgnLCAnLW1hJywgJzIwMCcsICctaW1hZScsICc8aW5maWxlLm1hZT4nLCAnLW9tYWUnLCAnPG91dGZpbGUubWFlPic=

>  <r_epik_Ionization_Penalty>  (146) 
2.20401

>  <r_epik_Ionization_Penalty_Charging>  (146) 
0.00105177

>  <r_epik_Ionization_Penalty_Neutral>  (146) 
2.20296

>  <r_epik_State_Penalty>  (146) 
2.34659

>  <r_epik_Charging_Adjusted_Penalty>  (146) 
2.34765

>  <i_epik_Tot_Q>  (146) 
1

>  <i_epik_Tot_abs_Q>  (146) 
1

>  <s_lp_Force_Field>  (146) 
OPLS3e

>  <r_lp_Energy>  (146) 
193.601

>  <b_lp_Chiralities_Consistent>  (146) 
1

>  <s_lp_Variant>  (146) 
49:0-2

>  <s_i_glide_gridfile>  (146) 
pfpi4k_grid

>  <i_i_glide_lignum>  (146) 
22

>  <i_i_glide_rotatable_bonds>  (146) 
5

>  <r_i_docking_score>  (146) 
-2.10432

>  <r_i_glide_ligand_efficiency>  (146) 
-0.0553767

>  <r_i_glide_ligand_efficiency_sa>  (146) 
-0.186175

>  <r_i_glide_ligand_efficiency_ln>  (146) 
-0.453753

>  <r_i_glide_gscore>  (146) 
-2.10432

>  <r_i_glide_lipo>  (146) 
-0.598845

>  <r_i_glide_hbond>  (146) 
0

>  <r_i_glide_metal>  (146) 
-0

>  <r_i_glide_rewards>  (146) 
0

>  <r_i_glide_evdw>  (146) 
-25.5892

>  <r_i_glide_ecoul>  (146) 
-3.3366

>  <r_i_glide_erotb>  (146) 
0.316472

>  <r_i_glide_esite>  (146) 
-0.0419933

>  <r_i_glide_emodel>  (146) 
-31.8312

>  <r_i_glide_energy>  (146) 
-28.9258

>  <r_i_glide_einternal>  (146) 
1.7642

>  <r_i_glide_intrahb_reward>  (146) 
-0

>  <i_i_glide_confnum>  (146) 
1

>  <i_i_glide_posenum>  (146) 
6

>  <r_i_glide_eff_state_penalty>  (146) 
0

>  <ligand_id>  (146) 
49

>  <original_smiles>  (146) 
CN1CCC2(Cc3ccccc3)C3C4(O)Cc5c([nH]c6ccccc56)C5C(CCC14)N(CC1CC1)CCC532

>  <smiles>  (146) 
[H]OC12C([H])([H])c3c(n([H])c4c([H])c([H])c([H])c([H])c34)C3([H])C45C([H])([H])C([H])([H])[N+]([H])(C([H])([H])C6([H])C([H])([H])C6([H])[H])C3([H])C([H])([H])C([H])([H])C1([H])N(C([H])([H])[H])C([H])([H])C([H])([H])C4(C([H])([H])c1c([H])c([H])c([H])c([H])c1[H])C25[H]

$$$$
49:1:1
     RDKit          3D

 80 88  0  0  1  0  0  0  0  0999 V2000
    3.5591   -5.1599    6.4527 C   0  0  0  0  0  0  0  0  0  0  0  0
    3.6270   -3.7781    6.0057 N   0  0  0  0  0  0  0  0  0  0  0  0
    4.5059   -2.9010    6.8592 C   0  0  0  0  0  0  0  0  0  0  0  0
    5.1989   -1.5879    6.2720 C   0  0  0  0  0  0  0  0  0  0  0  0
    4.3659   -0.5000    5.5076 C   0  0  2  0  0  0  0  0  0  0  0  0
    4.0209    0.7354    6.3363 C   0  0  0  0  0  0  0  0  0  0  0  0
    5.1156    1.7939    6.3724 C   0  0  0  0  0  0  0  0  0  0  0  0
    4.7673    3.1635    6.4212 C   0  0  0  0  0  0  0  0  0  0  0  0
    5.7768    4.1487    6.4805 C   0  0  0  0  0  0  0  0  0  0  0  0
    7.1362    3.7738    6.5092 C   0  0  0  0  0  0  0  0  0  0  0  0
    7.4845    2.4119    6.4744 C   0  0  0  0  0  0  0  0  0  0  0  0
    6.4849    1.4326    6.3968 C   0  0  0  0  0  0  0  0  0  0  0  0
    3.4823   -1.3645    4.8026 C   0  0  1  0  0  0  0  0  0  0  0  0
    2.1729   -1.7366    5.5344 C   0  0  1  0  0  0  0  0  0  0  0  0
    2.1336   -1.4111    6.9151 O   0  0  0  0  0  0  0  0  0  0  0  0
    0.7713   -1.1705    5.1264 C   0  0  0  0  0  0  0  0  0  0  0  0
    0.7740    0.1482    4.4341 C   0  0  0  0  0  0  0  0  0  0  0  0
    1.6935    0.5689    3.5147 C   0  0  0  0  0  0  0  0  0  0  0  0
    1.3604    1.8642    3.1193 N   0  0  0  0  0  0  0  0  0  0  0  0
    0.2127    2.2950    3.7592 C   0  0  0  0  0  0  0  0  0  0  0  0
   -0.5141    3.4951    3.6883 C   0  0  0  0  0  0  0  0  0  0  0  0
   -1.6742    3.6453    4.4654 C   0  0  0  0  0  0  0  0  0  0  0  0
   -2.0918    2.6025    5.3105 C   0  0  0  0  0  0  0  0  0  0  0  0
   -1.3546    1.4064    5.3704 C   0  0  0  0  0  0  0  0  0  0  0  0
   -0.1791    1.2178    4.5961 C   0  0  0  0  0  0  0  0  0  0  0  0
    2.8907   -0.1376    2.9584 C   0  0  2  0  0  0  0  0  0  0  0  0
    2.6039   -1.4779    2.1459 C   0  0  2  0  0  0  0  0  0  0  0  0
    1.8142   -2.7530    2.7110 C   0  0  0  0  0  0  0  0  0  0  0  0
    2.2198   -3.7161    3.9177 C   0  0  0  0  0  0  0  0  0  0  0  0
    2.3162   -3.2615    5.4436 C   0  0  1  0  0  0  0  0  0  0  0  0
    3.7981   -1.8806    1.3335 N   0  0  1  0  0  0  0  0  0  0  0  0
    3.9524   -1.1009    0.0695 C   0  0  0  0  0  0  0  0  0  0  0  0
    4.5650   -1.9268   -1.0482 C   0  0  0  0  0  0  0  0  0  0  0  0
    6.0450   -1.8551   -1.3532 C   0  0  0  0  0  0  0  0  0  0  0  0
    5.0593   -1.2159   -2.2919 C   0  0  0  0  0  0  0  0  0  0  0  0
    5.0627   -1.9274    2.1247 C   0  0  0  0  0  0  0  0  0  0  0  0
    5.2630   -0.6706    3.0185 C   0  0  0  0  0  0  0  0  0  0  0  0
    4.0625   -0.3481    3.9318 C   0  0  1  0  0  0  0  0  0  0  0  0
    1.8861    2.4024    2.4480 H   0  0  0  0  0  0  0  0  0  0  0  0
    4.5659   -5.5637    6.5829 H   0  0  0  0  0  0  0  0  0  0  0  0
    3.0519   -5.7793    5.7103 H   0  0  0  0  0  0  0  0  0  0  0  0
    3.0275   -5.2378    7.4004 H   0  0  0  0  0  0  0  0  0  0  0  0
    4.0057   -2.6636    7.7956 H   0  0  0  0  0  0  0  0  0  0  0  0
    5.3601   -3.5074    7.1671 H   0  0  0  0  0  0  0  0  0  0  0  0
    5.6882   -1.1373    7.1334 H   0  0  0  0  0  0  0  0  0  0  0  0
    5.9916   -1.9155    5.6015 H   0  0  0  0  0  0  0  0  0  0  0  0
    3.1153    1.1761    5.9167 H   0  0  0  0  0  0  0  0  0  0  0  0
    3.7950    0.4474    7.3612 H   0  0  0  0  0  0  0  0  0  0  0  0
    3.7300    3.4662    6.4095 H   0  0  0  0  0  0  0  0  0  0  0  0
    5.5083    5.1951    6.5015 H   0  0  0  0  0  0  0  0  0  0  0  0
    7.9163    4.5173    6.5470 H   0  0  0  0  0  0  0  0  0  0  0  0
    8.5146    2.0966    6.4938 H   0  0  0  0  0  0  0  0  0  0  0  0
    6.8186    0.4101    6.3585 H   0  0  0  0  0  0  0  0  0  0  0  0
    3.9819   -2.2113    4.3605 H   0  0  0  0  0  0  0  0  0  0  0  0
    2.1982   -0.4714    6.9909 H   0  0  0  0  0  0  0  0  0  0  0  0
    0.1894   -1.8856    4.5600 H   0  0  0  0  0  0  0  0  0  0  0  0
    0.1260   -1.0766    6.0025 H   0  0  0  0  0  0  0  0  0  0  0  0
   -0.1842    4.2764    3.0281 H   0  0  0  0  0  0  0  0  0  0  0  0
   -2.2525    4.5493    4.4107 H   0  0  0  0  0  0  0  0  0  0  0  0
   -2.9852    2.7226    5.9051 H   0  0  0  0  0  0  0  0  0  0  0  0
   -1.6917    0.6120    6.0099 H   0  0  0  0  0  0  0  0  0  0  0  0
    3.2812    0.5535    2.2065 H   0  0  0  0  0  0  0  0  0  0  0  0
    1.8628   -1.1483    1.4153 H   0  0  0  0  0  0  0  0  0  0  0  0
    0.7626   -2.5045    2.7600 H   0  0  0  0  0  0  0  0  0  0  0  0
    1.8113   -3.4427    1.8662 H   0  0  0  0  0  0  0  0  0  0  0  0
    1.5368   -4.5718    3.8999 H   0  0  0  0  0  0  0  0  0  0  0  0
    3.1841   -4.1504    3.6365 H   0  0  0  0  0  0  0  0  0  0  0  0
    1.4828   -3.6925    6.0027 H   0  0  0  0  0  0  0  0  0  0  0  0
    2.9983   -0.7613   -0.3223 H   0  0  0  0  0  0  0  0  0  0  0  0
    4.5432   -0.1991    0.2326 H   0  0  0  0  0  0  0  0  0  0  0  0
    4.0583   -2.8749   -1.2440 H   0  0  0  0  0  0  0  0  0  0  0  0
    6.6302   -1.2131   -0.6998 H   0  0  0  0  0  0  0  0  0  0  0  0
    6.5326   -2.7750   -1.6787 H   0  0  0  0  0  0  0  0  0  0  0  0
    4.9164   -1.7058   -3.2539 H   0  0  0  0  0  0  0  0  0  0  0  0
    5.0110   -0.1285   -2.3130 H   0  0  0  0  0  0  0  0  0  0  0  0
    5.0718   -2.8346    2.7285 H   0  0  0  0  0  0  0  0  0  0  0  0
    5.9175   -2.0418    1.4532 H   0  0  0  0  0  0  0  0  0  0  0  0
    6.1553   -0.7945    3.6252 H   0  0  0  0  0  0  0  0  0  0  0  0
    5.4725    0.1908    2.3845 H   0  0  0  0  0  0  0  0  0  0  0  0
    3.6145   -2.8300    1.0327 H   0  0  0  0  0  0  0  0  0  0  0  0
  1  2  1  0
  1 40  1  0
  1 41  1  0
  1 42  1  0
  2 30  1  0
  2  3  1  0
  3  4  1  0
  3 43  1  0
  3 44  1  0
  4  5  1  0
  4 45  1  0
  4 46  1  0
  5 38  1  0
  5  6  1  1
  5 13  1  0
  6  7  1  0
  6 47  1  0
  6 48  1  0
  7 12  1  0
  7  8  2  0
  8  9  1  0
  8 49  1  0
  9 10  2  0
  9 50  1  0
 10 11  1  0
 10 51  1  0
 11 12  2  0
 11 52  1  0
 12 53  1  0
 13 38  1  0
 13 14  1  0
 13 54  1  6
 14 30  1  0
 14 15  1  1
 14 16  1  0
 15 55  1  0
 16 17  1  0
 16 56  1  0
 16 57  1  0
 17 25  1  0
 17 18  2  0
 18 19  1  0
 18 26  1  0
 19 39  1  0
 19 20  1  0
 20 25  2  0
 20 21  1  0
 21 22  2  0
 21 58  1  0
 22 23  1  0
 22 59  1  0
 23 24  2  0
 23 60  1  0
 24 25  1  0
 24 61  1  0
 26 38  1  0
 26 27  1  0
 26 62  1  6
 27 28  1  0
 27 31  1  0
 27 63  1  6
 28 29  1  0
 28 64  1  0
 28 65  1  0
 29 30  1  0
 29 66  1  0
 29 67  1  0
 30 68  1  1
 31 32  1  0
 31 36  1  0
 31 80  1  6
 32 33  1  0
 32 69  1  0
 32 70  1  0
 33 35  1  0
 33 34  1  0
 33 71  1  0
 34 35  1  0
 34 72  1  0
 34 73  1  0
 35 74  1  0
 35 75  1  0
 36 37  1  0
 36 76  1  0
 36 77  1  0
 38 37  1  6
 37 78  1  0
 37 79  1  0
M  CHG  1  31   1
M  END
>  <i_m_ct_stereo_status>  (147) 
1

>  <s_m_source_file>  (147) 
/var/tmp/pbs.5076255.sched01/tmprtix0sri/443g93ja_l.sdf

>  <i_m_source_file_index>  (147) 
22

>  <i_lp_mmshare_version>  (147) 
48012

>  <i_f3d_flags>  (147) 
0

>  <s_epik_input>  (147) 
W2NIXTFbY0hdW2NIXVtjSF1bY0hdYzFbQ0gyXVtDQF0yKFtDQEBdMzQ1KVtDQEhdM1tDQF02KFtPSF0pW0NASF0oTihbQ0gzXSlbQ0gyXVtDSDJdMilbQ0gyXVtDSDJdW0NASF0oTihbQ0gyXVtDSDJdNSlbQ0gyXVtDSF03W0NIMl1bQ0gyXTcpW0NASF00YzhjKFtDSDJdNiljOWMoW25IXTgpW2NIXVtjSF1bY0hdW2NIXTk=

>  <s_epik_cmdline>  (147) 
J2VwaWtfcHl0aG9uJywgJy1waHQnLCAnMi4wJywgJy1waCcsICc3LjAnLCAnLXRuJywgJzgnLCAnLW1hJywgJzIwMCcsICctaW1hZScsICc8aW5maWxlLm1hZT4nLCAnLW9tYWUnLCAnPG91dGZpbGUubWFlPic=

>  <r_epik_Ionization_Penalty>  (147) 
2.20401

>  <r_epik_Ionization_Penalty_Charging>  (147) 
0.00105177

>  <r_epik_Ionization_Penalty_Neutral>  (147) 
2.20296

>  <r_epik_State_Penalty>  (147) 
2.34659

>  <r_epik_Charging_Adjusted_Penalty>  (147) 
2.34765

>  <i_epik_Tot_Q>  (147) 
1

>  <i_epik_Tot_abs_Q>  (147) 
1

>  <s_lp_Force_Field>  (147) 
OPLS3e

>  <r_lp_Energy>  (147) 
193.601

>  <b_lp_Chiralities_Consistent>  (147) 
1

>  <s_lp_Variant>  (147) 
49:0-2

>  <s_i_glide_gridfile>  (147) 
pfpi4k_grid

>  <i_i_glide_lignum>  (147) 
22

>  <i_i_glide_rotatable_bonds>  (147) 
5

>  <r_i_docking_score>  (147) 
-2.08755

>  <r_i_glide_ligand_efficiency>  (147) 
-0.0549354

>  <r_i_glide_ligand_efficiency_sa>  (147) 
-0.184692

>  <r_i_glide_ligand_efficiency_ln>  (147) 
-0.450136

>  <r_i_glide_gscore>  (147) 
-2.08755

>  <r_i_glide_lipo>  (147) 
-0.512754

>  <r_i_glide_hbond>  (147) 
0

>  <r_i_glide_metal>  (147) 
-0

>  <r_i_glide_rewards>  (147) 
0

>  <r_i_glide_evdw>  (147) 
-26.2471

>  <r_i_glide_ecoul>  (147) 
-3.58115

>  <r_i_glide_erotb>  (147) 
0.316472

>  <r_i_glide_esite>  (147) 
-0.0417353

>  <r_i_glide_emodel>  (147) 
-32.5519

>  <r_i_glide_energy>  (147) 
-29.8283

>  <r_i_glide_einternal>  (147) 
1.96736

>  <r_i_glide_intrahb_reward>  (147) 
-0

>  <i_i_glide_confnum>  (147) 
3

>  <i_i_glide_posenum>  (147) 
12

>  <r_i_glide_eff_state_penalty>  (147) 
0

>  <ligand_id>  (147) 
49

>  <original_smiles>  (147) 
CN1CCC2(Cc3ccccc3)C3C4(O)Cc5c([nH]c6ccccc56)C5C(CCC14)N(CC1CC1)CCC532

>  <smiles>  (147) 
[H]OC12C([H])([H])c3c(n([H])c4c([H])c([H])c([H])c([H])c34)C3([H])C45C([H])([H])C([H])([H])[N+]([H])(C([H])([H])C6([H])C([H])([H])C6([H])[H])C3([H])C([H])([H])C([H])([H])C1([H])N(C([H])([H])[H])C([H])([H])C([H])([H])C4(C([H])([H])c1c([H])c([H])c([H])c([H])c1[H])C25[H]

$$$$
49:1:2
     RDKit          3D

 80 88  0  0  1  0  0  0  0  0999 V2000
    8.5115   -5.9762    1.9273 C   0  0  0  0  0  0  0  0  0  0  0  0
    7.2839   -5.7641    2.6793 N   0  0  0  0  0  0  0  0  0  0  0  0
    7.4136   -5.9736    4.1789 C   0  0  0  0  0  0  0  0  0  0  0  0
    6.4407   -5.2408    5.2404 C   0  0  0  0  0  0  0  0  0  0  0  0
    4.8874   -5.2958    5.0491 C   0  0  2  0  0  0  0  0  0  0  0  0
    4.1886   -6.3234    5.9350 C   0  0  0  0  0  0  0  0  0  0  0  0
    3.3917   -5.6905    7.0608 C   0  0  0  0  0  0  0  0  0  0  0  0
    4.0528   -5.2143    8.2106 C   0  0  0  0  0  0  0  0  0  0  0  0
    3.3142   -4.6418    9.2644 C   0  0  0  0  0  0  0  0  0  0  0  0
    1.9116   -4.5419    9.1732 C   0  0  0  0  0  0  0  0  0  0  0  0
    1.2465   -5.0235    8.0283 C   0  0  0  0  0  0  0  0  0  0  0  0
    1.9854   -5.5997    6.9773 C   0  0  0  0  0  0  0  0  0  0  0  0
    4.8315   -5.1829    3.6294 C   0  0  1  0  0  0  0  0  0  0  0  0
    4.8608   -6.5138    2.8416 C   0  0  1  0  0  0  0  0  0  0  0  0
    5.2535   -7.6467    3.6081 O   0  0  0  0  0  0  0  0  0  0  0  0
    3.6074   -7.1156    2.1237 C   0  0  0  0  0  0  0  0  0  0  0  0
    2.2856   -6.7256    2.6839 C   0  0  0  0  0  0  0  0  0  0  0  0
    1.9533   -5.4949    3.1723 C   0  0  0  0  0  0  0  0  0  0  0  0
    0.6383   -5.5433    3.6260 N   0  0  0  0  0  0  0  0  0  0  0  0
    0.0882   -6.7943    3.4223 C   0  0  0  0  0  0  0  0  0  0  0  0
   -1.1880   -7.3202    3.6913 C   0  0  0  0  0  0  0  0  0  0  0  0
   -1.4710   -8.6522    3.3487 C   0  0  0  0  0  0  0  0  0  0  0  0
   -0.4693   -9.4431    2.7550 C   0  0  0  0  0  0  0  0  0  0  0  0
    0.8039   -8.9046    2.4930 C   0  0  0  0  0  0  0  0  0  0  0  0
    1.1201   -7.5627    2.8187 C   0  0  0  0  0  0  0  0  0  0  0  0
    2.7709   -4.2450    3.2719 C   0  0  2  0  0  0  0  0  0  0  0  0
    3.2763   -3.6170    1.8972 C   0  0  2  0  0  0  0  0  0  0  0  0
    4.1394   -4.3937    0.7914 C   0  0  0  0  0  0  0  0  0  0  0  0
    5.6196   -4.9771    0.9403 C   0  0  0  0  0  0  0  0  0  0  0  0
    6.0341   -6.1700    1.9183 C   0  0  1  0  0  0  0  0  0  0  0  0
    3.7474   -2.2058    2.0911 N   0  0  1  0  0  0  0  0  0  0  0  0
    2.6289   -1.2177    2.1444 C   0  0  0  0  0  0  0  0  0  0  0  0
    3.0926    0.2300    2.1280 C   0  0  0  0  0  0  0  0  0  0  0  0
    3.0161    1.0694    3.3904 C   0  0  0  0  0  0  0  0  0  0  0  0
    2.0746    1.3441    2.2497 C   0  0  0  0  0  0  0  0  0  0  0  0
    4.7209   -2.0560    3.2136 C   0  0  0  0  0  0  0  0  0  0  0  0
    4.2700   -2.7819    4.5066 C   0  0  0  0  0  0  0  0  0  0  0  0
    3.9130   -4.2643    4.2953 C   0  0  1  0  0  0  0  0  0  0  0  0
    0.1804   -4.7625    4.0687 H   0  0  0  0  0  0  0  0  0  0  0  0
    9.3313   -5.4110    2.3727 H   0  0  0  0  0  0  0  0  0  0  0  0
    8.4003   -5.6281    0.8988 H   0  0  0  0  0  0  0  0  0  0  0  0
    8.7871   -7.0295    1.9067 H   0  0  0  0  0  0  0  0  0  0  0  0
    7.4598   -7.0388    4.3985 H   0  0  0  0  0  0  0  0  0  0  0  0
    8.4074   -5.6178    4.4561 H   0  0  0  0  0  0  0  0  0  0  0  0
    6.6861   -5.6030    6.2404 H   0  0  0  0  0  0  0  0  0  0  0  0
    6.7175   -4.1909    5.2774 H   0  0  0  0  0  0  0  0  0  0  0  0
    3.5028   -6.9104    5.3267 H   0  0  0  0  0  0  0  0  0  0  0  0
    4.9193   -7.0249    6.3391 H   0  0  0  0  0  0  0  0  0  0  0  0
    5.1262   -5.3004    8.2880 H   0  0  0  0  0  0  0  0  0  0  0  0
    3.8262   -4.2815   10.1438 H   0  0  0  0  0  0  0  0  0  0  0  0
    1.3487   -4.1024    9.9834 H   0  0  0  0  0  0  0  0  0  0  0  0
    0.1710   -4.9576    7.9581 H   0  0  0  0  0  0  0  0  0  0  0  0
    1.4692   -5.9863    6.1135 H   0  0  0  0  0  0  0  0  0  0  0  0
    5.5008   -4.4363    3.2395 H   0  0  0  0  0  0  0  0  0  0  0  0
    5.3304   -8.3963    3.0372 H   0  0  0  0  0  0  0  0  0  0  0  0
    3.6188   -6.9397    1.0568 H   0  0  0  0  0  0  0  0  0  0  0  0
    3.6523   -8.2059    2.1226 H   0  0  0  0  0  0  0  0  0  0  0  0
   -1.9458   -6.7260    4.1664 H   0  0  0  0  0  0  0  0  0  0  0  0
   -2.4398   -9.0878    3.5627 H   0  0  0  0  0  0  0  0  0  0  0  0
   -0.6720  -10.4736    2.4988 H   0  0  0  0  0  0  0  0  0  0  0  0
    1.5457   -9.5324    2.0281 H   0  0  0  0  0  0  0  0  0  0  0  0
    2.0657   -3.5162    3.6750 H   0  0  0  0  0  0  0  0  0  0  0  0
    2.3431   -3.5107    1.3446 H   0  0  0  0  0  0  0  0  0  0  0  0
    3.4965   -5.1036    0.2845 H   0  0  0  0  0  0  0  0  0  0  0  0
    4.2597   -3.6563   -0.0041 H   0  0  0  0  0  0  0  0  0  0  0  0
    5.9525   -5.2738   -0.0576 H   0  0  0  0  0  0  0  0  0  0  0  0
    6.2554   -4.1205    1.1730 H   0  0  0  0  0  0  0  0  0  0  0  0
    6.2415   -7.0594    1.3198 H   0  0  0  0  0  0  0  0  0  0  0  0
    1.9769   -1.3533    1.2801 H   0  0  0  0  0  0  0  0  0  0  0  0
    2.0161   -1.3734    3.0306 H   0  0  0  0  0  0  0  0  0  0  0  0
    3.9171    0.4390    1.4430 H   0  0  0  0  0  0  0  0  0  0  0  0
    2.6083    0.6027    4.2869 H   0  0  0  0  0  0  0  0  0  0  0  0
    3.8118    1.7916    3.5678 H   0  0  0  0  0  0  0  0  0  0  0  0
    2.2431    2.2571    1.6799 H   0  0  0  0  0  0  0  0  0  0  0  0
    1.0287    1.0716    2.3797 H   0  0  0  0  0  0  0  0  0  0  0  0
    5.6902   -2.4204    2.8775 H   0  0  0  0  0  0  0  0  0  0  0  0
    4.9092   -1.0047    3.4323 H   0  0  0  0  0  0  0  0  0  0  0  0
    5.0623   -2.6959    5.2450 H   0  0  0  0  0  0  0  0  0  0  0  0
    3.4138   -2.2650    4.9450 H   0  0  0  0  0  0  0  0  0  0  0  0
    4.2497   -1.9642    1.2482 H   0  0  0  0  0  0  0  0  0  0  0  0
  1  2  1  0
  1 40  1  0
  1 41  1  0
  1 42  1  0
  2 30  1  0
  2  3  1  0
  3  4  1  0
  3 43  1  0
  3 44  1  0
  4  5  1  0
  4 45  1  0
  4 46  1  0
  5 38  1  0
  5  6  1  6
  5 13  1  0
  6  7  1  0
  6 47  1  0
  6 48  1  0
  7 12  1  0
  7  8  2  0
  8  9  1  0
  8 49  1  0
  9 10  2  0
  9 50  1  0
 10 11  1  0
 10 51  1  0
 11 12  2  0
 11 52  1  0
 12 53  1  0
 13 38  1  0
 13 14  1  0
 13 54  1  6
 14 30  1  0
 14 15  1  1
 14 16  1  0
 15 55  1  0
 16 17  1  0
 16 56  1  0
 16 57  1  0
 17 25  1  0
 17 18  2  0
 18 19  1  0
 18 26  1  0
 19 39  1  0
 19 20  1  0
 20 25  2  0
 20 21  1  0
 21 22  2  0
 21 58  1  0
 22 23  1  0
 22 59  1  0
 23 24  2  0
 23 60  1  0
 24 25  1  0
 24 61  1  0
 26 38  1  0
 26 27  1  0
 26 62  1  1
 27 28  1  0
 27 31  1  0
 27 63  1  6
 28 29  1  0
 28 64  1  0
 28 65  1  0
 29 30  1  0
 29 66  1  0
 29 67  1  0
 30 68  1  6
 31 32  1  0
 31 36  1  0
 31 80  1  6
 32 33  1  0
 32 69  1  0
 32 70  1  0
 33 35  1  0
 33 34  1  0
 33 71  1  0
 34 35  1  0
 34 72  1  0
 34 73  1  0
 35 74  1  0
 35 75  1  0
 36 37  1  0
 36 76  1  0
 36 77  1  0
 38 37  1  1
 37 78  1  0
 37 79  1  0
M  CHG  1  31   1
M  END
>  <i_m_ct_stereo_status>  (148) 
1

>  <s_m_source_file>  (148) 
/var/tmp/pbs.5076255.sched01/tmprtix0sri/443g93ja_l.sdf

>  <i_m_source_file_index>  (148) 
22

>  <i_lp_mmshare_version>  (148) 
48012

>  <i_f3d_flags>  (148) 
0

>  <s_epik_input>  (148) 
W2NIXTFbY0hdW2NIXVtjSF1bY0hdYzFbQ0gyXVtDQF0yKFtDQEBdMzQ1KVtDQEhdM1tDQF02KFtPSF0pW0NASF0oTihbQ0gzXSlbQ0gyXVtDSDJdMilbQ0gyXVtDSDJdW0NASF0oTihbQ0gyXVtDSDJdNSlbQ0gyXVtDSF03W0NIMl1bQ0gyXTcpW0NASF00YzhjKFtDSDJdNiljOWMoW25IXTgpW2NIXVtjSF1bY0hdW2NIXTk=

>  <s_epik_cmdline>  (148) 
J2VwaWtfcHl0aG9uJywgJy1waHQnLCAnMi4wJywgJy1waCcsICc3LjAnLCAnLXRuJywgJzgnLCAnLW1hJywgJzIwMCcsICctaW1hZScsICc8aW5maWxlLm1hZT4nLCAnLW9tYWUnLCAnPG91dGZpbGUubWFlPic=

>  <r_epik_Ionization_Penalty>  (148) 
2.20401

>  <r_epik_Ionization_Penalty_Charging>  (148) 
0.00105177

>  <r_epik_Ionization_Penalty_Neutral>  (148) 
2.20296

>  <r_epik_State_Penalty>  (148) 
2.34659

>  <r_epik_Charging_Adjusted_Penalty>  (148) 
2.34765

>  <i_epik_Tot_Q>  (148) 
1

>  <i_epik_Tot_abs_Q>  (148) 
1

>  <s_lp_Force_Field>  (148) 
OPLS3e

>  <r_lp_Energy>  (148) 
193.601

>  <b_lp_Chiralities_Consistent>  (148) 
1

>  <s_lp_Variant>  (148) 
49:0-2

>  <s_i_glide_gridfile>  (148) 
pfpi4k_grid

>  <i_i_glide_lignum>  (148) 
22

>  <i_i_glide_rotatable_bonds>  (148) 
5

>  <r_i_docking_score>  (148) 
-1.86277

>  <r_i_glide_ligand_efficiency>  (148) 
-0.0490203

>  <r_i_glide_ligand_efficiency_sa>  (148) 
-0.164805

>  <r_i_glide_ligand_efficiency_ln>  (148) 
-0.401669

>  <r_i_glide_gscore>  (148) 
-1.86277

>  <r_i_glide_lipo>  (148) 
-0.323596

>  <r_i_glide_hbond>  (148) 
0

>  <r_i_glide_metal>  (148) 
-0

>  <r_i_glide_rewards>  (148) 
0

>  <r_i_glide_evdw>  (148) 
-24.8983

>  <r_i_glide_ecoul>  (148) 
-3.81434

>  <r_i_glide_erotb>  (148) 
0.316472

>  <r_i_glide_esite>  (148) 
-0.0385847

>  <r_i_glide_emodel>  (148) 
-31.9144

>  <r_i_glide_energy>  (148) 
-28.7126

>  <r_i_glide_einternal>  (148) 
0.492785

>  <r_i_glide_intrahb_reward>  (148) 
-0

>  <i_i_glide_confnum>  (148) 
1

>  <i_i_glide_posenum>  (148) 
3

>  <r_i_glide_eff_state_penalty>  (148) 
0

>  <ligand_id>  (148) 
49

>  <original_smiles>  (148) 
CN1CCC2(Cc3ccccc3)C3C4(O)Cc5c([nH]c6ccccc56)C5C(CCC14)N(CC1CC1)CCC532

>  <smiles>  (148) 
[H]OC12C([H])([H])c3c(n([H])c4c([H])c([H])c([H])c([H])c34)C3([H])C45C([H])([H])C([H])([H])[N+]([H])(C([H])([H])C6([H])C([H])([H])C6([H])[H])C3([H])C([H])([H])C([H])([H])C1([H])N(C([H])([H])[H])C([H])([H])C([H])([H])C4(C([H])([H])c1c([H])c([H])c([H])c([H])c1[H])C25[H]

$$$$
50:0:0
     RDKit          3D

 26 27  0  0  1  0  0  0  0  0999 V2000
   -2.2728    2.3969    5.7141 C   0  0  0  0  0  0  0  0  0  0  0  0
   -1.1904    1.6567    5.0222 N   0  0  0  0  0  0  0  0  0  0  0  0
   -1.0227    0.3267    5.2769 C   0  0  0  0  0  0  0  0  0  0  0  0
   -1.7827   -0.2310    6.0719 O   0  0  0  0  0  0  0  0  0  0  0  0
    0.0842   -0.3638    4.5759 C   0  0  0  0  0  0  0  0  0  0  0  0
    0.4255   -1.6834    4.6965 C   0  0  0  0  0  0  0  0  0  0  0  0
   -0.0842   -2.8148    5.4797 C   0  0  0  0  0  0  0  0  0  0  0  0
   -1.0593   -2.8244    6.3965 N   0  0  0  0  0  0  0  0  0  0  0  0
   -1.3038   -4.0901    6.9343 C   0  0  0  0  0  0  0  0  0  0  0  0
   -0.4785   -5.0589    6.4287 C   0  0  0  0  0  0  0  0  0  0  0  0
    0.6156   -4.4161    5.2400 S   0  0  0  0  0  0  0  0  0  0  0  0
    0.9017    0.4494    3.6541 C   0  0  0  0  0  0  0  0  0  0  0  0
    1.8523   -0.0300    3.0253 O   0  0  0  0  0  0  0  0  0  0  0  0
    0.5916    1.7646    3.5162 N   0  0  0  0  0  0  0  0  0  0  0  0
    1.4417    2.5398    2.5876 C   0  0  0  0  0  0  0  0  0  0  0  0
   -0.4274    2.3939    4.1664 C   0  0  0  0  0  0  0  0  0  0  0  0
   -0.6559    3.5995    4.0057 O   0  0  0  0  0  0  0  0  0  0  0  0
   -2.8779    1.8179    6.4118 H   0  0  0  0  0  0  0  0  0  0  0  0
   -2.9663    2.8169    4.9825 H   0  0  0  0  0  0  0  0  0  0  0  0
   -1.8610    3.2194    6.2998 H   0  0  0  0  0  0  0  0  0  0  0  0
    1.2686   -2.0161    4.1065 H   0  0  0  0  0  0  0  0  0  0  0  0
   -2.0869   -4.2117    7.6708 H   0  0  0  0  0  0  0  0  0  0  0  0
   -0.4461   -6.1092    6.6717 H   0  0  0  0  0  0  0  0  0  0  0  0
    1.1866    3.5939    2.4870 H   0  0  0  0  0  0  0  0  0  0  0  0
    1.3846    2.1183    1.5820 H   0  0  0  0  0  0  0  0  0  0  0  0
    2.4870    2.5141    2.9016 H   0  0  0  0  0  0  0  0  0  0  0  0
  1  2  1  0
  1 18  1  0
  1 19  1  0
  1 20  1  0
  2 16  1  0
  2  3  1  0
  3  4  2  0
  3  5  1  0
  5  6  2  3
  5 12  1  0
  6  7  1  0
  6 21  1  0
  7 11  1  0
  7  8  2  0
  8  9  1  0
  9 10  2  0
  9 22  1  0
 10 11  1  0
 10 23  1  0
 12 13  2  0
 12 14  1  0
 14 15  1  0
 14 16  1  0
 15 24  1  0
 15 25  1  0
 15 26  1  0
 16 17  2  0
M  END
>  <i_m_ct_stereo_status>  (149) 
1

>  <s_m_source_file>  (149) 
/var/tmp/pbs.5076255.sched01/tmprtix0sri/443g93ja_l.sdf

>  <i_m_source_file_index>  (149) 
23

>  <i_lp_mmshare_version>  (149) 
48012

>  <i_f3d_flags>  (149) 
0

>  <s_epik_input>  (149) 
Tz1DMU4oW0NIM10pQyg9TylDKEMoPU8pTjFbQ0gzXSk9W0NIXWMybltjSF1bY0hdczI=

>  <s_epik_cmdline>  (149) 
J2VwaWtfcHl0aG9uJywgJy1waHQnLCAnMi4wJywgJy1waCcsICc3LjAnLCAnLXRuJywgJzgnLCAnLW1hJywgJzIwMCcsICctaW1hZScsICc8aW5maWxlLm1hZT4nLCAnLW9tYWUnLCAnPG91dGZpbGUubWFlPic=

>  <r_lp_tautomer_probability>  (149) 
1

>  <r_epik_Ionization_Penalty>  (149) 
5.63595e-07

>  <r_epik_Ionization_Penalty_Charging>  (149) 
0

>  <r_epik_Ionization_Penalty_Neutral>  (149) 
5.63595e-07

>  <r_epik_State_Penalty>  (149) 
-0

>  <r_epik_Charging_Adjusted_Penalty>  (149) 
0

>  <i_epik_Tot_Q>  (149) 
0

>  <i_epik_Tot_abs_Q>  (149) 
0

>  <s_lp_Force_Field>  (149) 
OPLS3e

>  <r_lp_Energy>  (149) 
32.6604

>  <b_lp_Chiralities_Consistent>  (149) 
1

>  <s_lp_Variant>  (149) 
50:0-1

>  <s_i_glide_gridfile>  (149) 
pfpi4k_grid

>  <i_i_glide_lignum>  (149) 
23

>  <i_i_glide_rotatable_bonds>  (149) 
1

>  <r_i_docking_score>  (149) 
-3.68223

>  <r_i_glide_ligand_efficiency>  (149) 
-0.216602

>  <r_i_glide_ligand_efficiency_sa>  (149) 
-0.556944

>  <r_i_glide_ligand_efficiency_ln>  (149) 
-0.960611

>  <r_i_glide_gscore>  (149) 
-3.68223

>  <r_i_glide_lipo>  (149) 
-0.0683953

>  <r_i_glide_hbond>  (149) 
-0.14481

>  <r_i_glide_metal>  (149) 
-0

>  <r_i_glide_rewards>  (149) 
-1.69594

>  <r_i_glide_evdw>  (149) 
-18.2388

>  <r_i_glide_ecoul>  (149) 
-4.97892

>  <r_i_glide_erotb>  (149) 
0

>  <r_i_glide_esite>  (149) 
-0.114306

>  <r_i_glide_emodel>  (149) 
-29.0916

>  <r_i_glide_energy>  (149) 
-23.2178

>  <r_i_glide_einternal>  (149) 
0.0419881

>  <r_i_glide_intrahb_reward>  (149) 
-0

>  <i_i_glide_confnum>  (149) 
2

>  <i_i_glide_posenum>  (149) 
2

>  <r_i_glide_eff_state_penalty>  (149) 
0

>  <ligand_id>  (149) 
50

>  <original_smiles>  (149) 
CN1C(=O)C(=Cc2nccs2)C(=O)N(C)C1=O

>  <smiles>  (149) 
[H]C(=C1C(=O)N(C([H])([H])[H])C(=O)N(C([H])([H])[H])C1=O)c1nc([H])c([H])s1

$$$$
50:0:1
     RDKit          3D

 26 27  0  0  1  0  0  0  0  0999 V2000
   -0.0427   -3.9740    5.7177 C   0  0  0  0  0  0  0  0  0  0  0  0
    0.2887   -2.7816    4.8989 N   0  0  0  0  0  0  0  0  0  0  0  0
   -0.2396   -1.5702    5.2348 C   0  0  0  0  0  0  0  0  0  0  0  0
   -0.9917   -1.5021    6.2046 O   0  0  0  0  0  0  0  0  0  0  0  0
    0.1219   -0.4092    4.3916 C   0  0  0  0  0  0  0  0  0  0  0  0
   -0.3041    0.8782    4.5583 C   0  0  0  0  0  0  0  0  0  0  0  0
   -1.1705    1.5623    5.5271 C   0  0  0  0  0  0  0  0  0  0  0  0
   -1.7619    1.0606    6.6175 N   0  0  0  0  0  0  0  0  0  0  0  0
   -2.4936    2.0092    7.3333 C   0  0  0  0  0  0  0  0  0  0  0  0
   -2.4892    3.2451    6.7508 C   0  0  0  0  0  0  0  0  0  0  0  0
   -1.5314    3.2723    5.3009 S   0  0  0  0  0  0  0  0  0  0  0  0
    1.0182   -0.6684    3.2503 C   0  0  0  0  0  0  0  0  0  0  0  0
    1.3791    0.2260    2.4802 O   0  0  0  0  0  0  0  0  0  0  0  0
    1.4489   -1.9432    3.0561 N   0  0  0  0  0  0  0  0  0  0  0  0
    2.3384   -2.1633    1.8931 C   0  0  0  0  0  0  0  0  0  0  0  0
    1.1138   -3.0038    3.8390 C   0  0  0  0  0  0  0  0  0  0  0  0
    1.5294   -4.1415    3.5918 O   0  0  0  0  0  0  0  0  0  0  0  0
   -0.7024   -3.8029    6.5678 H   0  0  0  0  0  0  0  0  0  0  0  0
    0.8666   -4.4130    6.1314 H   0  0  0  0  0  0  0  0  0  0  0  0
   -0.5319   -4.7372    5.1101 H   0  0  0  0  0  0  0  0  0  0  0  0
    0.0606    1.6004    3.8372 H   0  0  0  0  0  0  0  0  0  0  0  0
   -2.9822    1.7238    8.2516 H   0  0  0  0  0  0  0  0  0  0  0  0
   -2.9758    4.1433    7.0988 H   0  0  0  0  0  0  0  0  0  0  0  0
    2.6771   -3.1884    1.7425 H   0  0  0  0  0  0  0  0  0  0  0  0
    3.2394   -1.5548    1.9864 H   0  0  0  0  0  0  0  0  0  0  0  0
    1.8374   -1.8712    0.9685 H   0  0  0  0  0  0  0  0  0  0  0  0
  1  2  1  0
  1 18  1  0
  1 19  1  0
  1 20  1  0
  2 16  1  0
  2  3  1  0
  3  4  2  0
  3  5  1  0
  5  6  2  3
  5 12  1  0
  6  7  1  0
  6 21  1  0
  7 11  1  0
  7  8  2  0
  8  9  1  0
  9 10  2  0
  9 22  1  0
 10 11  1  0
 10 23  1  0
 12 13  2  0
 12 14  1  0
 14 15  1  0
 14 16  1  0
 15 24  1  0
 15 25  1  0
 15 26  1  0
 16 17  2  0
M  END
>  <i_m_ct_stereo_status>  (150) 
1

>  <s_m_source_file>  (150) 
/var/tmp/pbs.5076255.sched01/tmprtix0sri/443g93ja_l.sdf

>  <i_m_source_file_index>  (150) 
23

>  <i_lp_mmshare_version>  (150) 
48012

>  <i_f3d_flags>  (150) 
0

>  <s_epik_input>  (150) 
Tz1DMU4oW0NIM10pQyg9TylDKEMoPU8pTjFbQ0gzXSk9W0NIXWMybltjSF1bY0hdczI=

>  <s_epik_cmdline>  (150) 
J2VwaWtfcHl0aG9uJywgJy1waHQnLCAnMi4wJywgJy1waCcsICc3LjAnLCAnLXRuJywgJzgnLCAnLW1hJywgJzIwMCcsICctaW1hZScsICc8aW5maWxlLm1hZT4nLCAnLW9tYWUnLCAnPG91dGZpbGUubWFlPic=

>  <r_lp_tautomer_probability>  (150) 
1

>  <r_epik_Ionization_Penalty>  (150) 
5.63595e-07

>  <r_epik_Ionization_Penalty_Charging>  (150) 
0

>  <r_epik_Ionization_Penalty_Neutral>  (150) 
5.63595e-07

>  <r_epik_State_Penalty>  (150) 
-0

>  <r_epik_Charging_Adjusted_Penalty>  (150) 
0

>  <i_epik_Tot_Q>  (150) 
0

>  <i_epik_Tot_abs_Q>  (150) 
0

>  <s_lp_Force_Field>  (150) 
OPLS3e

>  <r_lp_Energy>  (150) 
32.6604

>  <b_lp_Chiralities_Consistent>  (150) 
1

>  <s_lp_Variant>  (150) 
50:0-1

>  <s_i_glide_gridfile>  (150) 
pfpi4k_grid

>  <i_i_glide_lignum>  (150) 
23

>  <i_i_glide_rotatable_bonds>  (150) 
1

>  <r_i_docking_score>  (150) 
-3.63224

>  <r_i_glide_ligand_efficiency>  (150) 
-0.213661

>  <r_i_glide_ligand_efficiency_sa>  (150) 
-0.549383

>  <r_i_glide_ligand_efficiency_ln>  (150) 
-0.94757

>  <r_i_glide_gscore>  (150) 
-3.63224

>  <r_i_glide_lipo>  (150) 
-0.11881

>  <r_i_glide_hbond>  (150) 
-0.086131

>  <r_i_glide_metal>  (150) 
-0

>  <r_i_glide_rewards>  (150) 
-1.76965

>  <r_i_glide_evdw>  (150) 
-18.0167

>  <r_i_glide_ecoul>  (150) 
-4.80046

>  <r_i_glide_erotb>  (150) 
0

>  <r_i_glide_esite>  (150) 
-0.0367461

>  <r_i_glide_emodel>  (150) 
-28.6152

>  <r_i_glide_energy>  (150) 
-22.8171

>  <r_i_glide_einternal>  (150) 
0.0293503

>  <r_i_glide_intrahb_reward>  (150) 
-0

>  <i_i_glide_confnum>  (150) 
1

>  <i_i_glide_posenum>  (150) 
19

>  <r_i_glide_eff_state_penalty>  (150) 
0

>  <ligand_id>  (150) 
50

>  <original_smiles>  (150) 
CN1C(=O)C(=Cc2nccs2)C(=O)N(C)C1=O

>  <smiles>  (150) 
[H]C(=C1C(=O)N(C([H])([H])[H])C(=O)N(C([H])([H])[H])C1=O)c1nc([H])c([H])s1

$$$$
50:0:2
     RDKit          3D

 26 27  0  0  1  0  0  0  0  0999 V2000
   -0.7626   -2.4924    6.0574 C   0  0  0  0  0  0  0  0  0  0  0  0
   -0.4799   -1.4373    5.0556 N   0  0  0  0  0  0  0  0  0  0  0  0
    0.4861   -1.6510    4.1144 C   0  0  0  0  0  0  0  0  0  0  0  0
    1.0927   -2.7198    4.1186 O   0  0  0  0  0  0  0  0  0  0  0  0
    0.7359   -0.5703    3.1356 C   0  0  0  0  0  0  0  0  0  0  0  0
    1.6574   -0.5858    2.1268 C   0  0  0  0  0  0  0  0  0  0  0  0
    2.6344   -1.5638    1.6360 C   0  0  0  0  0  0  0  0  0  0  0  0
    2.7616   -2.8500    1.9717 N   0  0  0  0  0  0  0  0  0  0  0  0
    3.8114   -3.4925    1.3133 C   0  0  0  0  0  0  0  0  0  0  0  0
    4.4914   -2.6713    0.4523 C   0  0  0  0  0  0  0  0  0  0  0  0
    3.8372   -1.0604    0.4508 S   0  0  0  0  0  0  0  0  0  0  0  0
   -0.0776    0.6510    3.2727 C   0  0  0  0  0  0  0  0  0  0  0  0
    0.0532    1.6136    2.5137 O   0  0  0  0  0  0  0  0  0  0  0  0
   -0.9954    0.6994    4.2758 N   0  0  0  0  0  0  0  0  0  0  0  0
   -1.7875    1.9458    4.3759 C   0  0  0  0  0  0  0  0  0  0  0  0
   -1.2225   -0.3012    5.1686 C   0  0  0  0  0  0  0  0  0  0  0  0
   -2.0739   -0.1946    6.0625 O   0  0  0  0  0  0  0  0  0  0  0  0
   -0.1688   -3.4018    5.9684 H   0  0  0  0  0  0  0  0  0  0  0  0
   -1.8053   -2.8066    5.9986 H   0  0  0  0  0  0  0  0  0  0  0  0
   -0.5798   -2.1170    7.0653 H   0  0  0  0  0  0  0  0  0  0  0  0
    1.7025    0.2946    1.4983 H   0  0  0  0  0  0  0  0  0  0  0  0
    4.0016   -4.5360    1.5187 H   0  0  0  0  0  0  0  0  0  0  0  0
    5.3321   -2.9094   -0.1812 H   0  0  0  0  0  0  0  0  0  0  0  0
   -2.5179    1.9750    5.1830 H   0  0  0  0  0  0  0  0  0  0  0  0
   -2.3449    2.1156    3.4522 H   0  0  0  0  0  0  0  0  0  0  0  0
   -1.1306    2.8035    4.5295 H   0  0  0  0  0  0  0  0  0  0  0  0
  1  2  1  0
  1 18  1  0
  1 19  1  0
  1 20  1  0
  2 16  1  0
  2  3  1  0
  3  4  2  0
  3  5  1  0
  5  6  2  3
  5 12  1  0
  6  7  1  0
  6 21  1  0
  7 11  1  0
  7  8  2  0
  8  9  1  0
  9 10  2  0
  9 22  1  0
 10 11  1  0
 10 23  1  0
 12 13  2  0
 12 14  1  0
 14 15  1  0
 14 16  1  0
 15 24  1  0
 15 25  1  0
 15 26  1  0
 16 17  2  0
M  END
>  <i_m_ct_stereo_status>  (151) 
1

>  <s_m_source_file>  (151) 
/var/tmp/pbs.5076255.sched01/tmprtix0sri/443g93ja_l.sdf

>  <i_m_source_file_index>  (151) 
23

>  <i_lp_mmshare_version>  (151) 
48012

>  <i_f3d_flags>  (151) 
0

>  <s_epik_input>  (151) 
Tz1DMU4oW0NIM10pQyg9TylDKEMoPU8pTjFbQ0gzXSk9W0NIXWMybltjSF1bY0hdczI=

>  <s_epik_cmdline>  (151) 
J2VwaWtfcHl0aG9uJywgJy1waHQnLCAnMi4wJywgJy1waCcsICc3LjAnLCAnLXRuJywgJzgnLCAnLW1hJywgJzIwMCcsICctaW1hZScsICc8aW5maWxlLm1hZT4nLCAnLW9tYWUnLCAnPG91dGZpbGUubWFlPic=

>  <r_lp_tautomer_probability>  (151) 
1

>  <r_epik_Ionization_Penalty>  (151) 
5.63595e-07

>  <r_epik_Ionization_Penalty_Charging>  (151) 
0

>  <r_epik_Ionization_Penalty_Neutral>  (151) 
5.63595e-07

>  <r_epik_State_Penalty>  (151) 
-0

>  <r_epik_Charging_Adjusted_Penalty>  (151) 
0

>  <i_epik_Tot_Q>  (151) 
0

>  <i_epik_Tot_abs_Q>  (151) 
0

>  <s_lp_Force_Field>  (151) 
OPLS3e

>  <r_lp_Energy>  (151) 
32.6604

>  <b_lp_Chiralities_Consistent>  (151) 
1

>  <s_lp_Variant>  (151) 
50:0-1

>  <s_i_glide_gridfile>  (151) 
pfpi4k_grid

>  <i_i_glide_lignum>  (151) 
23

>  <i_i_glide_rotatable_bonds>  (151) 
1

>  <r_i_docking_score>  (151) 
-3.47522

>  <r_i_glide_ligand_efficiency>  (151) 
-0.204425

>  <r_i_glide_ligand_efficiency_sa>  (151) 
-0.525633

>  <r_i_glide_ligand_efficiency_ln>  (151) 
-0.906607

>  <r_i_glide_gscore>  (151) 
-3.47522

>  <r_i_glide_lipo>  (151) 
-0.00930068

>  <r_i_glide_hbond>  (151) 
-0.152362

>  <r_i_glide_metal>  (151) 
-0

>  <r_i_glide_rewards>  (151) 
-1.69594

>  <r_i_glide_evdw>  (151) 
-20.9183

>  <r_i_glide_ecoul>  (151) 
-3.02803

>  <r_i_glide_erotb>  (151) 
0

>  <r_i_glide_esite>  (151) 
-0.117499

>  <r_i_glide_emodel>  (151) 
-29.3962

>  <r_i_glide_energy>  (151) 
-23.9464

>  <r_i_glide_einternal>  (151) 
0.182831

>  <r_i_glide_intrahb_reward>  (151) 
-0

>  <i_i_glide_confnum>  (151) 
2

>  <i_i_glide_posenum>  (151) 
3

>  <r_i_glide_eff_state_penalty>  (151) 
0

>  <ligand_id>  (151) 
50

>  <original_smiles>  (151) 
CN1C(=O)C(=Cc2nccs2)C(=O)N(C)C1=O

>  <smiles>  (151) 
[H]C(=C1C(=O)N(C([H])([H])[H])C(=O)N(C([H])([H])[H])C1=O)c1nc([H])c([H])s1

$$$$
51:0:0
     RDKit          3D

 28 32  0  0  1  0  0  0  0  0999 V2000
    3.1062   -2.2847    0.9667 C   0  0  0  0  0  0  0  0  0  0  0  0
    3.0180   -1.4531   -0.2451 N   0  0  0  0  0  0  0  0  0  0  0  0
    3.4832   -2.0796   -1.5186 C   0  0  2  0  0  0  0  0  0  0  0  0
    2.4867   -2.1510   -2.6956 C   0  0  1  0  0  0  0  0  0  0  0  0
    2.8701   -1.0646   -3.6991 C   0  0  0  0  0  0  0  0  0  0  0  0
    4.3613   -1.3414   -3.6576 C   0  0  2  0  0  0  0  0  0  0  0  0
    4.5551   -2.8668   -3.7225 C   0  0  1  0  0  0  0  0  0  0  0  0
    5.5552   -2.7966   -2.5560 C   0  0  2  0  0  0  0  0  0  0  0  0
    5.1611   -3.8936   -1.5688 C   0  0  0  0  0  0  0  0  0  0  0  0
    3.6619   -3.6086   -1.5947 C   0  0  2  0  0  0  0  0  0  0  0  0
    3.2786   -3.4099   -3.0739 C   0  0  1  0  0  0  0  0  0  0  0  0
    4.7684   -1.5220   -2.1751 C   0  0  2  0  0  0  0  0  0  0  0  0
    2.7703   -1.7348    1.8426 H   0  0  0  0  0  0  0  0  0  0  0  0
    4.1247   -2.6178    1.1544 H   0  0  0  0  0  0  0  0  0  0  0  0
    2.4632   -3.1532    0.8787 H   0  0  0  0  0  0  0  0  0  0  0  0
    2.0145   -1.1839   -0.3500 H   0  0  0  0  0  0  0  0  0  0  0  0
    1.4409   -2.3386   -2.4725 H   0  0  0  0  0  0  0  0  0  0  0  0
    2.4616   -1.2260   -4.6975 H   0  0  0  0  0  0  0  0  0  0  0  0
    2.6375   -0.0559   -3.3536 H   0  0  0  0  0  0  0  0  0  0  0  0
    4.9873   -0.7353   -4.3007 H   0  0  0  0  0  0  0  0  0  0  0  0
    4.8663   -3.3463   -4.6463 H   0  0  0  0  0  0  0  0  0  0  0  0
    6.6061   -2.6715   -2.8215 H   0  0  0  0  0  0  0  0  0  0  0  0
    5.3908   -4.8917   -1.9394 H   0  0  0  0  0  0  0  0  0  0  0  0
    5.5992   -3.7430   -0.5820 H   0  0  0  0  0  0  0  0  0  0  0  0
    2.9814   -4.2366   -1.0242 H   0  0  0  0  0  0  0  0  0  0  0  0
    2.7531   -4.1966   -3.6065 H   0  0  0  0  0  0  0  0  0  0  0  0
    5.3005   -0.7162   -1.6787 H   0  0  0  0  0  0  0  0  0  0  0  0
    3.5602   -0.6222   -0.0787 H   0  0  0  0  0  0  0  0  0  0  0  0
  1  2  1  0
  1 13  1  0
  1 14  1  0
  1 15  1  0
  3  2  1  1
  2 16  1  0
  2 28  1  0
  3 10  1  0
  3 12  1  0
  3  4  1  0
  4 11  1  0
  4  5  1  0
  4 17  1  1
  5  6  1  0
  5 18  1  0
  5 19  1  0
  6 12  1  0
  6  7  1  0
  6 20  1  6
  7 11  1  0
  7  8  1  0
  7 21  1  6
  8  9  1  0
  8 12  1  0
  8 22  1  6
  9 10  1  0
  9 23  1  0
  9 24  1  0
 10 11  1  0
 10 25  1  1
 11 26  1  6
 12 27  1  1
M  CHG  1   2   1
M  END
>  <i_m_ct_stereo_status>  (152) 
1

>  <s_m_source_file>  (152) 
/var/tmp/pbs.5076255.sched01/tmprtix0sri/443g93ja_l.sdf

>  <i_m_source_file_index>  (152) 
24

>  <i_lp_mmshare_version>  (152) 
48012

>  <i_f3d_flags>  (152) 
0

>  <s_epik_input>  (152) 
W0NIM11bTkhdW0NAXTEyW0NAQEhdM1tDQEhdNFtDQEhdNVtDQEBIXShbQ0gyXTMpW0NAQEhdMltDQEhdNVtDSDJdW0NAQEhdMTQ=

>  <s_epik_cmdline>  (152) 
J2VwaWtfcHl0aG9uJywgJy1waHQnLCAnMi4wJywgJy1waCcsICc3LjAnLCAnLXRuJywgJzgnLCAnLW1hJywgJzIwMCcsICctaW1hZScsICc8aW5maWxlLm1hZT4nLCAnLW9tYWUnLCAnPG91dGZpbGUubWFlPic=

>  <r_lp_tautomer_probability>  (152) 
1

>  <r_epik_Ionization_Penalty>  (152) 
4.75111e-05

>  <r_epik_Ionization_Penalty_Charging>  (152) 
4.75111e-05

>  <r_epik_Ionization_Penalty_Neutral>  (152) 
0

>  <r_epik_State_Penalty>  (152) 
-0

>  <r_epik_Charging_Adjusted_Penalty>  (152) 
4.75111e-05

>  <i_epik_Tot_Q>  (152) 
1

>  <i_epik_Tot_abs_Q>  (152) 
1

>  <s_lp_Force_Field>  (152) 
OPLS3e

>  <r_lp_Energy>  (152) 
83.2892

>  <b_lp_Chiralities_Consistent>  (152) 
1

>  <s_lp_Variant>  (152) 
51:0-1

>  <s_i_glide_gridfile>  (152) 
pfpi4k_grid

>  <i_i_glide_lignum>  (152) 
24

>  <i_i_glide_rotatable_bonds>  (152) 
1

>  <r_i_docking_score>  (152) 
-5.08325

>  <r_i_glide_ligand_efficiency>  (152) 
-0.423604

>  <r_i_glide_ligand_efficiency_sa>  (152) 
-0.969812

>  <r_i_glide_ligand_efficiency_ln>  (152) 
-1.45865

>  <r_i_glide_gscore>  (152) 
-5.08325

>  <r_i_glide_lipo>  (152) 
-0.63139

>  <r_i_glide_hbond>  (152) 
-0.123957

>  <r_i_glide_metal>  (152) 
-0

>  <r_i_glide_rewards>  (152) 
-2.25

>  <r_i_glide_evdw>  (152) 
-8.72832

>  <r_i_glide_ecoul>  (152) 
-10.2766

>  <r_i_glide_erotb>  (152) 
0

>  <r_i_glide_esite>  (152) 
-0.1

>  <r_i_glide_emodel>  (152) 
-24.3766

>  <r_i_glide_energy>  (152) 
-19.0049

>  <r_i_glide_einternal>  (152) 
2.49489

>  <r_i_glide_intrahb_reward>  (152) 
-0

>  <i_i_glide_confnum>  (152) 
1

>  <i_i_glide_posenum>  (152) 
9

>  <r_i_glide_eff_state_penalty>  (152) 
0

>  <ligand_id>  (152) 
51

>  <original_smiles>  (152) 
CNC12C3CC4C5C(CC1C53)C42

>  <smiles>  (152) 
[H]C1([H])C2([H])C3([H])C4([H])C([H])([H])C5([H])C3([H])C1([H])C5([N+]([H])([H])C([H])([H])[H])C24[H]

$$$$
51:0:1
     RDKit          3D

 28 32  0  0  1  0  0  0  0  0999 V2000
    3.2261   -1.6225    1.5867 C   0  0  0  0  0  0  0  0  0  0  0  0
    3.0341   -1.1581    0.1941 N   0  0  0  0  0  0  0  0  0  0  0  0
    3.4221   -2.0989   -0.8723 C   0  0  2  0  0  0  0  0  0  0  0  0
    2.8507   -3.5232   -0.8211 C   0  0  1  0  0  0  0  0  0  0  0  0
    1.7066   -3.5960   -1.8442 C   0  0  0  0  0  0  0  0  0  0  0  0
    2.4586   -2.8625   -2.9589 C   0  0  2  0  0  0  0  0  0  0  0  0
    3.8914   -3.4249   -3.0060 C   0  0  1  0  0  0  0  0  0  0  0  0
    4.4478   -1.9945   -3.0690 C   0  0  2  0  0  0  0  0  0  0  0  0
    5.5931   -1.9129   -2.0573 C   0  0  0  0  0  0  0  0  0  0  0  0
    4.8586   -2.6307   -0.9211 C   0  0  2  0  0  0  0  0  0  0  0  0
    4.1673   -3.8567   -1.5503 C   0  0  1  0  0  0  0  0  0  0  0  0
    3.1445   -1.6358   -2.3275 C   0  0  2  0  0  0  0  0  0  0  0  0
    2.9415   -0.8416    2.2950 H   0  0  0  0  0  0  0  0  0  0  0  0
    4.2638   -1.8691    1.7970 H   0  0  0  0  0  0  0  0  0  0  0  0
    2.6173   -2.4875    1.8163 H   0  0  0  0  0  0  0  0  0  0  0  0
    2.0475   -0.9723    0.0059 H   0  0  0  0  0  0  0  0  0  0  0  0
    2.7509   -3.9970    0.1570 H   0  0  0  0  0  0  0  0  0  0  0  0
    1.4144   -4.6124   -2.0930 H   0  0  0  0  0  0  0  0  0  0  0  0
    0.8129   -3.0618   -1.5302 H   0  0  0  0  0  0  0  0  0  0  0  0
    1.9857   -2.7000   -3.9312 H   0  0  0  0  0  0  0  0  0  0  0  0
    4.1449   -4.1109   -3.8148 H   0  0  0  0  0  0  0  0  0  0  0  0
    4.5561   -1.5753   -4.0740 H   0  0  0  0  0  0  0  0  0  0  0  0
    6.4858   -2.4505   -2.3878 H   0  0  0  0  0  0  0  0  0  0  0  0
    5.8419   -0.8834   -1.8095 H   0  0  0  0  0  0  0  0  0  0  0  0
    5.3648   -2.8344    0.0247 H   0  0  0  0  0  0  0  0  0  0  0  0
    4.6203   -4.8301   -1.3877 H   0  0  0  0  0  0  0  0  0  0  0  0
    2.7036   -0.6628   -2.5156 H   0  0  0  0  0  0  0  0  0  0  0  0
    3.5599   -0.3097    0.0794 H   0  0  0  0  0  0  0  0  0  0  0  0
  1  2  1  0
  1 13  1  0
  1 14  1  0
  1 15  1  0
  3  2  1  1
  2 16  1  0
  2 28  1  0
  3 10  1  0
  3 12  1  0
  3  4  1  0
  4 11  1  0
  4  5  1  0
  4 17  1  1
  5  6  1  0
  5 18  1  0
  5 19  1  0
  6 12  1  0
  6  7  1  0
  6 20  1  6
  7 11  1  0
  7  8  1  0
  7 21  1  6
  8  9  1  0
  8 12  1  0
  8 22  1  6
  9 10  1  0
  9 23  1  0
  9 24  1  0
 10 11  1  0
 10 25  1  1
 11 26  1  6
 12 27  1  1
M  CHG  1   2   1
M  END
>  <i_m_ct_stereo_status>  (153) 
1

>  <s_m_source_file>  (153) 
/var/tmp/pbs.5076255.sched01/tmprtix0sri/443g93ja_l.sdf

>  <i_m_source_file_index>  (153) 
24

>  <i_lp_mmshare_version>  (153) 
48012

>  <i_f3d_flags>  (153) 
0

>  <s_epik_input>  (153) 
W0NIM11bTkhdW0NAXTEyW0NAQEhdM1tDQEhdNFtDQEhdNVtDQEBIXShbQ0gyXTMpW0NAQEhdMltDQEhdNVtDSDJdW0NAQEhdMTQ=

>  <s_epik_cmdline>  (153) 
J2VwaWtfcHl0aG9uJywgJy1waHQnLCAnMi4wJywgJy1waCcsICc3LjAnLCAnLXRuJywgJzgnLCAnLW1hJywgJzIwMCcsICctaW1hZScsICc8aW5maWxlLm1hZT4nLCAnLW9tYWUnLCAnPG91dGZpbGUubWFlPic=

>  <r_lp_tautomer_probability>  (153) 
1

>  <r_epik_Ionization_Penalty>  (153) 
4.75111e-05

>  <r_epik_Ionization_Penalty_Charging>  (153) 
4.75111e-05

>  <r_epik_Ionization_Penalty_Neutral>  (153) 
0

>  <r_epik_State_Penalty>  (153) 
-0

>  <r_epik_Charging_Adjusted_Penalty>  (153) 
4.75111e-05

>  <i_epik_Tot_Q>  (153) 
1

>  <i_epik_Tot_abs_Q>  (153) 
1

>  <s_lp_Force_Field>  (153) 
OPLS3e

>  <r_lp_Energy>  (153) 
83.2892

>  <b_lp_Chiralities_Consistent>  (153) 
1

>  <s_lp_Variant>  (153) 
51:0-1

>  <s_i_glide_gridfile>  (153) 
pfpi4k_grid

>  <i_i_glide_lignum>  (153) 
24

>  <i_i_glide_rotatable_bonds>  (153) 
1

>  <r_i_docking_score>  (153) 
-4.29607

>  <r_i_glide_ligand_efficiency>  (153) 
-0.358006

>  <r_i_glide_ligand_efficiency_sa>  (153) 
-0.819629

>  <r_i_glide_ligand_efficiency_ln>  (153) 
-1.23276

>  <r_i_glide_gscore>  (153) 
-4.29607

>  <r_i_glide_lipo>  (153) 
-0.151082

>  <r_i_glide_hbond>  (153) 
-0.2

>  <r_i_glide_metal>  (153) 
-0

>  <r_i_glide_rewards>  (153) 
-2.25

>  <r_i_glide_evdw>  (153) 
-12.3816

>  <r_i_glide_ecoul>  (153) 
-6.54284

>  <r_i_glide_erotb>  (153) 
0

>  <r_i_glide_esite>  (153) 
-0.0944835

>  <r_i_glide_emodel>  (153) 
-24.2695

>  <r_i_glide_energy>  (153) 
-18.9244

>  <r_i_glide_einternal>  (153) 
0.630084

>  <r_i_glide_intrahb_reward>  (153) 
-0

>  <i_i_glide_confnum>  (153) 
2

>  <i_i_glide_posenum>  (153) 
1

>  <r_i_glide_eff_state_penalty>  (153) 
0

>  <ligand_id>  (153) 
51

>  <original_smiles>  (153) 
CNC12C3CC4C5C(CC1C53)C42

>  <smiles>  (153) 
[H]C1([H])C2([H])C3([H])C4([H])C([H])([H])C5([H])C3([H])C1([H])C5([N+]([H])([H])C([H])([H])[H])C24[H]

$$$$
51:0:2
     RDKit          3D

 28 32  0  0  1  0  0  0  0  0999 V2000
    2.6355   -0.1500   -4.5160 C   0  0  0  0  0  0  0  0  0  0  0  0
    3.0329   -0.3518   -3.1228 N   0  0  0  0  0  0  0  0  0  0  0  0
    3.5145   -1.6863   -2.7479 C   0  0  2  0  0  0  0  0  0  0  0  0
    2.5088   -2.8424   -2.7266 C   0  0  1  0  0  0  0  0  0  0  0  0
    2.7553   -3.6669   -3.9829 C   0  0  0  0  0  0  0  0  0  0  0  0
    4.2920   -3.6561   -3.8934 C   0  0  2  0  0  0  0  0  0  0  0  0
    4.6626   -3.9434   -2.4290 C   0  0  1  0  0  0  0  0  0  0  0  0
    5.6611   -2.7686   -2.4441 C   0  0  2  0  0  0  0  0  0  0  0  0
    5.4178   -1.9686   -1.1502 C   0  0  0  0  0  0  0  0  0  0  0  0
    3.8817   -1.9475   -1.2773 C   0  0  2  0  0  0  0  0  0  0  0  0
    3.4519   -3.3833   -1.6372 C   0  0  1  0  0  0  0  0  0  0  0  0
    4.7084   -2.2295   -3.5294 C   0  0  2  0  0  0  0  0  0  0  0  0
    2.2794    0.8590   -4.6825 H   0  0  0  0  0  0  0  0  0  0  0  0
    1.8258   -0.8206   -4.7537 H   0  0  0  0  0  0  0  0  0  0  0  0
    3.4488   -0.3117   -5.2200 H   0  0  0  0  0  0  0  0  0  0  0  0
    3.7493    0.3298   -2.9051 H   0  0  0  0  0  0  0  0  0  0  0  0
    1.4961   -2.6333   -2.3886 H   0  0  0  0  0  0  0  0  0  0  0  0
    2.2882   -4.6434   -3.9616 H   0  0  0  0  0  0  0  0  0  0  0  0
    2.4131   -3.1532   -4.8542 H   0  0  0  0  0  0  0  0  0  0  0  0
    4.9115   -4.1640   -4.6332 H   0  0  0  0  0  0  0  0  0  0  0  0
    5.0320   -4.9310   -2.1946 H   0  0  0  0  0  0  0  0  0  0  0  0
    6.6649   -3.0516   -2.7606 H   0  0  0  0  0  0  0  0  0  0  0  0
    5.7629   -2.5001   -0.2641 H   0  0  0  0  0  0  0  0  0  0  0  0
    5.8533   -0.9791   -1.1768 H   0  0  0  0  0  0  0  0  0  0  0  0
    3.2563   -1.4768   -0.5122 H   0  0  0  0  0  0  0  0  0  0  0  0
    3.0152   -4.0129   -0.8671 H   0  0  0  0  0  0  0  0  0  0  0  0
    5.0426   -1.5890   -4.3311 H   0  0  0  0  0  0  0  0  0  0  0  0
    2.2323   -0.1466   -2.5359 H   0  0  0  0  0  0  0  0  0  0  0  0
  1  2  1  0
  1 13  1  0
  1 14  1  0
  1 15  1  0
  3  2  1  1
  2 16  1  0
  2 28  1  0
  3 10  1  0
  3 12  1  0
  3  4  1  0
  4 11  1  0
  4  5  1  0
  4 17  1  1
  5  6  1  0
  5 18  1  0
  5 19  1  0
  6 12  1  0
  6  7  1  0
  6 20  1  6
  7 11  1  0
  7  8  1  0
  7 21  1  6
  8  9  1  0
  8 12  1  0
  8 22  1  6
  9 10  1  0
  9 23  1  0
  9 24  1  0
 10 11  1  0
 10 25  1  1
 11 26  1  1
 12 27  1  6
M  CHG  1   2   1
M  END
>  <i_m_ct_stereo_status>  (154) 
1

>  <s_m_source_file>  (154) 
/var/tmp/pbs.5076255.sched01/tmprtix0sri/443g93ja_l.sdf

>  <i_m_source_file_index>  (154) 
24

>  <i_lp_mmshare_version>  (154) 
48012

>  <i_f3d_flags>  (154) 
0

>  <s_epik_input>  (154) 
W0NIM11bTkhdW0NAXTEyW0NAQEhdM1tDQEhdNFtDQEhdNVtDQEBIXShbQ0gyXTMpW0NAQEhdMltDQEhdNVtDSDJdW0NAQEhdMTQ=

>  <s_epik_cmdline>  (154) 
J2VwaWtfcHl0aG9uJywgJy1waHQnLCAnMi4wJywgJy1waCcsICc3LjAnLCAnLXRuJywgJzgnLCAnLW1hJywgJzIwMCcsICctaW1hZScsICc8aW5maWxlLm1hZT4nLCAnLW9tYWUnLCAnPG91dGZpbGUubWFlPic=

>  <r_lp_tautomer_probability>  (154) 
1

>  <r_epik_Ionization_Penalty>  (154) 
4.75111e-05

>  <r_epik_Ionization_Penalty_Charging>  (154) 
4.75111e-05

>  <r_epik_Ionization_Penalty_Neutral>  (154) 
0

>  <r_epik_State_Penalty>  (154) 
-0

>  <r_epik_Charging_Adjusted_Penalty>  (154) 
4.75111e-05

>  <i_epik_Tot_Q>  (154) 
1

>  <i_epik_Tot_abs_Q>  (154) 
1

>  <s_lp_Force_Field>  (154) 
OPLS3e

>  <r_lp_Energy>  (154) 
83.2892

>  <b_lp_Chiralities_Consistent>  (154) 
1

>  <s_lp_Variant>  (154) 
51:0-1

>  <s_i_glide_gridfile>  (154) 
pfpi4k_grid

>  <i_i_glide_lignum>  (154) 
24

>  <i_i_glide_rotatable_bonds>  (154) 
1

>  <r_i_docking_score>  (154) 
-3.77642

>  <r_i_glide_ligand_efficiency>  (154) 
-0.314702

>  <r_i_glide_ligand_efficiency_sa>  (154) 
-0.720487

>  <r_i_glide_ligand_efficiency_ln>  (154) 
-1.08365

>  <r_i_glide_gscore>  (154) 
-3.77642

>  <r_i_glide_lipo>  (154) 
-0.364451

>  <r_i_glide_hbond>  (154) 
-0.0154359

>  <r_i_glide_metal>  (154) 
-0

>  <r_i_glide_rewards>  (154) 
-2.25

>  <r_i_glide_evdw>  (154) 
-13.0219

>  <r_i_glide_ecoul>  (154) 
-3.30293

>  <r_i_glide_erotb>  (154) 
0

>  <r_i_glide_esite>  (154) 
0

>  <r_i_glide_emodel>  (154) 
-21.1029

>  <r_i_glide_energy>  (154) 
-16.3248

>  <r_i_glide_einternal>  (154) 
0.199187

>  <r_i_glide_intrahb_reward>  (154) 
-0

>  <i_i_glide_confnum>  (154) 
1

>  <i_i_glide_posenum>  (154) 
36

>  <r_i_glide_eff_state_penalty>  (154) 
0

>  <ligand_id>  (154) 
51

>  <original_smiles>  (154) 
CNC12C3CC4C5C(CC1C53)C42

>  <smiles>  (154) 
[H]C1([H])C2([H])C3([H])C4([H])C([H])([H])C5([H])C3([H])C1([H])C5([N+]([H])([H])C([H])([H])[H])C24[H]

$$$$
53:1:0
     RDKit          3D

 44 47  0  0  1  0  0  0  0  0999 V2000
    4.0509   -2.9810   -3.6796 C   0  0  0  0  0  0  0  0  0  0  0  0
    4.5570   -2.7680   -2.2691 C   0  0  0  0  0  0  0  0  0  0  0  0
    5.0359   -3.8611   -1.5182 C   0  0  0  0  0  0  0  0  0  0  0  0
    5.4650   -3.7009   -0.1778 C   0  0  0  0  0  0  0  0  0  0  0  0
    5.8895   -4.9274    0.6264 C   0  0  0  0  0  0  0  0  0  0  0  0
    4.7414   -5.6457    1.2461 N   0  0  1  0  0  0  0  0  0  0  0  0
    4.3406   -5.0518    2.5416 C   0  0  0  0  0  0  0  0  0  0  0  0
    3.0715   -5.6635    3.0950 C   0  0  0  0  0  0  0  0  0  0  0  0
    2.2386   -6.4614    2.3965 C   0  0  0  0  0  0  0  0  0  0  0  0
    0.9950   -6.9875    2.9836 C   0  0  0  0  0  0  0  0  0  0  0  0
    0.3443   -6.3230    4.0474 C   0  0  0  0  0  0  0  0  0  0  0  0
   -0.8162   -6.8746    4.6126 C   0  0  0  0  0  0  0  0  0  0  0  0
   -1.3265   -8.0894    4.1166 C   0  0  0  0  0  0  0  0  0  0  0  0
   -0.6959   -8.7508    3.0502 C   0  0  0  0  0  0  0  0  0  0  0  0
    0.4651   -8.1991    2.4898 C   0  0  0  0  0  0  0  0  0  0  0  0
    2.5500   -6.7854    0.9499 C   0  0  0  0  0  0  0  0  0  0  0  0
    3.5873   -5.8575    0.3384 C   0  0  0  0  0  0  0  0  0  0  0  0
    5.4369   -2.4143    0.4102 C   0  0  0  0  0  0  0  0  0  0  0  0
    5.7735   -1.9598    1.6784 N   0  0  0  0  0  0  0  0  0  0  0  0
    5.5504   -0.6796    1.7185 N   0  0  0  0  0  0  0  0  0  0  0  0
    5.0809   -0.2812    0.5054 N   0  0  0  0  0  0  0  0  0  0  0  0
    4.9706   -1.3328   -0.3717 C   0  0  0  0  0  0  0  0  0  0  0  0
    4.5332   -1.4847   -1.6965 C   0  0  0  0  0  0  0  0  0  0  0  0
    4.8912    0.6946    0.2993 H   0  0  0  0  0  0  0  0  0  0  0  0
    4.1845   -4.0136   -4.0090 H   0  0  0  0  0  0  0  0  0  0  0  0
    4.6032   -2.3278   -4.3485 H   0  0  0  0  0  0  0  0  0  0  0  0
    2.9920   -2.7324   -3.7659 H   0  0  0  0  0  0  0  0  0  0  0  0
    5.0307   -4.8412   -1.9710 H   0  0  0  0  0  0  0  0  0  0  0  0
    6.4143   -5.6153   -0.0326 H   0  0  0  0  0  0  0  0  0  0  0  0
    6.6233   -4.6487    1.3866 H   0  0  0  0  0  0  0  0  0  0  0  0
    5.1392   -5.1904    3.2698 H   0  0  0  0  0  0  0  0  0  0  0  0
    4.1634   -3.9848    2.4317 H   0  0  0  0  0  0  0  0  0  0  0  0
    2.8632   -5.3914    4.1182 H   0  0  0  0  0  0  0  0  0  0  0  0
    0.7263   -5.3952    4.4404 H   0  0  0  0  0  0  0  0  0  0  0  0
   -1.2943   -6.3722    5.4425 H   0  0  0  0  0  0  0  0  0  0  0  0
   -2.1878   -8.5482    4.5702 H   0  0  0  0  0  0  0  0  0  0  0  0
   -1.0791   -9.6945    2.6816 H   0  0  0  0  0  0  0  0  0  0  0  0
    0.9523   -8.7377    1.6921 H   0  0  0  0  0  0  0  0  0  0  0  0
    2.8741   -7.8264    0.8915 H   0  0  0  0  0  0  0  0  0  0  0  0
    1.6352   -6.6666    0.3635 H   0  0  0  0  0  0  0  0  0  0  0  0
    3.0892   -4.9098    0.1280 H   0  0  0  0  0  0  0  0  0  0  0  0
    3.9266   -6.2958   -0.5978 H   0  0  0  0  0  0  0  0  0  0  0  0
    4.1716   -0.6434   -2.2606 H   0  0  0  0  0  0  0  0  0  0  0  0
    5.0765   -6.5720    1.4694 H   0  0  0  0  0  0  0  0  0  0  0  0
  1  2  1  0
  1 25  1  0
  1 26  1  0
  1 27  1  0
  2 23  2  0
  2  3  1  0
  3  4  2  0
  3 28  1  0
  4  5  1  0
  4 18  1  0
  5  6  1  0
  5 29  1  0
  5 30  1  0
  6 17  1  0
  6  7  1  0
  6 44  1  1
  7  8  1  0
  7 31  1  0
  7 32  1  0
  8  9  2  0
  8 33  1  0
  9 10  1  0
  9 16  1  0
 10 15  1  0
 10 11  2  0
 11 12  1  0
 11 34  1  0
 12 13  2  0
 12 35  1  0
 13 14  1  0
 13 36  1  0
 14 15  2  0
 14 37  1  0
 15 38  1  0
 16 17  1  0
 16 39  1  0
 16 40  1  0
 17 41  1  0
 17 42  1  0
 18 22  2  0
 18 19  1  0
 19 20  2  0
 20 21  1  0
 21 24  1  0
 21 22  1  0
 22 23  1  0
 23 43  1  0
M  CHG  1   6   1
M  END
>  <i_m_ct_stereo_status>  (155) 
1

>  <s_m_source_file>  (155) 
/var/tmp/pbs.5076255.sched01/tmprtix0sri/443g93ja_l.sdf

>  <i_m_source_file_index>  (155) 
27

>  <i_lp_mmshare_version>  (155) 
48012

>  <i_f3d_flags>  (155) 
0

>  <s_epik_input>  (155) 
bjFuW25IXWMoYzEyKVtjSF1jKFtDSDNdKVtjSF1jMltDSDJdTjNbQ0gyXVtDSF09QyhbQ0gyXVtDSDJdMyljNFtjSF1bY0hdW2NIXVtjSF1bY0hdNA==

>  <s_epik_cmdline>  (155) 
J2VwaWtfcHl0aG9uJywgJy1waHQnLCAnMi4wJywgJy1waCcsICc3LjAnLCAnLXRuJywgJzgnLCAnLW1hJywgJzIwMCcsICctaW1hZScsICc8aW5maWxlLm1hZT4nLCAnLW9tYWUnLCAnPG91dGZpbGUubWFlPic=

>  <r_lp_tautomer_probability>  (155) 
0.460795

>  <r_epik_Ionization_Penalty>  (155) 
0.296083

>  <r_epik_Ionization_Penalty_Charging>  (155) 
0.276352

>  <r_epik_Ionization_Penalty_Neutral>  (155) 
0.0197311

>  <r_epik_State_Penalty>  (155) 
0.774033

>  <r_epik_Charging_Adjusted_Penalty>  (155) 
1.05038

>  <i_epik_Tot_Q>  (155) 
1

>  <i_epik_Tot_abs_Q>  (155) 
1

>  <s_lp_Force_Field>  (155) 
OPLS3e

>  <r_lp_Energy>  (155) 
36.8634

>  <b_lp_Chiralities_Consistent>  (155) 
1

>  <s_lp_Variant>  (155) 
53:0-2

>  <s_i_glide_gridfile>  (155) 
pfpi4k_grid

>  <i_i_glide_lignum>  (155) 
27

>  <i_i_glide_rotatable_bonds>  (155) 
3

>  <r_i_docking_score>  (155) 
-3.37966

>  <r_i_glide_ligand_efficiency>  (155) 
-0.146942

>  <r_i_glide_ligand_efficiency_sa>  (155) 
-0.417883

>  <r_i_glide_ligand_efficiency_ln>  (155) 
-0.817233

>  <r_i_glide_gscore>  (155) 
-3.37966

>  <r_i_glide_lipo>  (155) 
-0.430108

>  <r_i_glide_hbond>  (155) 
-0.224221

>  <r_i_glide_metal>  (155) 
-0

>  <r_i_glide_rewards>  (155) 
-1.32684

>  <r_i_glide_evdw>  (155) 
-28.03

>  <r_i_glide_ecoul>  (155) 
-3.93772

>  <r_i_glide_erotb>  (155) 
0.593666

>  <r_i_glide_esite>  (155) 
0

>  <r_i_glide_emodel>  (155) 
-36.692

>  <r_i_glide_energy>  (155) 
-31.9677

>  <r_i_glide_einternal>  (155) 
3.84122

>  <r_i_glide_intrahb_reward>  (155) 
-0

>  <i_i_glide_confnum>  (155) 
5

>  <i_i_glide_posenum>  (155) 
36

>  <r_i_glide_eff_state_penalty>  (155) 
0

>  <ligand_id>  (155) 
53

>  <original_smiles>  (155) 
Cc1cc(CN2CC=C(c3ccccc3)CC2)c2nn[nH]c2c1

>  <smiles>  (155) 
[H]C1=C(c2c([H])c([H])c([H])c([H])c2[H])C([H])([H])C([H])([H])[N+]([H])(C([H])([H])c2c([H])c(C([H])([H])[H])c([H])c3c2nnn3[H])C1([H])[H]

$$$$
53:1:1
     RDKit          3D

 44 47  0  0  1  0  0  0  0  0999 V2000
    2.4488    1.2265    1.8584 C   0  0  0  0  0  0  0  0  0  0  0  0
    1.6324    0.5528    2.9357 C   0  0  0  0  0  0  0  0  0  0  0  0
    2.2352   -0.3761    3.8117 C   0  0  0  0  0  0  0  0  0  0  0  0
    1.4836   -0.9854    4.8481 C   0  0  0  0  0  0  0  0  0  0  0  0
    2.1734   -2.0247    5.7335 C   0  0  0  0  0  0  0  0  0  0  0  0
    1.9634   -3.4293    5.2775 N   0  0  1  0  0  0  0  0  0  0  0  0
    0.7004   -4.0047    5.8000 C   0  0  0  0  0  0  0  0  0  0  0  0
    0.3716   -5.3478    5.2139 C   0  0  0  0  0  0  0  0  0  0  0  0
    0.9928   -5.8785    4.1424 C   0  0  0  0  0  0  0  0  0  0  0  0
    0.5639   -7.1730    3.5945 C   0  0  0  0  0  0  0  0  0  0  0  0
   -0.7592   -7.6504    3.7477 C   0  0  0  0  0  0  0  0  0  0  0  0
   -1.1006   -8.9231    3.2596 C   0  0  0  0  0  0  0  0  0  0  0  0
   -0.1247   -9.7145    2.6280 C   0  0  0  0  0  0  0  0  0  0  0  0
    1.1924   -9.2476    2.4772 C   0  0  0  0  0  0  0  0  0  0  0  0
    1.5339   -7.9753    2.9579 C   0  0  0  0  0  0  0  0  0  0  0  0
    2.1109   -5.1085    3.4527 C   0  0  0  0  0  0  0  0  0  0  0  0
    2.1260   -3.6262    3.8129 C   0  0  0  0  0  0  0  0  0  0  0  0
    0.1083   -0.6646    4.9976 C   0  0  0  0  0  0  0  0  0  0  0  0
   -0.8687   -1.0877    5.8968 N   0  0  0  0  0  0  0  0  0  0  0  0
   -1.9971   -0.5513    5.5508 N   0  0  0  0  0  0  0  0  0  0  0  0
   -1.7857    0.2599    4.4823 N   0  0  0  0  0  0  0  0  0  0  0  0
   -0.4726    0.2392    4.0763 C   0  0  0  0  0  0  0  0  0  0  0  0
    0.2677    0.8550    3.0588 C   0  0  0  0  0  0  0  0  0  0  0  0
   -2.5411    0.7882    4.0530 H   0  0  0  0  0  0  0  0  0  0  0  0
    3.5029    0.9509    1.9009 H   0  0  0  0  0  0  0  0  0  0  0  0
    2.3705    2.3101    1.9556 H   0  0  0  0  0  0  0  0  0  0  0  0
    2.0617    0.9372    0.8828 H   0  0  0  0  0  0  0  0  0  0  0  0
    3.2780   -0.6192    3.6794 H   0  0  0  0  0  0  0  0  0  0  0  0
    3.2457   -1.8217    5.7299 H   0  0  0  0  0  0  0  0  0  0  0  0
    1.8638   -1.8927    6.7732 H   0  0  0  0  0  0  0  0  0  0  0  0
    0.7319   -4.0725    6.8895 H   0  0  0  0  0  0  0  0  0  0  0  0
   -0.1463   -3.4033    5.5010 H   0  0  0  0  0  0  0  0  0  0  0  0
   -0.4594   -5.8413    5.6911 H   0  0  0  0  0  0  0  0  0  0  0  0
   -1.5169   -7.0619    4.2403 H   0  0  0  0  0  0  0  0  0  0  0  0
   -2.1055   -9.3016    3.3867 H   0  0  0  0  0  0  0  0  0  0  0  0
   -0.3840  -10.6832    2.2395 H   0  0  0  0  0  0  0  0  0  0  0  0
    1.9400   -9.8515    1.9800 H   0  0  0  0  0  0  0  0  0  0  0  0
    2.5494   -7.6308    2.8426 H   0  0  0  0  0  0  0  0  0  0  0  0
    3.0627   -5.5778    3.7029 H   0  0  0  0  0  0  0  0  0  0  0  0
    1.9863   -5.1815    2.3692 H   0  0  0  0  0  0  0  0  0  0  0  0
    1.3112   -3.1371    3.2761 H   0  0  0  0  0  0  0  0  0  0  0  0
    3.0594   -3.1834    3.4626 H   0  0  0  0  0  0  0  0  0  0  0  0
   -0.1951    1.5581    2.3900 H   0  0  0  0  0  0  0  0  0  0  0  0
    2.7045   -3.9726    5.7027 H   0  0  0  0  0  0  0  0  0  0  0  0
  1  2  1  0
  1 25  1  0
  1 26  1  0
  1 27  1  0
  2 23  2  0
  2  3  1  0
  3  4  2  0
  3 28  1  0
  4  5  1  0
  4 18  1  0
  5  6  1  0
  5 29  1  0
  5 30  1  0
  6 17  1  0
  6  7  1  0
  6 44  1  1
  7  8  1  0
  7 31  1  0
  7 32  1  0
  8  9  2  0
  8 33  1  0
  9 10  1  0
  9 16  1  0
 10 15  1  0
 10 11  2  0
 11 12  1  0
 11 34  1  0
 12 13  2  0
 12 35  1  0
 13 14  1  0
 13 36  1  0
 14 15  2  0
 14 37  1  0
 15 38  1  0
 16 17  1  0
 16 39  1  0
 16 40  1  0
 17 41  1  0
 17 42  1  0
 18 22  2  0
 18 19  1  0
 19 20  2  0
 20 21  1  0
 21 24  1  0
 21 22  1  0
 22 23  1  0
 23 43  1  0
M  CHG  1   6   1
M  END
>  <i_m_ct_stereo_status>  (156) 
1

>  <s_m_source_file>  (156) 
/var/tmp/pbs.5076255.sched01/tmprtix0sri/443g93ja_l.sdf

>  <i_m_source_file_index>  (156) 
27

>  <i_lp_mmshare_version>  (156) 
48012

>  <i_f3d_flags>  (156) 
0

>  <s_epik_input>  (156) 
bjFuW25IXWMoYzEyKVtjSF1jKFtDSDNdKVtjSF1jMltDSDJdTjNbQ0gyXVtDSF09QyhbQ0gyXVtDSDJdMyljNFtjSF1bY0hdW2NIXVtjSF1bY0hdNA==

>  <s_epik_cmdline>  (156) 
J2VwaWtfcHl0aG9uJywgJy1waHQnLCAnMi4wJywgJy1waCcsICc3LjAnLCAnLXRuJywgJzgnLCAnLW1hJywgJzIwMCcsICctaW1hZScsICc8aW5maWxlLm1hZT4nLCAnLW9tYWUnLCAnPG91dGZpbGUubWFlPic=

>  <r_lp_tautomer_probability>  (156) 
0.460795

>  <r_epik_Ionization_Penalty>  (156) 
0.296083

>  <r_epik_Ionization_Penalty_Charging>  (156) 
0.276352

>  <r_epik_Ionization_Penalty_Neutral>  (156) 
0.0197311

>  <r_epik_State_Penalty>  (156) 
0.774033

>  <r_epik_Charging_Adjusted_Penalty>  (156) 
1.05038

>  <i_epik_Tot_Q>  (156) 
1

>  <i_epik_Tot_abs_Q>  (156) 
1

>  <s_lp_Force_Field>  (156) 
OPLS3e

>  <r_lp_Energy>  (156) 
36.8634

>  <b_lp_Chiralities_Consistent>  (156) 
1

>  <s_lp_Variant>  (156) 
53:0-2

>  <s_i_glide_gridfile>  (156) 
pfpi4k_grid

>  <i_i_glide_lignum>  (156) 
27

>  <i_i_glide_rotatable_bonds>  (156) 
3

>  <r_i_docking_score>  (156) 
-2.97099

>  <r_i_glide_ligand_efficiency>  (156) 
-0.129173

>  <r_i_glide_ligand_efficiency_sa>  (156) 
-0.367352

>  <r_i_glide_ligand_efficiency_ln>  (156) 
-0.718412

>  <r_i_glide_gscore>  (156) 
-2.97099

>  <r_i_glide_lipo>  (156) 
-0.0626373

>  <r_i_glide_hbond>  (156) 
-0.194567

>  <r_i_glide_metal>  (156) 
-0

>  <r_i_glide_rewards>  (156) 
-1.32684

>  <r_i_glide_evdw>  (156) 
-22.8818

>  <r_i_glide_ecoul>  (156) 
-4.42135

>  <r_i_glide_erotb>  (156) 
0.593666

>  <r_i_glide_esite>  (156) 
-0.173319

>  <r_i_glide_emodel>  (156) 
-31.2972

>  <r_i_glide_energy>  (156) 
-27.3032

>  <r_i_glide_einternal>  (156) 
3.5486

>  <r_i_glide_intrahb_reward>  (156) 
-0

>  <i_i_glide_confnum>  (156) 
5

>  <i_i_glide_posenum>  (156) 
13

>  <r_i_glide_eff_state_penalty>  (156) 
0

>  <ligand_id>  (156) 
53

>  <original_smiles>  (156) 
Cc1cc(CN2CC=C(c3ccccc3)CC2)c2nn[nH]c2c1

>  <smiles>  (156) 
[H]C1=C(c2c([H])c([H])c([H])c([H])c2[H])C([H])([H])C([H])([H])[N+]([H])(C([H])([H])c2c([H])c(C([H])([H])[H])c([H])c3c2nnn3[H])C1([H])[H]

$$$$
53:1:2
     RDKit          3D

 44 47  0  0  1  0  0  0  0  0999 V2000
   -2.2730   -0.4873    5.2593 C   0  0  0  0  0  0  0  0  0  0  0  0
   -0.9510   -0.1087    4.6359 C   0  0  0  0  0  0  0  0  0  0  0  0
    0.1930   -0.8284    5.0623 C   0  0  0  0  0  0  0  0  0  0  0  0
    1.4522   -0.5894    4.4377 C   0  0  0  0  0  0  0  0  0  0  0  0
    2.6619   -1.4762    4.8051 C   0  0  0  0  0  0  0  0  0  0  0  0
    2.4843   -2.9205    4.4785 N   0  0  1  0  0  0  0  0  0  0  0  0
    1.6870   -3.6573    5.5192 C   0  0  0  0  0  0  0  0  0  0  0  0
    1.3066   -5.0579    5.0730 C   0  0  0  0  0  0  0  0  0  0  0  0
    1.4173   -5.5163    3.8081 C   0  0  0  0  0  0  0  0  0  0  0  0
    0.9508   -6.8601    3.4653 C   0  0  0  0  0  0  0  0  0  0  0  0
   -0.2414   -7.3919    4.0100 C   0  0  0  0  0  0  0  0  0  0  0  0
   -0.5940   -8.7162    3.6929 C   0  0  0  0  0  0  0  0  0  0  0  0
    0.2445   -9.4929    2.8661 C   0  0  0  0  0  0  0  0  0  0  0  0
    1.4339   -8.9542    2.3386 C   0  0  0  0  0  0  0  0  0  0  0  0
    1.7903   -7.6330    2.6387 C   0  0  0  0  0  0  0  0  0  0  0  0
    2.0029   -4.6271    2.7192 C   0  0  0  0  0  0  0  0  0  0  0  0
    1.9919   -3.1332    3.0888 C   0  0  0  0  0  0  0  0  0  0  0  0
    1.5799    0.4520    3.4887 C   0  0  0  0  0  0  0  0  0  0  0  0
    2.6611    0.9589    2.7683 N   0  0  0  0  0  0  0  0  0  0  0  0
    2.2552    2.0003    2.0812 N   0  0  0  0  0  0  0  0  0  0  0  0
    0.9257    2.1387    2.2908 N   0  0  0  0  0  0  0  0  0  0  0  0
    0.4219    1.2198    3.1568 C   0  0  0  0  0  0  0  0  0  0  0  0
   -0.8504    0.9374    3.6992 C   0  0  0  0  0  0  0  0  0  0  0  0
    0.4075    2.8828    1.8131 H   0  0  0  0  0  0  0  0  0  0  0  0
   -2.1960   -1.4002    5.8574 H   0  0  0  0  0  0  0  0  0  0  0  0
   -3.0191   -0.6762    4.4781 H   0  0  0  0  0  0  0  0  0  0  0  0
   -2.5846    0.3311    5.9088 H   0  0  0  0  0  0  0  0  0  0  0  0
    0.0402   -1.5386    5.8444 H   0  0  0  0  0  0  0  0  0  0  0  0
    3.5749   -1.1339    4.3037 H   0  0  0  0  0  0  0  0  0  0  0  0
    2.8852   -1.3802    5.8642 H   0  0  0  0  0  0  0  0  0  0  0  0
    2.2380   -3.6941    6.4802 H   0  0  0  0  0  0  0  0  0  0  0  0
    0.6962   -3.2667    5.6597 H   0  0  0  0  0  0  0  0  0  0  0  0
    0.7857   -5.6298    5.8335 H   0  0  0  0  0  0  0  0  0  0  0  0
   -0.8757   -6.7998    4.6681 H   0  0  0  0  0  0  0  0  0  0  0  0
   -1.5050   -9.1378    4.0907 H   0  0  0  0  0  0  0  0  0  0  0  0
   -0.0297  -10.5090    2.6173 H   0  0  0  0  0  0  0  0  0  0  0  0
    2.0733   -9.5370    1.6925 H   0  0  0  0  0  0  0  0  0  0  0  0
    2.7136   -7.2104    2.2559 H   0  0  0  0  0  0  0  0  0  0  0  0
    3.0232   -4.9572    2.5214 H   0  0  0  0  0  0  0  0  0  0  0  0
    1.4199   -4.7523    1.8031 H   0  0  0  0  0  0  0  0  0  0  0  0
    0.9698   -2.7608    2.9909 H   0  0  0  0  0  0  0  0  0  0  0  0
    2.6020   -2.5705    2.3662 H   0  0  0  0  0  0  0  0  0  0  0  0
   -1.7330    1.5377    3.4467 H   0  0  0  0  0  0  0  0  0  0  0  0
    3.4080   -3.3411    4.4771 H   0  0  0  0  0  0  0  0  0  0  0  0
  1  2  1  0
  1 25  1  0
  1 26  1  0
  1 27  1  0
  2 23  2  0
  2  3  1  0
  3  4  2  0
  3 28  1  0
  4  5  1  0
  4 18  1  0
  5  6  1  0
  5 29  1  0
  5 30  1  0
  6 17  1  0
  6  7  1  0
  6 44  1  6
  7  8  1  0
  7 31  1  0
  7 32  1  0
  8  9  2  0
  8 33  1  0
  9 10  1  0
  9 16  1  0
 10 15  1  0
 10 11  2  0
 11 12  1  0
 11 34  1  0
 12 13  2  0
 12 35  1  0
 13 14  1  0
 13 36  1  0
 14 15  2  0
 14 37  1  0
 15 38  1  0
 16 17  1  0
 16 39  1  0
 16 40  1  0
 17 41  1  0
 17 42  1  0
 18 22  2  0
 18 19  1  0
 19 20  2  0
 20 21  1  0
 21 24  1  0
 21 22  1  0
 22 23  1  0
 23 43  1  0
M  CHG  1   6   1
M  END
>  <i_m_ct_stereo_status>  (157) 
1

>  <s_m_source_file>  (157) 
/var/tmp/pbs.5076255.sched01/tmprtix0sri/443g93ja_l.sdf

>  <i_m_source_file_index>  (157) 
27

>  <i_lp_mmshare_version>  (157) 
48012

>  <i_f3d_flags>  (157) 
0

>  <s_epik_input>  (157) 
bjFuW25IXWMoYzEyKVtjSF1jKFtDSDNdKVtjSF1jMltDSDJdTjNbQ0gyXVtDSF09QyhbQ0gyXVtDSDJdMyljNFtjSF1bY0hdW2NIXVtjSF1bY0hdNA==

>  <s_epik_cmdline>  (157) 
J2VwaWtfcHl0aG9uJywgJy1waHQnLCAnMi4wJywgJy1waCcsICc3LjAnLCAnLXRuJywgJzgnLCAnLW1hJywgJzIwMCcsICctaW1hZScsICc8aW5maWxlLm1hZT4nLCAnLW9tYWUnLCAnPG91dGZpbGUubWFlPic=

>  <r_lp_tautomer_probability>  (157) 
0.460795

>  <r_epik_Ionization_Penalty>  (157) 
0.296083

>  <r_epik_Ionization_Penalty_Charging>  (157) 
0.276352

>  <r_epik_Ionization_Penalty_Neutral>  (157) 
0.0197311

>  <r_epik_State_Penalty>  (157) 
0.774033

>  <r_epik_Charging_Adjusted_Penalty>  (157) 
1.05038

>  <i_epik_Tot_Q>  (157) 
1

>  <i_epik_Tot_abs_Q>  (157) 
1

>  <s_lp_Force_Field>  (157) 
OPLS3e

>  <r_lp_Energy>  (157) 
36.8634

>  <b_lp_Chiralities_Consistent>  (157) 
1

>  <s_lp_Variant>  (157) 
53:0-2

>  <s_i_glide_gridfile>  (157) 
pfpi4k_grid

>  <i_i_glide_lignum>  (157) 
27

>  <i_i_glide_rotatable_bonds>  (157) 
3

>  <r_i_docking_score>  (157) 
-2.70578

>  <r_i_glide_ligand_efficiency>  (157) 
-0.117643

>  <r_i_glide_ligand_efficiency_sa>  (157) 
-0.33456

>  <r_i_glide_ligand_efficiency_ln>  (157) 
-0.654283

>  <r_i_glide_gscore>  (157) 
-2.70578

>  <r_i_glide_lipo>  (157) 
-0.0194219

>  <r_i_glide_hbond>  (157) 
-0.16

>  <r_i_glide_metal>  (157) 
-0

>  <r_i_glide_rewards>  (157) 
-1.32684

>  <r_i_glide_evdw>  (157) 
-22.0523

>  <r_i_glide_ecoul>  (157) 
-3.94387

>  <r_i_glide_erotb>  (157) 
0.593666

>  <r_i_glide_esite>  (157) 
-0.0989906

>  <r_i_glide_emodel>  (157) 
-28.1611

>  <r_i_glide_energy>  (157) 
-25.9962

>  <r_i_glide_einternal>  (157) 
4.5099

>  <r_i_glide_intrahb_reward>  (157) 
-0

>  <i_i_glide_confnum>  (157) 
5

>  <i_i_glide_posenum>  (157) 
14

>  <r_i_glide_eff_state_penalty>  (157) 
0

>  <ligand_id>  (157) 
53

>  <original_smiles>  (157) 
Cc1cc(CN2CC=C(c3ccccc3)CC2)c2nn[nH]c2c1

>  <smiles>  (157) 
[H]C1=C(c2c([H])c([H])c([H])c([H])c2[H])C([H])([H])C([H])([H])[N+]([H])(C([H])([H])c2c([H])c(C([H])([H])[H])c([H])c3c2nnn3[H])C1([H])[H]

$$$$
53:2:0
     RDKit          3D

 43 46  0  0  1  0  0  0  0  0999 V2000
   -2.7443    3.0251    6.1334 C   0  0  0  0  0  0  0  0  0  0  0  0
   -1.7281    2.2001    5.3678 C   0  0  0  0  0  0  0  0  0  0  0  0
   -1.0414    1.1323    5.9962 C   0  0  0  0  0  0  0  0  0  0  0  0
   -0.0359    0.3968    5.3260 C   0  0  0  0  0  0  0  0  0  0  0  0
    0.6311   -0.7661    6.0451 C   0  0  0  0  0  0  0  0  0  0  0  0
    0.3164   -2.1097    5.5561 N   0  0  0  0  0  0  0  0  0  0  0  0
    1.0421   -2.3361    4.3098 C   0  0  0  0  0  0  0  0  0  0  0  0
    1.0579   -3.7359    3.8222 C   0  0  0  0  0  0  0  0  0  0  0  0
    0.6316   -4.7836    4.5350 C   0  0  0  0  0  0  0  0  0  0  0  0
    0.5659   -6.1297    3.9429 C   0  0  0  0  0  0  0  0  0  0  0  0
    1.3950   -6.4851    2.8523 C   0  0  0  0  0  0  0  0  0  0  0  0
    1.3168   -7.7813    2.3084 C   0  0  0  0  0  0  0  0  0  0  0  0
    0.4054   -8.7139    2.8513 C   0  0  0  0  0  0  0  0  0  0  0  0
   -0.4363   -8.3545    3.9257 C   0  0  0  0  0  0  0  0  0  0  0  0
   -0.3629   -7.0562    4.4606 C   0  0  0  0  0  0  0  0  0  0  0  0
    0.1867   -4.5235    5.9713 C   0  0  0  0  0  0  0  0  0  0  0  0
    0.6706   -3.1593    6.5140 C   0  0  0  0  0  0  0  0  0  0  0  0
    0.2933    0.7726    3.9914 C   0  0  0  0  0  0  0  0  0  0  0  0
    1.2559    0.3194    3.0845 N   0  0  0  0  0  0  0  0  0  0  0  0
    1.0741    0.9147    1.9401 N   0  0  0  0  0  0  0  0  0  0  0  0
    0.0328    1.7565    2.0595 N   0  0  0  0  0  0  0  0  0  0  0  0
   -0.4682    1.7753    3.3454 C   0  0  0  0  0  0  0  0  0  0  0  0
   -1.4537    2.5095    4.0201 C   0  0  0  0  0  0  0  0  0  0  0  0
   -0.2164    2.4101    1.3100 H   0  0  0  0  0  0  0  0  0  0  0  0
   -2.8697    2.6727    7.1636 H   0  0  0  0  0  0  0  0  0  0  0  0
   -3.7120    2.9682    5.6238 H   0  0  0  0  0  0  0  0  0  0  0  0
   -2.4234    4.0738    6.1637 H   0  0  0  0  0  0  0  0  0  0  0  0
   -1.2630    0.9069    7.0285 H   0  0  0  0  0  0  0  0  0  0  0  0
    1.7064   -0.6011    6.0784 H   0  0  0  0  0  0  0  0  0  0  0  0
    0.3039   -0.7129    7.0812 H   0  0  0  0  0  0  0  0  0  0  0  0
    0.4880   -1.8514    3.5098 H   0  0  0  0  0  0  0  0  0  0  0  0
    2.0711   -1.9866    4.3723 H   0  0  0  0  0  0  0  0  0  0  0  0
    1.3534   -3.8160    2.7891 H   0  0  0  0  0  0  0  0  0  0  0  0
    2.1137   -5.7935    2.4390 H   0  0  0  0  0  0  0  0  0  0  0  0
    1.9615   -8.0556    1.4896 H   0  0  0  0  0  0  0  0  0  0  0  0
    0.3535   -9.7041    2.4478 H   0  0  0  0  0  0  0  0  0  0  0  0
   -1.1299   -9.0612    4.3537 H   0  0  0  0  0  0  0  0  0  0  0  0
   -1.0095   -6.7777    5.2777 H   0  0  0  0  0  0  0  0  0  0  0  0
   -0.9066   -4.5899    6.0356 H   0  0  0  0  0  0  0  0  0  0  0  0
    0.6176   -5.3138    6.5901 H   0  0  0  0  0  0  0  0  0  0  0  0
    1.7534   -3.1715    6.6807 H   0  0  0  0  0  0  0  0  0  0  0  0
    0.1870   -2.9805    7.4814 H   0  0  0  0  0  0  0  0  0  0  0  0
   -1.9724    3.3216    3.5300 H   0  0  0  0  0  0  0  0  0  0  0  0
  1  2  1  0
  1 25  1  0
  1 26  1  0
  1 27  1  0
  2 23  2  0
  2  3  1  0
  3  4  2  0
  3 28  1  0
  4  5  1  0
  4 18  1  0
  5  6  1  0
  5 29  1  0
  5 30  1  0
  6 17  1  0
  6  7  1  0
  7  8  1  0
  7 31  1  0
  7 32  1  0
  8  9  2  0
  8 33  1  0
  9 10  1  0
  9 16  1  0
 10 15  1  0
 10 11  2  0
 11 12  1  0
 11 34  1  0
 12 13  2  0
 12 35  1  0
 13 14  1  0
 13 36  1  0
 14 15  2  0
 14 37  1  0
 15 38  1  0
 16 17  1  0
 16 39  1  0
 16 40  1  0
 17 41  1  0
 17 42  1  0
 18 22  2  0
 18 19  1  0
 19 20  2  0
 20 21  1  0
 21 24  1  0
 21 22  1  0
 22 23  1  0
 23 43  1  0
M  END
>  <i_m_ct_stereo_status>  (158) 
1

>  <s_m_source_file>  (158) 
/var/tmp/pbs.5076255.sched01/tmprtix0sri/443g93ja_l.sdf

>  <i_m_source_file_index>  (158) 
28

>  <i_lp_mmshare_version>  (158) 
48012

>  <i_f3d_flags>  (158) 
0

>  <s_epik_input>  (158) 
bjFuW25IXWMoYzEyKVtjSF1jKFtDSDNdKVtjSF1jMltDSDJdTjNbQ0gyXVtDSF09QyhbQ0gyXVtDSDJdMyljNFtjSF1bY0hdW2NIXVtjSF1bY0hdNA==

>  <s_epik_cmdline>  (158) 
J2VwaWtfcHl0aG9uJywgJy1waHQnLCAnMi4wJywgJy1waCcsICc3LjAnLCAnLXRuJywgJzgnLCAnLW1hJywgJzIwMCcsICctaW1hZScsICc8aW5maWxlLm1hZT4nLCAnLW9tYWUnLCAnPG91dGZpbGUubWFlPic=

>  <r_lp_tautomer_probability>  (158) 
0.460795

>  <r_epik_Ionization_Penalty>  (158) 
0.587924

>  <r_epik_Ionization_Penalty_Charging>  (158) 
0

>  <r_epik_Ionization_Penalty_Neutral>  (158) 
0.587924

>  <r_epik_State_Penalty>  (158) 
0.994072

>  <r_epik_Charging_Adjusted_Penalty>  (158) 
0.994072

>  <i_epik_Tot_Q>  (158) 
0

>  <i_epik_Tot_abs_Q>  (158) 
0

>  <s_lp_Force_Field>  (158) 
OPLS3e

>  <r_lp_Energy>  (158) 
33.8541

>  <b_lp_Chiralities_Consistent>  (158) 
1

>  <s_lp_Variant>  (158) 
53:0-3

>  <s_i_glide_gridfile>  (158) 
pfpi4k_grid

>  <i_i_glide_lignum>  (158) 
28

>  <i_i_glide_rotatable_bonds>  (158) 
3

>  <r_i_docking_score>  (158) 
-2.51515

>  <r_i_glide_ligand_efficiency>  (158) 
-0.109355

>  <r_i_glide_ligand_efficiency_sa>  (158) 
-0.31099

>  <r_i_glide_ligand_efficiency_ln>  (158) 
-0.608187

>  <r_i_glide_gscore>  (158) 
-2.51515

>  <r_i_glide_lipo>  (158) 
-0.140414

>  <r_i_glide_hbond>  (158) 
-0.133355

>  <r_i_glide_metal>  (158) 
-0

>  <r_i_glide_rewards>  (158) 
-1.33371

>  <r_i_glide_evdw>  (158) 
-24.0873

>  <r_i_glide_ecoul>  (158) 
-0.957956

>  <r_i_glide_erotb>  (158) 
0.597117

>  <r_i_glide_esite>  (158) 
-0.156733

>  <r_i_glide_emodel>  (158) 
-27.6028

>  <r_i_glide_energy>  (158) 
-25.0452

>  <r_i_glide_einternal>  (158) 
1.79775

>  <r_i_glide_intrahb_reward>  (158) 
-0

>  <i_i_glide_confnum>  (158) 
4

>  <i_i_glide_posenum>  (158) 
30

>  <r_i_glide_eff_state_penalty>  (158) 
0

>  <ligand_id>  (158) 
53

>  <original_smiles>  (158) 
Cc1cc(CN2CC=C(c3ccccc3)CC2)c2nn[nH]c2c1

>  <smiles>  (158) 
[H]C1=C(c2c([H])c([H])c([H])c([H])c2[H])C([H])([H])C([H])([H])N(C([H])([H])c2c([H])c(C([H])([H])[H])c([H])c3c2nnn3[H])C1([H])[H]

$$$$
53:2:1
     RDKit          3D

 43 46  0  0  1  0  0  0  0  0999 V2000
    2.7906   -2.1144    2.2033 C   0  0  0  0  0  0  0  0  0  0  0  0
    1.9131   -2.2475    3.4309 C   0  0  0  0  0  0  0  0  0  0  0  0
    1.5486   -1.0972    4.1525 C   0  0  0  0  0  0  0  0  0  0  0  0
    0.6137   -1.1487    5.2175 C   0  0  0  0  0  0  0  0  0  0  0  0
    0.1099    0.1418    5.8693 C   0  0  0  0  0  0  0  0  0  0  0  0
   -0.7828    0.9630    5.0353 N   0  0  0  0  0  0  0  0  0  0  0  0
   -1.4252    2.0157    5.8417 C   0  0  0  0  0  0  0  0  0  0  0  0
   -2.1910    3.0347    4.9953 C   0  0  0  0  0  0  0  0  0  0  0  0
   -2.0433    3.1584    3.6612 C   0  0  0  0  0  0  0  0  0  0  0  0
   -2.7942    4.1314    2.8726 C   0  0  0  0  0  0  0  0  0  0  0  0
   -4.1104    3.8292    2.4605 C   0  0  0  0  0  0  0  0  0  0  0  0
   -4.8183    4.7698    1.7012 C   0  0  0  0  0  0  0  0  0  0  0  0
   -4.2223    5.9970    1.3146 C   0  0  0  0  0  0  0  0  0  0  0  0
   -2.8845    6.2681    1.6771 C   0  0  0  0  0  0  0  0  0  0  0  0
   -2.1751    5.3392    2.4696 C   0  0  0  0  0  0  0  0  0  0  0  0
   -1.0881    2.2381    2.9522 C   0  0  0  0  0  0  0  0  0  0  0  0
   -0.1001    1.5900    3.9005 C   0  0  0  0  0  0  0  0  0  0  0  0
    0.1647   -2.4192    5.6773 C   0  0  0  0  0  0  0  0  0  0  0  0
   -0.6570   -2.8103    6.7371 N   0  0  0  0  0  0  0  0  0  0  0  0
   -0.7124   -4.1161    6.7635 N   0  0  0  0  0  0  0  0  0  0  0  0
    0.0345   -4.5804    5.7222 N   0  0  0  0  0  0  0  0  0  0  0  0
    0.6163   -3.5711    4.9885 C   0  0  0  0  0  0  0  0  0  0  0  0
    1.4575   -3.5115    3.8590 C   0  0  0  0  0  0  0  0  0  0  0  0
    0.1309   -5.5628    5.5423 H   0  0  0  0  0  0  0  0  0  0  0  0
    2.9854   -1.0613    1.9773 H   0  0  0  0  0  0  0  0  0  0  0  0
    2.2997   -2.5542    1.3287 H   0  0  0  0  0  0  0  0  0  0  0  0
    3.7433   -2.6105    2.3944 H   0  0  0  0  0  0  0  0  0  0  0  0
    1.9990   -0.1596    3.8378 H   0  0  0  0  0  0  0  0  0  0  0  0
   -0.4009   -0.1082    6.8035 H   0  0  0  0  0  0  0  0  0  0  0  0
    0.9734    0.7342    6.1609 H   0  0  0  0  0  0  0  0  0  0  0  0
   -2.1214    1.5623    6.5499 H   0  0  0  0  0  0  0  0  0  0  0  0
   -0.6793    2.5630    6.4253 H   0  0  0  0  0  0  0  0  0  0  0  0
   -2.8728    3.6934    5.5168 H   0  0  0  0  0  0  0  0  0  0  0  0
   -4.5497    2.8764    2.7468 H   0  0  0  0  0  0  0  0  0  0  0  0
   -5.8300    4.5462    1.4096 H   0  0  0  0  0  0  0  0  0  0  0  0
   -4.7836    6.7048    0.7289 H   0  0  0  0  0  0  0  0  0  0  0  0
   -2.3906    7.1781    1.3531 H   0  0  0  0  0  0  0  0  0  0  0  0
   -1.1311    5.5029    2.7319 H   0  0  0  0  0  0  0  0  0  0  0  0
   -1.6395    1.4828    2.3898 H   0  0  0  0  0  0  0  0  0  0  0  0
   -0.5051    2.7960    2.2252 H   0  0  0  0  0  0  0  0  0  0  0  0
    0.6625    2.2917    4.2423 H   0  0  0  0  0  0  0  0  0  0  0  0
    0.3323    0.8805    3.2129 H   0  0  0  0  0  0  0  0  0  0  0  0
    1.7884   -4.4094    3.3496 H   0  0  0  0  0  0  0  0  0  0  0  0
  1  2  1  0
  1 25  1  0
  1 26  1  0
  1 27  1  0
  2 23  2  0
  2  3  1  0
  3  4  2  0
  3 28  1  0
  4  5  1  0
  4 18  1  0
  5  6  1  0
  5 29  1  0
  5 30  1  0
  6 17  1  0
  6  7  1  0
  7  8  1  0
  7 31  1  0
  7 32  1  0
  8  9  2  0
  8 33  1  0
  9 10  1  0
  9 16  1  0
 10 15  1  0
 10 11  2  0
 11 12  1  0
 11 34  1  0
 12 13  2  0
 12 35  1  0
 13 14  1  0
 13 36  1  0
 14 15  2  0
 14 37  1  0
 15 38  1  0
 16 17  1  0
 16 39  1  0
 16 40  1  0
 17 41  1  0
 17 42  1  0
 18 22  2  0
 18 19  1  0
 19 20  2  0
 20 21  1  0
 21 24  1  0
 21 22  1  0
 22 23  1  0
 23 43  1  0
M  END
>  <i_m_ct_stereo_status>  (159) 
1

>  <s_m_source_file>  (159) 
/var/tmp/pbs.5076255.sched01/tmprtix0sri/443g93ja_l.sdf

>  <i_m_source_file_index>  (159) 
28

>  <i_lp_mmshare_version>  (159) 
48012

>  <i_f3d_flags>  (159) 
0

>  <s_epik_input>  (159) 
bjFuW25IXWMoYzEyKVtjSF1jKFtDSDNdKVtjSF1jMltDSDJdTjNbQ0gyXVtDSF09QyhbQ0gyXVtDSDJdMyljNFtjSF1bY0hdW2NIXVtjSF1bY0hdNA==

>  <s_epik_cmdline>  (159) 
J2VwaWtfcHl0aG9uJywgJy1waHQnLCAnMi4wJywgJy1waCcsICc3LjAnLCAnLXRuJywgJzgnLCAnLW1hJywgJzIwMCcsICctaW1hZScsICc8aW5maWxlLm1hZT4nLCAnLW9tYWUnLCAnPG91dGZpbGUubWFlPic=

>  <r_lp_tautomer_probability>  (159) 
0.460795

>  <r_epik_Ionization_Penalty>  (159) 
0.587924

>  <r_epik_Ionization_Penalty_Charging>  (159) 
0

>  <r_epik_Ionization_Penalty_Neutral>  (159) 
0.587924

>  <r_epik_State_Penalty>  (159) 
0.994072

>  <r_epik_Charging_Adjusted_Penalty>  (159) 
0.994072

>  <i_epik_Tot_Q>  (159) 
0

>  <i_epik_Tot_abs_Q>  (159) 
0

>  <s_lp_Force_Field>  (159) 
OPLS3e

>  <r_lp_Energy>  (159) 
33.8541

>  <b_lp_Chiralities_Consistent>  (159) 
1

>  <s_lp_Variant>  (159) 
53:0-3

>  <s_i_glide_gridfile>  (159) 
pfpi4k_grid

>  <i_i_glide_lignum>  (159) 
28

>  <i_i_glide_rotatable_bonds>  (159) 
3

>  <r_i_docking_score>  (159) 
-2.35463

>  <r_i_glide_ligand_efficiency>  (159) 
-0.102375

>  <r_i_glide_ligand_efficiency_sa>  (159) 
-0.291141

>  <r_i_glide_ligand_efficiency_ln>  (159) 
-0.56937

>  <r_i_glide_gscore>  (159) 
-2.35463

>  <r_i_glide_lipo>  (159) 
-0.462582

>  <r_i_glide_hbond>  (159) 
0

>  <r_i_glide_metal>  (159) 
-0

>  <r_i_glide_rewards>  (159) 
-1.33371

>  <r_i_glide_evdw>  (159) 
-13.5228

>  <r_i_glide_ecoul>  (159) 
-2.69362

>  <r_i_glide_erotb>  (159) 
0.597117

>  <r_i_glide_esite>  (159) 
-0.0752684

>  <r_i_glide_emodel>  (159) 
-17.9513

>  <r_i_glide_energy>  (159) 
-16.2164

>  <r_i_glide_einternal>  (159) 
4.21245

>  <r_i_glide_intrahb_reward>  (159) 
-0

>  <i_i_glide_confnum>  (159) 
4

>  <i_i_glide_posenum>  (159) 
34

>  <r_i_glide_eff_state_penalty>  (159) 
0

>  <ligand_id>  (159) 
53

>  <original_smiles>  (159) 
Cc1cc(CN2CC=C(c3ccccc3)CC2)c2nn[nH]c2c1

>  <smiles>  (159) 
[H]C1=C(c2c([H])c([H])c([H])c([H])c2[H])C([H])([H])C([H])([H])N(C([H])([H])c2c([H])c(C([H])([H])[H])c([H])c3c2nnn3[H])C1([H])[H]

$$$$
53:2:2
     RDKit          3D

 43 46  0  0  1  0  0  0  0  0999 V2000
    3.0332   -3.2502    2.2077 C   0  0  0  0  0  0  0  0  0  0  0  0
    2.1870   -2.8317    3.3903 C   0  0  0  0  0  0  0  0  0  0  0  0
    2.1099   -1.4709    3.7841 C   0  0  0  0  0  0  0  0  0  0  0  0
    1.3286   -1.0833    4.9009 C   0  0  0  0  0  0  0  0  0  0  0  0
    1.2985    0.3802    5.2878 C   0  0  0  0  0  0  0  0  0  0  0  0
    0.3992    1.1598    4.4457 N   0  0  0  0  0  0  0  0  0  0  0  0
   -0.9565    1.1392    5.0000 C   0  0  0  0  0  0  0  0  0  0  0  0
   -1.8910    2.1421    4.3538 C   0  0  0  0  0  0  0  0  0  0  0  0
   -1.4947    3.1595    3.5624 C   0  0  0  0  0  0  0  0  0  0  0  0
   -2.4895    4.0341    2.8841 C   0  0  0  0  0  0  0  0  0  0  0  0
   -3.8034    3.5824    2.5745 C   0  0  0  0  0  0  0  0  0  0  0  0
   -4.7342    4.4513    1.9647 C   0  0  0  0  0  0  0  0  0  0  0  0
   -4.3499    5.7520    1.5685 C   0  0  0  0  0  0  0  0  0  0  0  0
   -3.0211    6.1701    1.7730 C   0  0  0  0  0  0  0  0  0  0  0  0
   -2.1165    5.3401    2.4720 C   0  0  0  0  0  0  0  0  0  0  0  0
   -0.0006    3.2515    3.2795 C   0  0  0  0  0  0  0  0  0  0  0  0
    0.8683    2.5321    4.2953 C   0  0  0  0  0  0  0  0  0  0  0  0
    0.6027   -2.0462    5.6343 C   0  0  0  0  0  0  0  0  0  0  0  0
   -0.2238   -1.9566    6.7509 N   0  0  0  0  0  0  0  0  0  0  0  0
   -0.6336   -3.1551    7.0436 N   0  0  0  0  0  0  0  0  0  0  0  0
   -0.1129   -4.0221    6.1370 N   0  0  0  0  0  0  0  0  0  0  0  0
    0.6934   -3.3966    5.2120 C   0  0  0  0  0  0  0  0  0  0  0  0
    1.4683   -3.7981    4.1151 C   0  0  0  0  0  0  0  0  0  0  0  0
   -0.3026   -5.0075    6.1900 H   0  0  0  0  0  0  0  0  0  0  0  0
    3.5202   -2.3931    1.7476 H   0  0  0  0  0  0  0  0  0  0  0  0
    2.4069   -3.7323    1.4560 H   0  0  0  0  0  0  0  0  0  0  0  0
    3.8048   -3.9531    2.5268 H   0  0  0  0  0  0  0  0  0  0  0  0
    2.6617   -0.7205    3.2282 H   0  0  0  0  0  0  0  0  0  0  0  0
    1.0598    0.5164    6.3484 H   0  0  0  0  0  0  0  0  0  0  0  0
    2.3173    0.7507    5.1622 H   0  0  0  0  0  0  0  0  0  0  0  0
   -1.3698    0.1313    4.9140 H   0  0  0  0  0  0  0  0  0  0  0  0
   -0.9281    1.4051    6.0574 H   0  0  0  0  0  0  0  0  0  0  0  0
   -2.9331    2.0182    4.5680 H   0  0  0  0  0  0  0  0  0  0  0  0
   -4.1267    2.5840    2.8310 H   0  0  0  0  0  0  0  0  0  0  0  0
   -5.7508    4.1215    1.7872 H   0  0  0  0  0  0  0  0  0  0  0  0
   -5.0477    6.4198    1.0857 H   0  0  0  0  0  0  0  0  0  0  0  0
   -2.6707    7.1392    1.4513 H   0  0  0  0  0  0  0  0  0  0  0  0
   -1.1184    5.7182    2.6239 H   0  0  0  0  0  0  0  0  0  0  0  0
    0.1620    2.8450    2.2861 H   0  0  0  0  0  0  0  0  0  0  0  0
    0.3610    4.2768    3.2937 H   0  0  0  0  0  0  0  0  0  0  0  0
    0.8519    3.0737    5.2419 H   0  0  0  0  0  0  0  0  0  0  0  0
    1.8856    2.5533    3.9073 H   0  0  0  0  0  0  0  0  0  0  0  0
    1.5183   -4.8378    3.8350 H   0  0  0  0  0  0  0  0  0  0  0  0
  1  2  1  0
  1 25  1  0
  1 26  1  0
  1 27  1  0
  2 23  2  0
  2  3  1  0
  3  4  2  0
  3 28  1  0
  4  5  1  0
  4 18  1  0
  5  6  1  0
  5 29  1  0
  5 30  1  0
  6 17  1  0
  6  7  1  0
  7  8  1  0
  7 31  1  0
  7 32  1  0
  8  9  2  0
  8 33  1  0
  9 10  1  0
  9 16  1  0
 10 15  1  0
 10 11  2  0
 11 12  1  0
 11 34  1  0
 12 13  2  0
 12 35  1  0
 13 14  1  0
 13 36  1  0
 14 15  2  0
 14 37  1  0
 15 38  1  0
 16 17  1  0
 16 39  1  0
 16 40  1  0
 17 41  1  0
 17 42  1  0
 18 22  2  0
 18 19  1  0
 19 20  2  0
 20 21  1  0
 21 24  1  0
 21 22  1  0
 22 23  1  0
 23 43  1  0
M  END
>  <i_m_ct_stereo_status>  (160) 
1

>  <s_m_source_file>  (160) 
/var/tmp/pbs.5076255.sched01/tmprtix0sri/443g93ja_l.sdf

>  <i_m_source_file_index>  (160) 
28

>  <i_lp_mmshare_version>  (160) 
48012

>  <i_f3d_flags>  (160) 
0

>  <s_epik_input>  (160) 
bjFuW25IXWMoYzEyKVtjSF1jKFtDSDNdKVtjSF1jMltDSDJdTjNbQ0gyXVtDSF09QyhbQ0gyXVtDSDJdMyljNFtjSF1bY0hdW2NIXVtjSF1bY0hdNA==

>  <s_epik_cmdline>  (160) 
J2VwaWtfcHl0aG9uJywgJy1waHQnLCAnMi4wJywgJy1waCcsICc3LjAnLCAnLXRuJywgJzgnLCAnLW1hJywgJzIwMCcsICctaW1hZScsICc8aW5maWxlLm1hZT4nLCAnLW9tYWUnLCAnPG91dGZpbGUubWFlPic=

>  <r_lp_tautomer_probability>  (160) 
0.460795

>  <r_epik_Ionization_Penalty>  (160) 
0.587924

>  <r_epik_Ionization_Penalty_Charging>  (160) 
0

>  <r_epik_Ionization_Penalty_Neutral>  (160) 
0.587924

>  <r_epik_State_Penalty>  (160) 
0.994072

>  <r_epik_Charging_Adjusted_Penalty>  (160) 
0.994072

>  <i_epik_Tot_Q>  (160) 
0

>  <i_epik_Tot_abs_Q>  (160) 
0

>  <s_lp_Force_Field>  (160) 
OPLS3e

>  <r_lp_Energy>  (160) 
33.8541

>  <b_lp_Chiralities_Consistent>  (160) 
1

>  <s_lp_Variant>  (160) 
53:0-3

>  <s_i_glide_gridfile>  (160) 
pfpi4k_grid

>  <i_i_glide_lignum>  (160) 
28

>  <i_i_glide_rotatable_bonds>  (160) 
3

>  <r_i_docking_score>  (160) 
-2.08099

>  <r_i_glide_ligand_efficiency>  (160) 
-0.0904779

>  <r_i_glide_ligand_efficiency_sa>  (160) 
-0.257307

>  <r_i_glide_ligand_efficiency_ln>  (160) 
-0.503203

>  <r_i_glide_gscore>  (160) 
-2.08099

>  <r_i_glide_lipo>  (160) 
-0.351316

>  <r_i_glide_hbond>  (160) 
0

>  <r_i_glide_metal>  (160) 
-0

>  <r_i_glide_rewards>  (160) 
-1.33371

>  <r_i_glide_evdw>  (160) 
-9.95502

>  <r_i_glide_ecoul>  (160) 
-2.61068

>  <r_i_glide_erotb>  (160) 
0.597117

>  <r_i_glide_esite>  (160) 
-0.103728

>  <r_i_glide_emodel>  (160) 
-13.9838

>  <r_i_glide_energy>  (160) 
-12.5657

>  <r_i_glide_einternal>  (160) 
4.77539

>  <r_i_glide_intrahb_reward>  (160) 
-0

>  <i_i_glide_confnum>  (160) 
4

>  <i_i_glide_posenum>  (160) 
2

>  <r_i_glide_eff_state_penalty>  (160) 
0

>  <ligand_id>  (160) 
53

>  <original_smiles>  (160) 
Cc1cc(CN2CC=C(c3ccccc3)CC2)c2nn[nH]c2c1

>  <smiles>  (160) 
[H]C1=C(c2c([H])c([H])c([H])c([H])c2[H])C([H])([H])C([H])([H])N(C([H])([H])c2c([H])c(C([H])([H])[H])c([H])c3c2nnn3[H])C1([H])[H]

$$$$
53:3:0
     RDKit          3D

 43 46  0  0  1  0  0  0  0  0999 V2000
    8.5220   -3.3720   -0.8716 C   0  0  0  0  0  0  0  0  0  0  0  0
    7.0425   -3.0645   -0.9208 C   0  0  0  0  0  0  0  0  0  0  0  0
    6.2931   -3.0551    0.2723 C   0  0  0  0  0  0  0  0  0  0  0  0
    4.9092   -2.7877    0.2410 C   0  0  0  0  0  0  0  0  0  0  0  0
    4.1365   -2.8000    1.5433 C   0  0  0  0  0  0  0  0  0  0  0  0
    3.1527   -1.7282    1.6518 N   0  0  0  0  0  0  0  0  0  0  0  0
    2.1433   -2.0640    2.6555 C   0  0  0  0  0  0  0  0  0  0  0  0
    1.2402   -0.8913    2.9993 C   0  0  0  0  0  0  0  0  0  0  0  0
    1.5313    0.3909    2.6972 C   0  0  0  0  0  0  0  0  0  0  0  0
    0.5852    1.4749    3.0156 C   0  0  0  0  0  0  0  0  0  0  0  0
    1.0736    2.6922    3.5359 C   0  0  0  0  0  0  0  0  0  0  0  0
    0.1835    3.7304    3.8691 C   0  0  0  0  0  0  0  0  0  0  0  0
   -1.2017    3.5509    3.6884 C   0  0  0  0  0  0  0  0  0  0  0  0
   -1.6966    2.3390    3.1721 C   0  0  0  0  0  0  0  0  0  0  0  0
   -0.8034    1.3035    2.8381 C   0  0  0  0  0  0  0  0  0  0  0  0
    2.8015    0.6860    1.9149 C   0  0  0  0  0  0  0  0  0  0  0  0
    3.8115   -0.4661    1.9807 C   0  0  0  0  0  0  0  0  0  0  0  0
    4.2853   -2.5454   -1.0094 C   0  0  0  0  0  0  0  0  0  0  0  0
    3.0142   -2.2494   -1.4806 N   0  0  0  0  0  0  0  0  0  0  0  0
    2.9895   -2.0908   -2.8328 N   0  0  0  0  0  0  0  0  0  0  0  0
    4.1872   -2.2660   -3.2999 N   0  0  0  0  0  0  0  0  0  0  0  0
    5.0151   -2.5499   -2.2217 C   0  0  0  0  0  0  0  0  0  0  0  0
    6.4010   -2.8160   -2.1569 C   0  0  0  0  0  0  0  0  0  0  0  0
    2.1708   -2.0507   -0.9372 H   0  0  0  0  0  0  0  0  0  0  0  0
    8.9643   -3.4534   -1.8654 H   0  0  0  0  0  0  0  0  0  0  0  0
    8.6791   -4.3157   -0.3551 H   0  0  0  0  0  0  0  0  0  0  0  0
    9.0455   -2.5903   -0.3263 H   0  0  0  0  0  0  0  0  0  0  0  0
    6.7954   -3.2698    1.2042 H   0  0  0  0  0  0  0  0  0  0  0  0
    4.8328   -2.7210    2.3845 H   0  0  0  0  0  0  0  0  0  0  0  0
    3.6553   -3.7745    1.6275 H   0  0  0  0  0  0  0  0  0  0  0  0
    1.5273   -2.8780    2.2749 H   0  0  0  0  0  0  0  0  0  0  0  0
    2.6058   -2.4120    3.5802 H   0  0  0  0  0  0  0  0  0  0  0  0
    0.3306   -1.1360    3.5271 H   0  0  0  0  0  0  0  0  0  0  0  0
    2.1310    2.8408    3.6786 H   0  0  0  0  0  0  0  0  0  0  0  0
    0.5780    4.6611    4.2539 H   0  0  0  0  0  0  0  0  0  0  0  0
   -1.8828    4.3475    3.9387 H   0  0  0  0  0  0  0  0  0  0  0  0
   -2.7568    2.2022    3.0164 H   0  0  0  0  0  0  0  0  0  0  0  0
   -1.1874    0.3876    2.4265 H   0  0  0  0  0  0  0  0  0  0  0  0
    2.5288    0.9154    0.8842 H   0  0  0  0  0  0  0  0  0  0  0  0
    3.3015    1.5635    2.3207 H   0  0  0  0  0  0  0  0  0  0  0  0
    4.2429   -0.5215    2.9825 H   0  0  0  0  0  0  0  0  0  0  0  0
    4.6287   -0.2642    1.2888 H   0  0  0  0  0  0  0  0  0  0  0  0
    6.9614   -2.8277   -3.0812 H   0  0  0  0  0  0  0  0  0  0  0  0
  1 25  1  0
  1 26  1  0
  1 27  1  0
  1  2  1  0
  2  3  2  0
  2 23  1  0
  3  4  1  0
  3 28  1  0
  4  5  1  0
  4 18  2  0
  5  6  1  0
  5 29  1  0
  5 30  1  0
  6 17  1  0
  6  7  1  0
  7  8  1  0
  7 31  1  0
  7 32  1  0
  8  9  2  0
  8 33  1  0
  9 10  1  0
  9 16  1  0
 10 15  1  0
 10 11  2  0
 11 12  1  0
 11 34  1  0
 12 13  2  0
 12 35  1  0
 13 14  1  0
 13 36  1  0
 14 15  2  0
 14 37  1  0
 15 38  1  0
 16 17  1  0
 16 39  1  0
 16 40  1  0
 17 41  1  0
 17 42  1  0
 18 19  1  0
 18 22  1  0
 19 20  1  0
 19 24  1  0
 20 21  2  0
 21 22  1  0
 22 23  2  0
 23 43  1  0
M  END
>  <i_m_ct_stereo_status>  (161) 
1

>  <s_m_source_file>  (161) 
/var/tmp/pbs.5076255.sched01/tmprtix0sri/443g93ja_l.sdf

>  <i_m_source_file_index>  (161) 
29

>  <i_lp_mmshare_version>  (161) 
48012

>  <i_f3d_flags>  (161) 
0

>  <s_epik_input>  (161) 
bjFuW25IXWMoYzEyKVtjSF1jKFtDSDNdKVtjSF1jMltDSDJdTjNbQ0gyXVtDSF09QyhbQ0gyXVtDSDJdMyljNFtjSF1bY0hdW2NIXVtjSF1bY0hdNA==

>  <s_epik_cmdline>  (161) 
J2VwaWtfcHl0aG9uJywgJy1waHQnLCAnMi4wJywgJy1waCcsICc3LjAnLCAnLXRuJywgJzgnLCAnLW1hJywgJzIwMCcsICctaW1hZScsICc8aW5maWxlLm1hZT4nLCAnLW9tYWUnLCAnPG91dGZpbGUubWFlPic=

>  <r_lp_tautomer_probability>  (161) 
0.460795

>  <r_epik_Ionization_Penalty>  (161) 
0.850076

>  <r_epik_Ionization_Penalty_Charging>  (161) 
0

>  <r_epik_Ionization_Penalty_Neutral>  (161) 
0.850076

>  <r_epik_State_Penalty>  (161) 
1.10934

>  <r_epik_Charging_Adjusted_Penalty>  (161) 
1.10934

>  <i_epik_Tot_Q>  (161) 
0

>  <i_epik_Tot_abs_Q>  (161) 
0

>  <s_lp_Force_Field>  (161) 
OPLS3e

>  <r_lp_Energy>  (161) 
32.5572

>  <b_lp_Chiralities_Consistent>  (161) 
1

>  <s_lp_Variant>  (161) 
53:0-4

>  <s_i_glide_gridfile>  (161) 
pfpi4k_grid

>  <i_i_glide_lignum>  (161) 
29

>  <i_i_glide_rotatable_bonds>  (161) 
3

>  <r_i_docking_score>  (161) 
-3.42608

>  <r_i_glide_ligand_efficiency>  (161) 
-0.14896

>  <r_i_glide_ligand_efficiency_sa>  (161) 
-0.423622

>  <r_i_glide_ligand_efficiency_ln>  (161) 
-0.828457

>  <r_i_glide_gscore>  (161) 
-3.42608

>  <r_i_glide_lipo>  (161) 
-0.335553

>  <r_i_glide_hbond>  (161) 
-0.142834

>  <r_i_glide_metal>  (161) 
-0

>  <r_i_glide_rewards>  (161) 
-1.33371

>  <r_i_glide_evdw>  (161) 
-29.1363

>  <r_i_glide_ecoul>  (161) 
-4.33519

>  <r_i_glide_erotb>  (161) 
0.597117

>  <r_i_glide_esite>  (161) 
-0.104003

>  <r_i_glide_emodel>  (161) 
-38.4614

>  <r_i_glide_energy>  (161) 
-33.4715

>  <r_i_glide_einternal>  (161) 
3.21958

>  <r_i_glide_intrahb_reward>  (161) 
-0

>  <i_i_glide_confnum>  (161) 
4

>  <i_i_glide_posenum>  (161) 
38

>  <r_i_glide_eff_state_penalty>  (161) 
0

>  <ligand_id>  (161) 
53

>  <original_smiles>  (161) 
Cc1cc(CN2CC=C(c3ccccc3)CC2)c2nn[nH]c2c1

>  <smiles>  (161) 
[H]C1=C(c2c([H])c([H])c([H])c([H])c2[H])C([H])([H])C([H])([H])N(C([H])([H])c2c([H])c(C([H])([H])[H])c([H])c3nnn([H])c23)C1([H])[H]

$$$$
53:3:1
     RDKit          3D

 43 46  0  0  1  0  0  0  0  0999 V2000
    2.5284   -3.3253   -2.2596 C   0  0  0  0  0  0  0  0  0  0  0  0
    3.7532   -2.9881   -1.4361 C   0  0  0  0  0  0  0  0  0  0  0  0
    3.5781   -2.6343   -0.0844 C   0  0  0  0  0  0  0  0  0  0  0  0
    4.6914   -2.2779    0.7101 C   0  0  0  0  0  0  0  0  0  0  0  0
    4.4979   -1.8836    2.1642 C   0  0  0  0  0  0  0  0  0  0  0  0
    3.2125   -1.2364    2.3983 N   0  0  0  0  0  0  0  0  0  0  0  0
    2.8369   -1.2769    3.8082 C   0  0  0  0  0  0  0  0  0  0  0  0
    1.6164   -0.4283    4.1094 C   0  0  0  0  0  0  0  0  0  0  0  0
    1.1002    0.4834    3.2565 C   0  0  0  0  0  0  0  0  0  0  0  0
   -0.0802    1.2956    3.6110 C   0  0  0  0  0  0  0  0  0  0  0  0
   -0.4183    1.5613    4.9568 C   0  0  0  0  0  0  0  0  0  0  0  0
   -1.5677    2.3134    5.2687 C   0  0  0  0  0  0  0  0  0  0  0  0
   -2.3811    2.8068    4.2316 C   0  0  0  0  0  0  0  0  0  0  0  0
   -2.0415    2.5592    2.8880 C   0  0  0  0  0  0  0  0  0  0  0  0
   -0.8988    1.7992    2.5765 C   0  0  0  0  0  0  0  0  0  0  0  0
    1.7989    0.7121    1.9245 C   0  0  0  0  0  0  0  0  0  0  0  0
    3.2182    0.1327    1.8852 C   0  0  0  0  0  0  0  0  0  0  0  0
    5.9726   -2.3230    0.1262 C   0  0  0  0  0  0  0  0  0  0  0  0
    7.2690   -2.0716    0.5314 N   0  0  0  0  0  0  0  0  0  0  0  0
    8.1794   -2.3141   -0.4468 N   0  0  0  0  0  0  0  0  0  0  0  0
    7.5327   -2.6649   -1.5175 N   0  0  0  0  0  0  0  0  0  0  0  0
    6.1763   -2.7014   -1.2220 C   0  0  0  0  0  0  0  0  0  0  0  0
    5.0458   -3.0226   -2.0068 C   0  0  0  0  0  0  0  0  0  0  0  0
    7.5682   -1.7742    1.4441 H   0  0  0  0  0  0  0  0  0  0  0  0
    2.7666   -3.5010   -3.3077 H   0  0  0  0  0  0  0  0  0  0  0  0
    1.8143   -2.5029   -2.2133 H   0  0  0  0  0  0  0  0  0  0  0  0
    2.0397   -4.2122   -1.8544 H   0  0  0  0  0  0  0  0  0  0  0  0
    2.5730   -2.6156    0.3201 H   0  0  0  0  0  0  0  0  0  0  0  0
    5.3008   -1.2196    2.4934 H   0  0  0  0  0  0  0  0  0  0  0  0
    4.5676   -2.7891    2.7644 H   0  0  0  0  0  0  0  0  0  0  0  0
    2.6037   -2.3076    4.0804 H   0  0  0  0  0  0  0  0  0  0  0  0
    3.6578   -0.9426    4.4457 H   0  0  0  0  0  0  0  0  0  0  0  0
    1.1611   -0.6138    5.0688 H   0  0  0  0  0  0  0  0  0  0  0  0
    0.1988    1.2044    5.7643 H   0  0  0  0  0  0  0  0  0  0  0  0
   -1.8271    2.5009    6.2992 H   0  0  0  0  0  0  0  0  0  0  0  0
   -3.2795    3.3555    4.4616 H   0  0  0  0  0  0  0  0  0  0  0  0
   -2.6667    2.9358    2.0894 H   0  0  0  0  0  0  0  0  0  0  0  0
   -0.6616    1.6175    1.5418 H   0  0  0  0  0  0  0  0  0  0  0  0
    1.1854    0.2923    1.1270 H   0  0  0  0  0  0  0  0  0  0  0  0
    1.8766    1.7845    1.7398 H   0  0  0  0  0  0  0  0  0  0  0  0
    3.8969    0.7447    2.4796 H   0  0  0  0  0  0  0  0  0  0  0  0
    3.5732    0.1522    0.8557 H   0  0  0  0  0  0  0  0  0  0  0  0
    5.1846   -3.2962   -3.0366 H   0  0  0  0  0  0  0  0  0  0  0  0
  1 25  1  0
  1 26  1  0
  1 27  1  0
  1  2  1  0
  2  3  2  0
  2 23  1  0
  3  4  1  0
  3 28  1  0
  4  5  1  0
  4 18  2  0
  5  6  1  0
  5 29  1  0
  5 30  1  0
  6 17  1  0
  6  7  1  0
  7  8  1  0
  7 31  1  0
  7 32  1  0
  8  9  2  0
  8 33  1  0
  9 10  1  0
  9 16  1  0
 10 15  1  0
 10 11  2  0
 11 12  1  0
 11 34  1  0
 12 13  2  0
 12 35  1  0
 13 14  1  0
 13 36  1  0
 14 15  2  0
 14 37  1  0
 15 38  1  0
 16 17  1  0
 16 39  1  0
 16 40  1  0
 17 41  1  0
 17 42  1  0
 18 19  1  0
 18 22  1  0
 19 20  1  0
 19 24  1  0
 20 21  2  0
 21 22  1  0
 22 23  2  0
 23 43  1  0
M  END
>  <i_m_ct_stereo_status>  (162) 
1

>  <s_m_source_file>  (162) 
/var/tmp/pbs.5076255.sched01/tmprtix0sri/443g93ja_l.sdf

>  <i_m_source_file_index>  (162) 
29

>  <i_lp_mmshare_version>  (162) 
48012

>  <i_f3d_flags>  (162) 
0

>  <s_epik_input>  (162) 
bjFuW25IXWMoYzEyKVtjSF1jKFtDSDNdKVtjSF1jMltDSDJdTjNbQ0gyXVtDSF09QyhbQ0gyXVtDSDJdMyljNFtjSF1bY0hdW2NIXVtjSF1bY0hdNA==

>  <s_epik_cmdline>  (162) 
J2VwaWtfcHl0aG9uJywgJy1waHQnLCAnMi4wJywgJy1waCcsICc3LjAnLCAnLXRuJywgJzgnLCAnLW1hJywgJzIwMCcsICctaW1hZScsICc8aW5maWxlLm1hZT4nLCAnLW9tYWUnLCAnPG91dGZpbGUubWFlPic=

>  <r_lp_tautomer_probability>  (162) 
0.460795

>  <r_epik_Ionization_Penalty>  (162) 
0.850076

>  <r_epik_Ionization_Penalty_Charging>  (162) 
0

>  <r_epik_Ionization_Penalty_Neutral>  (162) 
0.850076

>  <r_epik_State_Penalty>  (162) 
1.10934

>  <r_epik_Charging_Adjusted_Penalty>  (162) 
1.10934

>  <i_epik_Tot_Q>  (162) 
0

>  <i_epik_Tot_abs_Q>  (162) 
0

>  <s_lp_Force_Field>  (162) 
OPLS3e

>  <r_lp_Energy>  (162) 
32.5572

>  <b_lp_Chiralities_Consistent>  (162) 
1

>  <s_lp_Variant>  (162) 
53:0-4

>  <s_i_glide_gridfile>  (162) 
pfpi4k_grid

>  <i_i_glide_lignum>  (162) 
29

>  <i_i_glide_rotatable_bonds>  (162) 
3

>  <r_i_docking_score>  (162) 
-2.60641

>  <r_i_glide_ligand_efficiency>  (162) 
-0.113322

>  <r_i_glide_ligand_efficiency_sa>  (162) 
-0.322274

>  <r_i_glide_ligand_efficiency_ln>  (162) 
-0.630254

>  <r_i_glide_gscore>  (162) 
-2.60641

>  <r_i_glide_lipo>  (162) 
-0.310712

>  <r_i_glide_hbond>  (162) 
0

>  <r_i_glide_metal>  (162) 
-0

>  <r_i_glide_rewards>  (162) 
-1.33371

>  <r_i_glide_evdw>  (162) 
-28.6519

>  <r_i_glide_ecoul>  (162) 
-0.00720292

>  <r_i_glide_erotb>  (162) 
0.597117

>  <r_i_glide_esite>  (162) 
-0.125428

>  <r_i_glide_emodel>  (162) 
-31.689

>  <r_i_glide_energy>  (162) 
-28.6591

>  <r_i_glide_einternal>  (162) 
3.97255

>  <r_i_glide_intrahb_reward>  (162) 
-0

>  <i_i_glide_confnum>  (162) 
4

>  <i_i_glide_posenum>  (162) 
15

>  <r_i_glide_eff_state_penalty>  (162) 
0

>  <ligand_id>  (162) 
53

>  <original_smiles>  (162) 
Cc1cc(CN2CC=C(c3ccccc3)CC2)c2nn[nH]c2c1

>  <smiles>  (162) 
[H]C1=C(c2c([H])c([H])c([H])c([H])c2[H])C([H])([H])C([H])([H])N(C([H])([H])c2c([H])c(C([H])([H])[H])c([H])c3nnn([H])c23)C1([H])[H]

$$$$
53:3:2
     RDKit          3D

 43 46  0  0  1  0  0  0  0  0999 V2000
    2.7403   -2.9020   -3.2116 C   0  0  0  0  0  0  0  0  0  0  0  0
    3.7937   -2.8622   -2.1279 C   0  0  0  0  0  0  0  0  0  0  0  0
    3.3869   -2.8953   -0.7787 C   0  0  0  0  0  0  0  0  0  0  0  0
    4.3396   -2.8350    0.2598 C   0  0  0  0  0  0  0  0  0  0  0  0
    3.8815   -2.8607    1.7056 C   0  0  0  0  0  0  0  0  0  0  0  0
    2.7296   -1.9965    1.9415 N   0  0  0  0  0  0  0  0  0  0  0  0
    2.0251   -2.3732    3.1661 C   0  0  0  0  0  0  0  0  0  0  0  0
    0.9702   -1.3586    3.5699 C   0  0  0  0  0  0  0  0  0  0  0  0
    0.8698   -0.1248    3.0346 C   0  0  0  0  0  0  0  0  0  0  0  0
   -0.1741    0.8200    3.4701 C   0  0  0  0  0  0  0  0  0  0  0  0
   -0.6854    0.7999    4.7875 C   0  0  0  0  0  0  0  0  0  0  0  0
   -1.6986    1.7017    5.1665 C   0  0  0  0  0  0  0  0  0  0  0  0
   -2.2019    2.6252    4.2312 C   0  0  0  0  0  0  0  0  0  0  0  0
   -1.6958    2.6495    2.9187 C   0  0  0  0  0  0  0  0  0  0  0  0
   -0.6864    1.7463    2.5386 C   0  0  0  0  0  0  0  0  0  0  0  0
    1.8979    0.3140    2.0032 C   0  0  0  0  0  0  0  0  0  0  0  0
    3.1360   -0.5931    1.9742 C   0  0  0  0  0  0  0  0  0  0  0  0
    5.7030   -2.7628   -0.0866 C   0  0  0  0  0  0  0  0  0  0  0  0
    6.9062   -2.6941    0.5851 N   0  0  0  0  0  0  0  0  0  0  0  0
    7.9712   -2.6442   -0.2575 N   0  0  0  0  0  0  0  0  0  0  0  0
    7.5286   -2.6598   -1.4804 N   0  0  0  0  0  0  0  0  0  0  0  0
    6.1424   -2.7377   -1.4312 C   0  0  0  0  0  0  0  0  0  0  0  0
    5.1679   -2.7881   -2.4537 C   0  0  0  0  0  0  0  0  0  0  0  0
    7.0388   -2.6856    1.5858 H   0  0  0  0  0  0  0  0  0  0  0  0
    3.1621   -2.7759   -4.2092 H   0  0  0  0  0  0  0  0  0  0  0  0
    2.0117   -2.1117   -3.0391 H   0  0  0  0  0  0  0  0  0  0  0  0
    2.2124   -3.8547   -3.1781 H   0  0  0  0  0  0  0  0  0  0  0  0
    2.3303   -2.9443   -0.5520 H   0  0  0  0  0  0  0  0  0  0  0  0
    4.6938   -2.5703    2.3748 H   0  0  0  0  0  0  0  0  0  0  0  0
    3.6228   -3.8906    1.9500 H   0  0  0  0  0  0  0  0  0  0  0  0
    1.5285   -3.3310    3.0052 H   0  0  0  0  0  0  0  0  0  0  0  0
    2.7197   -2.4956    3.9983 H   0  0  0  0  0  0  0  0  0  0  0  0
    0.2640   -1.6953    4.3130 H   0  0  0  0  0  0  0  0  0  0  0  0
   -0.2958    0.1075    5.5156 H   0  0  0  0  0  0  0  0  0  0  0  0
   -2.0914    1.6810    6.1725 H   0  0  0  0  0  0  0  0  0  0  0  0
   -2.9869    3.3093    4.5155 H   0  0  0  0  0  0  0  0  0  0  0  0
   -2.0721    3.3564    2.1924 H   0  0  0  0  0  0  0  0  0  0  0  0
   -0.3096    1.7826    1.5273 H   0  0  0  0  0  0  0  0  0  0  0  0
    1.4261    0.3577    1.0205 H   0  0  0  0  0  0  0  0  0  0  0  0
    2.2288    1.3252    2.2441 H   0  0  0  0  0  0  0  0  0  0  0  0
    3.7608   -0.4143    2.8509 H   0  0  0  0  0  0  0  0  0  0  0  0
    3.7294   -0.3461    1.0942 H   0  0  0  0  0  0  0  0  0  0  0  0
    5.4899   -2.7640   -3.4844 H   0  0  0  0  0  0  0  0  0  0  0  0
  1 25  1  0
  1 26  1  0
  1 27  1  0
  1  2  1  0
  2  3  2  0
  2 23  1  0
  3  4  1  0
  3 28  1  0
  4  5  1  0
  4 18  2  0
  5  6  1  0
  5 29  1  0
  5 30  1  0
  6 17  1  0
  6  7  1  0
  7  8  1  0
  7 31  1  0
  7 32  1  0
  8  9  2  0
  8 33  1  0
  9 10  1  0
  9 16  1  0
 10 15  1  0
 10 11  2  0
 11 12  1  0
 11 34  1  0
 12 13  2  0
 12 35  1  0
 13 14  1  0
 13 36  1  0
 14 15  2  0
 14 37  1  0
 15 38  1  0
 16 17  1  0
 16 39  1  0
 16 40  1  0
 17 41  1  0
 17 42  1  0
 18 19  1  0
 18 22  1  0
 19 20  1  0
 19 24  1  0
 20 21  2  0
 21 22  1  0
 22 23  2  0
 23 43  1  0
M  END
>  <i_m_ct_stereo_status>  (163) 
1

>  <s_m_source_file>  (163) 
/var/tmp/pbs.5076255.sched01/tmprtix0sri/443g93ja_l.sdf

>  <i_m_source_file_index>  (163) 
29

>  <i_lp_mmshare_version>  (163) 
48012

>  <i_f3d_flags>  (163) 
0

>  <s_epik_input>  (163) 
bjFuW25IXWMoYzEyKVtjSF1jKFtDSDNdKVtjSF1jMltDSDJdTjNbQ0gyXVtDSF09QyhbQ0gyXVtDSDJdMyljNFtjSF1bY0hdW2NIXVtjSF1bY0hdNA==

>  <s_epik_cmdline>  (163) 
J2VwaWtfcHl0aG9uJywgJy1waHQnLCAnMi4wJywgJy1waCcsICc3LjAnLCAnLXRuJywgJzgnLCAnLW1hJywgJzIwMCcsICctaW1hZScsICc8aW5maWxlLm1hZT4nLCAnLW9tYWUnLCAnPG91dGZpbGUubWFlPic=

>  <r_lp_tautomer_probability>  (163) 
0.460795

>  <r_epik_Ionization_Penalty>  (163) 
0.850076

>  <r_epik_Ionization_Penalty_Charging>  (163) 
0

>  <r_epik_Ionization_Penalty_Neutral>  (163) 
0.850076

>  <r_epik_State_Penalty>  (163) 
1.10934

>  <r_epik_Charging_Adjusted_Penalty>  (163) 
1.10934

>  <i_epik_Tot_Q>  (163) 
0

>  <i_epik_Tot_abs_Q>  (163) 
0

>  <s_lp_Force_Field>  (163) 
OPLS3e

>  <r_lp_Energy>  (163) 
32.5572

>  <b_lp_Chiralities_Consistent>  (163) 
1

>  <s_lp_Variant>  (163) 
53:0-4

>  <s_i_glide_gridfile>  (163) 
pfpi4k_grid

>  <i_i_glide_lignum>  (163) 
29

>  <i_i_glide_rotatable_bonds>  (163) 
3

>  <r_i_docking_score>  (163) 
-2.49702

>  <r_i_glide_ligand_efficiency>  (163) 
-0.108566

>  <r_i_glide_ligand_efficiency_sa>  (163) 
-0.308748

>  <r_i_glide_ligand_efficiency_ln>  (163) 
-0.603803

>  <r_i_glide_gscore>  (163) 
-2.49702

>  <r_i_glide_lipo>  (163) 
-0.304163

>  <r_i_glide_hbond>  (163) 
0

>  <r_i_glide_metal>  (163) 
-0

>  <r_i_glide_rewards>  (163) 
-1.33371

>  <r_i_glide_evdw>  (163) 
-31.0318

>  <r_i_glide_ecoul>  (163) 
1.13227

>  <r_i_glide_erotb>  (163) 
0.597117

>  <r_i_glide_esite>  (163) 
-0.0745193

>  <r_i_glide_emodel>  (163) 
-33.3784

>  <r_i_glide_energy>  (163) 
-29.8995

>  <r_i_glide_einternal>  (163) 
2.762

>  <r_i_glide_intrahb_reward>  (163) 
-0

>  <i_i_glide_confnum>  (163) 
4

>  <i_i_glide_posenum>  (163) 
23

>  <r_i_glide_eff_state_penalty>  (163) 
0

>  <ligand_id>  (163) 
53

>  <original_smiles>  (163) 
Cc1cc(CN2CC=C(c3ccccc3)CC2)c2nn[nH]c2c1

>  <smiles>  (163) 
[H]C1=C(c2c([H])c([H])c([H])c([H])c2[H])C([H])([H])C([H])([H])N(C([H])([H])c2c([H])c(C([H])([H])[H])c([H])c3nnn([H])c23)C1([H])[H]

$$$$
53:4:0
     RDKit          3D

 44 47  0  0  1  0  0  0  0  0999 V2000
  -13.0037  -12.1149   -9.0708 C   0  0  0  0  0  0  0  0  0  0  0  0
  -11.4937  -12.1266   -9.0812 C   0  0  0  0  0  0  0  0  0  0  0  0
  -10.8091  -11.0956   -9.7604 C   0  0  0  0  0  0  0  0  0  0  0  0
   -9.3992  -11.0824   -9.8361 C   0  0  0  0  0  0  0  0  0  0  0  0
   -8.6903   -9.9300  -10.5327 C   0  0  0  0  0  0  0  0  0  0  0  0
   -8.2315   -8.8600   -9.6054 N   0  0  1  0  0  0  0  0  0  0  0  0
   -9.3320   -7.9455   -9.2013 C   0  0  0  0  0  0  0  0  0  0  0  0
   -8.9127   -6.9802   -8.1121 C   0  0  0  0  0  0  0  0  0  0  0  0
   -7.7892   -7.1106   -7.3753 C   0  0  0  0  0  0  0  0  0  0  0  0
   -7.4423   -6.1659   -6.3001 C   0  0  0  0  0  0  0  0  0  0  0  0
   -8.3265   -5.1471   -5.8885 C   0  0  0  0  0  0  0  0  0  0  0  0
   -7.9433   -4.2384   -4.8959 C   0  0  0  0  0  0  0  0  0  0  0  0
   -6.6686   -4.3201   -4.3141 C   0  0  0  0  0  0  0  0  0  0  0  0
   -5.7797   -5.3249   -4.7226 C   0  0  0  0  0  0  0  0  0  0  0  0
   -6.1768   -6.2545   -5.6820 C   0  0  0  0  0  0  0  0  0  0  0  0
   -6.8350   -8.2658   -7.6452 C   0  0  0  0  0  0  0  0  0  0  0  0
   -7.4737   -9.3773   -8.4438 C   0  0  0  0  0  0  0  0  0  0  0  0
   -8.7022  -12.1409   -9.2124 C   0  0  0  0  0  0  0  0  0  0  0  0
   -7.3838  -12.3351   -9.1434 N   0  0  0  0  0  0  0  0  0  0  0  0
   -7.3320  -13.4393   -8.3368 N   0  0  0  0  0  0  0  0  0  0  0  0
   -8.5283  -13.9517   -7.9225 N   0  0  0  0  0  0  0  0  0  0  0  0
   -9.3777  -13.1191   -8.5061 C   0  0  0  0  0  0  0  0  0  0  0  0
  -10.7804  -13.1552   -8.4266 C   0  0  0  0  0  0  0  0  0  0  0  0
   -6.4684  -13.8418   -8.0181 H   0  0  0  0  0  0  0  0  0  0  0  0
  -13.4052  -13.0305   -8.6347 H   0  0  0  0  0  0  0  0  0  0  0  0
  -13.3809  -12.0387  -10.0952 H   0  0  0  0  0  0  0  0  0  0  0  0
  -13.3798  -11.2593   -8.5022 H   0  0  0  0  0  0  0  0  0  0  0  0
  -11.3742  -10.2972  -10.2247 H   0  0  0  0  0  0  0  0  0  0  0  0
   -9.3644   -9.4830  -11.2667 H   0  0  0  0  0  0  0  0  0  0  0  0
   -7.8423  -10.3078  -11.1064 H   0  0  0  0  0  0  0  0  0  0  0  0
   -9.6648   -7.3599  -10.0577 H   0  0  0  0  0  0  0  0  0  0  0  0
  -10.1935   -8.4967   -8.8239 H   0  0  0  0  0  0  0  0  0  0  0  0
   -9.6221   -6.1761   -7.9412 H   0  0  0  0  0  0  0  0  0  0  0  0
   -9.3060   -5.0319   -6.3169 H   0  0  0  0  0  0  0  0  0  0  0  0
   -8.6352   -3.4614   -4.6095 H   0  0  0  0  0  0  0  0  0  0  0  0
   -6.3703   -3.6192   -3.5574 H   0  0  0  0  0  0  0  0  0  0  0  0
   -4.7838   -5.3944   -4.3149 H   0  0  0  0  0  0  0  0  0  0  0  0
   -5.4475   -6.9974   -5.9524 H   0  0  0  0  0  0  0  0  0  0  0  0
   -5.9286   -7.8949   -8.1304 H   0  0  0  0  0  0  0  0  0  0  0  0
   -6.5268   -8.7263   -6.7027 H   0  0  0  0  0  0  0  0  0  0  0  0
   -8.1357   -9.9243   -7.7653 H   0  0  0  0  0  0  0  0  0  0  0  0
   -6.6694  -10.0359   -8.7688 H   0  0  0  0  0  0  0  0  0  0  0  0
  -11.2862  -13.9396   -7.8947 H   0  0  0  0  0  0  0  0  0  0  0  0
   -7.5806   -8.2760  -10.1187 H   0  0  0  0  0  0  0  0  0  0  0  0
  1 25  1  0
  1 26  1  0
  1 27  1  0
  1  2  1  0
  2  3  1  0
  2 23  2  0
  3  4  2  0
  3 28  1  0
  4  5  1  0
  4 18  1  0
  5  6  1  0
  5 29  1  0
  5 30  1  0
  6 17  1  0
  6  7  1  0
  6 44  1  6
  7  8  1  0
  7 31  1  0
  7 32  1  0
  8  9  2  0
  8 33  1  0
  9 10  1  0
  9 16  1  0
 10 15  1  0
 10 11  2  0
 11 12  1  0
 11 34  1  0
 12 13  2  0
 12 35  1  0
 13 14  1  0
 13 36  1  0
 14 15  2  0
 14 37  1  0
 15 38  1  0
 16 17  1  0
 16 39  1  0
 16 40  1  0
 17 41  1  0
 17 42  1  0
 18 19  2  0
 18 22  1  0
 19 20  1  0
 20 21  1  0
 20 24  1  0
 21 22  2  0
 22 23  1  0
 23 43  1  0
M  CHG  1   6   1
M  END
>  <i_m_ct_stereo_status>  (164) 
1

>  <s_m_source_file>  (164) 
/var/tmp/pbs.5076255.sched01/tmprtix0sri/443g93ja_l.sdf

>  <i_m_source_file_index>  (164) 
30

>  <i_lp_mmshare_version>  (164) 
48012

>  <i_f3d_flags>  (164) 
0

>  <s_epik_input>  (164) 
bjFuW25IXWMoYzEyKVtjSF1jKFtDSDNdKVtjSF1jMltDSDJdTjNbQ0gyXVtDSF09QyhbQ0gyXVtDSDJdMyljNFtjSF1bY0hdW2NIXVtjSF1bY0hdNA==

>  <s_epik_cmdline>  (164) 
J2VwaWtfcHl0aG9uJywgJy1waHQnLCAnMi4wJywgJy1waCcsICc3LjAnLCAnLXRuJywgJzgnLCAnLW1hJywgJzIwMCcsICctaW1hZScsICc8aW5maWxlLm1hZT4nLCAnLW9tYWUnLCAnPG91dGZpbGUubWFlPic=

>  <r_lp_tautomer_probability>  (164) 
0.0784092

>  <r_epik_Ionization_Penalty>  (164) 
0.349112

>  <r_epik_Ionization_Penalty_Charging>  (164) 
0.272878

>  <r_epik_Ionization_Penalty_Neutral>  (164) 
0.0762344

>  <r_epik_State_Penalty>  (164) 
1.86414

>  <r_epik_Charging_Adjusted_Penalty>  (164) 
2.13702

>  <i_epik_Tot_Q>  (164) 
1

>  <i_epik_Tot_abs_Q>  (164) 
1

>  <s_lp_Force_Field>  (164) 
OPLS3e

>  <r_lp_Energy>  (164) 
36.3987

>  <b_lp_Chiralities_Consistent>  (164) 
1

>  <s_lp_Variant>  (164) 
53:0-5

>  <s_i_glide_gridfile>  (164) 
pfpi4k_grid

>  <i_i_glide_lignum>  (164) 
30

>  <i_i_glide_rotatable_bonds>  (164) 
3

>  <r_i_docking_score>  (164) 
-5.26576

>  <r_i_glide_ligand_efficiency>  (164) 
-0.228946

>  <r_i_glide_ligand_efficiency_sa>  (164) 
-0.651093

>  <r_i_glide_ligand_efficiency_ln>  (164) 
-1.27331

>  <r_i_glide_gscore>  (164) 
-5.26576

>  <r_i_glide_lipo>  (164) 
-2.74679

>  <r_i_glide_hbond>  (164) 
0

>  <r_i_glide_metal>  (164) 
-0

>  <r_i_glide_rewards>  (164) 
-1.7973

>  <r_i_glide_evdw>  (164) 
-27.131

>  <r_i_glide_ecoul>  (164) 
0.274692

>  <r_i_glide_erotb>  (164) 
0.593666

>  <r_i_glide_esite>  (164) 
0

>  <r_i_glide_emodel>  (164) 
-32.0773

>  <r_i_glide_energy>  (164) 
-26.8563

>  <r_i_glide_einternal>  (164) 
5.33176

>  <r_i_glide_intrahb_reward>  (164) 
-0

>  <i_i_glide_confnum>  (164) 
4

>  <i_i_glide_posenum>  (164) 
12

>  <r_i_glide_eff_state_penalty>  (164) 
0

>  <ligand_id>  (164) 
53

>  <original_smiles>  (164) 
Cc1cc(CN2CC=C(c3ccccc3)CC2)c2nn[nH]c2c1

>  <smiles>  (164) 
[H]C1=C(c2c([H])c([H])c([H])c([H])c2[H])C([H])([H])C([H])([H])[N+]([H])(C([H])([H])c2c([H])c(C([H])([H])[H])c([H])c3nn([H])nc23)C1([H])[H]

$$$$
53:4:1
     RDKit          3D

 44 47  0  0  1  0  0  0  0  0999 V2000
    3.6137   -0.0968    1.6213 C   0  0  0  0  0  0  0  0  0  0  0  0
    2.4428    0.1886    2.5349 C   0  0  0  0  0  0  0  0  0  0  0  0
    2.1660    1.5271    2.8900 C   0  0  0  0  0  0  0  0  0  0  0  0
    1.1036    1.8314    3.7667 C   0  0  0  0  0  0  0  0  0  0  0  0
    0.8581    3.2827    4.1349 C   0  0  0  0  0  0  0  0  0  0  0  0
   -0.1815    3.9313    3.2945 N   0  0  1  0  0  0  0  0  0  0  0  0
   -1.5118    3.2966    3.4956 C   0  0  0  0  0  0  0  0  0  0  0  0
   -2.6402    4.0681    2.8837 C   0  0  0  0  0  0  0  0  0  0  0  0
   -2.5451    5.3410    2.4434 C   0  0  0  0  0  0  0  0  0  0  0  0
   -3.6828    6.0528    1.7859 C   0  0  0  0  0  0  0  0  0  0  0  0
   -4.9794    5.4814    1.7320 C   0  0  0  0  0  0  0  0  0  0  0  0
   -6.0346    6.1733    1.1197 C   0  0  0  0  0  0  0  0  0  0  0  0
   -5.8085    7.4390    0.5451 C   0  0  0  0  0  0  0  0  0  0  0  0
   -4.5236    8.0141    0.5813 C   0  0  0  0  0  0  0  0  0  0  0  0
   -3.4645    7.3234    1.1921 C   0  0  0  0  0  0  0  0  0  0  0  0
   -1.1995    6.0448    2.5496 C   0  0  0  0  0  0  0  0  0  0  0  0
   -0.2326    5.3854    3.5386 C   0  0  0  0  0  0  0  0  0  0  0  0
    0.3345    0.7641    4.2733 C   0  0  0  0  0  0  0  0  0  0  0  0
   -0.7063    0.8132    5.1105 N   0  0  0  0  0  0  0  0  0  0  0  0
   -1.0558   -0.5068    5.1554 N   0  0  0  0  0  0  0  0  0  0  0  0
   -0.2735   -1.3848    4.4684 N   0  0  0  0  0  0  0  0  0  0  0  0
    0.5914   -0.5420    3.9040 C   0  0  0  0  0  0  0  0  0  0  0  0
    1.6406   -0.8643    3.0380 C   0  0  0  0  0  0  0  0  0  0  0  0
   -1.8648   -0.8284    5.6851 H   0  0  0  0  0  0  0  0  0  0  0  0
    3.7807   -1.1657    1.5098 H   0  0  0  0  0  0  0  0  0  0  0  0
    4.5169    0.3565    2.0285 H   0  0  0  0  0  0  0  0  0  0  0  0
    3.4246    0.3274    0.6379 H   0  0  0  0  0  0  0  0  0  0  0  0
    2.7873    2.3273    2.4980 H   0  0  0  0  0  0  0  0  0  0  0  0
    1.7954    3.8285    4.0199 H   0  0  0  0  0  0  0  0  0  0  0  0
    0.6006    3.3586    5.1909 H   0  0  0  0  0  0  0  0  0  0  0  0
   -1.5495    2.3116    3.0350 H   0  0  0  0  0  0  0  0  0  0  0  0
   -1.7440    3.2164    4.5582 H   0  0  0  0  0  0  0  0  0  0  0  0
   -3.5390    3.4720    2.8225 H   0  0  0  0  0  0  0  0  0  0  0  0
   -5.2130    4.5220    2.1693 H   0  0  0  0  0  0  0  0  0  0  0  0
   -7.0151    5.7152    1.1036 H   0  0  0  0  0  0  0  0  0  0  0  0
   -6.6231    7.9640    0.0705 H   0  0  0  0  0  0  0  0  0  0  0  0
   -4.3334    8.9861    0.1422 H   0  0  0  0  0  0  0  0  0  0  0  0
   -2.4917    7.7991    1.1818 H   0  0  0  0  0  0  0  0  0  0  0  0
   -0.7361    6.1458    1.5715 H   0  0  0  0  0  0  0  0  0  0  0  0
   -1.3890    7.0490    2.8797 H   0  0  0  0  0  0  0  0  0  0  0  0
   -0.5683    5.5684    4.5606 H   0  0  0  0  0  0  0  0  0  0  0  0
    0.7536    5.8476    3.4443 H   0  0  0  0  0  0  0  0  0  0  0  0
    1.8261   -1.8982    2.7747 H   0  0  0  0  0  0  0  0  0  0  0  0
    0.0462    3.8626    2.2971 H   0  0  0  0  0  0  0  0  0  0  0  0
  1 25  1  0
  1 26  1  0
  1 27  1  0
  1  2  1  0
  2  3  1  0
  2 23  2  0
  3  4  2  0
  3 28  1  0
  4  5  1  0
  4 18  1  0
  5  6  1  0
  5 29  1  0
  5 30  1  0
  6 17  1  0
  6  7  1  0
  6 44  1  6
  7  8  1  0
  7 31  1  0
  7 32  1  0
  8  9  2  0
  8 33  1  0
  9 10  1  0
  9 16  1  0
 10 15  1  0
 10 11  2  0
 11 12  1  0
 11 34  1  0
 12 13  2  0
 12 35  1  0
 13 14  1  0
 13 36  1  0
 14 15  2  0
 14 37  1  0
 15 38  1  0
 16 17  1  0
 16 39  1  0
 16 40  1  0
 17 41  1  0
 17 42  1  0
 18 19  2  0
 18 22  1  0
 19 20  1  0
 20 21  1  0
 20 24  1  0
 21 22  2  0
 22 23  1  0
 23 43  1  0
M  CHG  1   6   1
M  END
>  <i_m_ct_stereo_status>  (165) 
1

>  <s_m_source_file>  (165) 
/var/tmp/pbs.5076255.sched01/tmprtix0sri/443g93ja_l.sdf

>  <i_m_source_file_index>  (165) 
30

>  <i_lp_mmshare_version>  (165) 
48012

>  <i_f3d_flags>  (165) 
0

>  <s_epik_input>  (165) 
bjFuW25IXWMoYzEyKVtjSF1jKFtDSDNdKVtjSF1jMltDSDJdTjNbQ0gyXVtDSF09QyhbQ0gyXVtDSDJdMyljNFtjSF1bY0hdW2NIXVtjSF1bY0hdNA==

>  <s_epik_cmdline>  (165) 
J2VwaWtfcHl0aG9uJywgJy1waHQnLCAnMi4wJywgJy1waCcsICc3LjAnLCAnLXRuJywgJzgnLCAnLW1hJywgJzIwMCcsICctaW1hZScsICc8aW5maWxlLm1hZT4nLCAnLW9tYWUnLCAnPG91dGZpbGUubWFlPic=

>  <r_lp_tautomer_probability>  (165) 
0.0784092

>  <r_epik_Ionization_Penalty>  (165) 
0.349112

>  <r_epik_Ionization_Penalty_Charging>  (165) 
0.272878

>  <r_epik_Ionization_Penalty_Neutral>  (165) 
0.0762344

>  <r_epik_State_Penalty>  (165) 
1.86414

>  <r_epik_Charging_Adjusted_Penalty>  (165) 
2.13702

>  <i_epik_Tot_Q>  (165) 
1

>  <i_epik_Tot_abs_Q>  (165) 
1

>  <s_lp_Force_Field>  (165) 
OPLS3e

>  <r_lp_Energy>  (165) 
36.3987

>  <b_lp_Chiralities_Consistent>  (165) 
1

>  <s_lp_Variant>  (165) 
53:0-5

>  <s_i_glide_gridfile>  (165) 
pfpi4k_grid

>  <i_i_glide_lignum>  (165) 
30

>  <i_i_glide_rotatable_bonds>  (165) 
3

>  <r_i_docking_score>  (165) 
-3.48514

>  <r_i_glide_ligand_efficiency>  (165) 
-0.151528

>  <r_i_glide_ligand_efficiency_sa>  (165) 
-0.430925

>  <r_i_glide_ligand_efficiency_ln>  (165) 
-0.842739

>  <r_i_glide_gscore>  (165) 
-3.48514

>  <r_i_glide_lipo>  (165) 
-0.840044

>  <r_i_glide_hbond>  (165) 
-0.2

>  <r_i_glide_metal>  (165) 
-0

>  <r_i_glide_rewards>  (165) 
-1.32684

>  <r_i_glide_evdw>  (165) 
-18.1439

>  <r_i_glide_ecoul>  (165) 
-4.45599

>  <r_i_glide_erotb>  (165) 
0.593666

>  <r_i_glide_esite>  (165) 
-0.136333

>  <r_i_glide_emodel>  (165) 
-27.1742

>  <r_i_glide_energy>  (165) 
-22.5999

>  <r_i_glide_einternal>  (165) 
1.31241

>  <r_i_glide_intrahb_reward>  (165) 
-0

>  <i_i_glide_confnum>  (165) 
1

>  <i_i_glide_posenum>  (165) 
7

>  <r_i_glide_eff_state_penalty>  (165) 
0

>  <ligand_id>  (165) 
53

>  <original_smiles>  (165) 
Cc1cc(CN2CC=C(c3ccccc3)CC2)c2nn[nH]c2c1

>  <smiles>  (165) 
[H]C1=C(c2c([H])c([H])c([H])c([H])c2[H])C([H])([H])C([H])([H])[N+]([H])(C([H])([H])c2c([H])c(C([H])([H])[H])c([H])c3nn([H])nc23)C1([H])[H]

$$$$
53:4:2
     RDKit          3D

 44 47  0  0  1  0  0  0  0  0999 V2000
   -1.1985   -1.6075    5.4462 C   0  0  0  0  0  0  0  0  0  0  0  0
   -0.2350   -0.8041    4.6078 C   0  0  0  0  0  0  0  0  0  0  0  0
   -0.2067    0.6056    4.7517 C   0  0  0  0  0  0  0  0  0  0  0  0
    0.6466    1.4013    3.9424 C   0  0  0  0  0  0  0  0  0  0  0  0
    0.6500    2.9078    4.0627 C   0  0  0  0  0  0  0  0  0  0  0  0
   -0.4324    3.5626    3.2857 N   0  0  1  0  0  0  0  0  0  0  0  0
   -1.7845    2.9730    3.5297 C   0  0  0  0  0  0  0  0  0  0  0  0
   -2.9022    3.7623    2.9127 C   0  0  0  0  0  0  0  0  0  0  0  0
   -2.7785    5.0378    2.4860 C   0  0  0  0  0  0  0  0  0  0  0  0
   -3.9225    5.7760    1.8624 C   0  0  0  0  0  0  0  0  0  0  0  0
   -5.2592    5.3078    1.9693 C   0  0  0  0  0  0  0  0  0  0  0  0
   -6.3097    6.0270    1.3713 C   0  0  0  0  0  0  0  0  0  0  0  0
   -6.0446    7.2062    0.6452 C   0  0  0  0  0  0  0  0  0  0  0  0
   -4.7188    7.6791    0.5275 C   0  0  0  0  0  0  0  0  0  0  0  0
   -3.6623    6.9668    1.1307 C   0  0  0  0  0  0  0  0  0  0  0  0
   -1.4015    5.7305    2.5916 C   0  0  0  0  0  0  0  0  0  0  0  0
   -0.4362    5.0218    3.5327 C   0  0  0  0  0  0  0  0  0  0  0  0
    1.4759    0.7429    3.0235 C   0  0  0  0  0  0  0  0  0  0  0  0
    2.3420    1.2970    2.1813 N   0  0  0  0  0  0  0  0  0  0  0  0
    2.8614    0.1694    1.5911 N   0  0  0  0  0  0  0  0  0  0  0  0
    2.3682   -1.0363    2.0249 N   0  0  0  0  0  0  0  0  0  0  0  0
    1.4771   -0.6254    2.9185 C   0  0  0  0  0  0  0  0  0  0  0  0
    0.6327   -1.4413    3.6856 C   0  0  0  0  0  0  0  0  0  0  0  0
    3.5739    0.2208    0.8827 H   0  0  0  0  0  0  0  0  0  0  0  0
   -1.1633   -2.6638    5.1870 H   0  0  0  0  0  0  0  0  0  0  0  0
   -2.2211   -1.2420    5.3103 H   0  0  0  0  0  0  0  0  0  0  0  0
   -0.9169   -1.5120    6.4944 H   0  0  0  0  0  0  0  0  0  0  0  0
   -0.8800    1.0699    5.4573 H   0  0  0  0  0  0  0  0  0  0  0  0
    1.6330    3.3385    3.8125 H   0  0  0  0  0  0  0  0  0  0  0  0
    0.5134    3.1171    5.1228 H   0  0  0  0  0  0  0  0  0  0  0  0
   -1.8822    1.9699    3.1020 H   0  0  0  0  0  0  0  0  0  0  0  0
   -2.0015    2.9231    4.6022 H   0  0  0  0  0  0  0  0  0  0  0  0
   -3.8181    3.1842    2.8844 H   0  0  0  0  0  0  0  0  0  0  0  0
   -5.5243    4.4019    2.5035 H   0  0  0  0  0  0  0  0  0  0  0  0
   -7.3142    5.6339    1.4606 H   0  0  0  0  0  0  0  0  0  0  0  0
   -6.8593    7.7324    0.1726 H   0  0  0  0  0  0  0  0  0  0  0  0
   -4.4986    8.5823   -0.0293 H   0  0  0  0  0  0  0  0  0  0  0  0
   -2.6563    7.3538    1.0021 H   0  0  0  0  0  0  0  0  0  0  0  0
   -0.9858    5.8528    1.6190 H   0  0  0  0  0  0  0  0  0  0  0  0
   -1.3851    6.7800    2.8721 H   0  0  0  0  0  0  0  0  0  0  0  0
   -0.7373    5.2295    4.5570 H   0  0  0  0  0  0  0  0  0  0  0  0
    0.5572    5.4526    3.3883 H   0  0  0  0  0  0  0  0  0  0  0  0
    0.6591   -2.5069    3.5506 H   0  0  0  0  0  0  0  0  0  0  0  0
   -0.2145    3.4977    2.2881 H   0  0  0  0  0  0  0  0  0  0  0  0
  1 25  1  0
  1 26  1  0
  1 27  1  0
  1  2  1  0
  2  3  1  0
  2 23  2  0
  3  4  2  0
  3 28  1  0
  4  5  1  0
  4 18  1  0
  5  6  1  0
  5 29  1  0
  5 30  1  0
  6 17  1  0
  6  7  1  0
  6 44  1  6
  7  8  1  0
  7 31  1  0
  7 32  1  0
  8  9  2  0
  8 33  1  0
  9 10  1  0
  9 16  1  0
 10 15  1  0
 10 11  2  0
 11 12  1  0
 11 34  1  0
 12 13  2  0
 12 35  1  0
 13 14  1  0
 13 36  1  0
 14 15  2  0
 14 37  1  0
 15 38  1  0
 16 17  1  0
 16 39  1  0
 16 40  1  0
 17 41  1  0
 17 42  1  0
 18 19  2  0
 18 22  1  0
 19 20  1  0
 20 21  1  0
 20 24  1  0
 21 22  2  0
 22 23  1  0
 23 43  1  0
M  CHG  1   6   1
M  END
>  <i_m_ct_stereo_status>  (166) 
1

>  <s_m_source_file>  (166) 
/var/tmp/pbs.5076255.sched01/tmprtix0sri/443g93ja_l.sdf

>  <i_m_source_file_index>  (166) 
30

>  <i_lp_mmshare_version>  (166) 
48012

>  <i_f3d_flags>  (166) 
0

>  <s_epik_input>  (166) 
bjFuW25IXWMoYzEyKVtjSF1jKFtDSDNdKVtjSF1jMltDSDJdTjNbQ0gyXVtDSF09QyhbQ0gyXVtDSDJdMyljNFtjSF1bY0hdW2NIXVtjSF1bY0hdNA==

>  <s_epik_cmdline>  (166) 
J2VwaWtfcHl0aG9uJywgJy1waHQnLCAnMi4wJywgJy1waCcsICc3LjAnLCAnLXRuJywgJzgnLCAnLW1hJywgJzIwMCcsICctaW1hZScsICc8aW5maWxlLm1hZT4nLCAnLW9tYWUnLCAnPG91dGZpbGUubWFlPic=

>  <r_lp_tautomer_probability>  (166) 
0.0784092

>  <r_epik_Ionization_Penalty>  (166) 
0.349112

>  <r_epik_Ionization_Penalty_Charging>  (166) 
0.272878

>  <r_epik_Ionization_Penalty_Neutral>  (166) 
0.0762344

>  <r_epik_State_Penalty>  (166) 
1.86414

>  <r_epik_Charging_Adjusted_Penalty>  (166) 
2.13702

>  <i_epik_Tot_Q>  (166) 
1

>  <i_epik_Tot_abs_Q>  (166) 
1

>  <s_lp_Force_Field>  (166) 
OPLS3e

>  <r_lp_Energy>  (166) 
36.3987

>  <b_lp_Chiralities_Consistent>  (166) 
1

>  <s_lp_Variant>  (166) 
53:0-5

>  <s_i_glide_gridfile>  (166) 
pfpi4k_grid

>  <i_i_glide_lignum>  (166) 
30

>  <i_i_glide_rotatable_bonds>  (166) 
3

>  <r_i_docking_score>  (166) 
-3.36958

>  <r_i_glide_ligand_efficiency>  (166) 
-0.146503

>  <r_i_glide_ligand_efficiency_sa>  (166) 
-0.416636

>  <r_i_glide_ligand_efficiency_ln>  (166) 
-0.814794

>  <r_i_glide_gscore>  (166) 
-3.36958

>  <r_i_glide_lipo>  (166) 
-0.655727

>  <r_i_glide_hbond>  (166) 
-0.19288

>  <r_i_glide_metal>  (166) 
-0

>  <r_i_glide_rewards>  (166) 
-1.32684

>  <r_i_glide_evdw>  (166) 
-21.1496

>  <r_i_glide_ecoul>  (166) 
-4.16689

>  <r_i_glide_erotb>  (166) 
0.593666

>  <r_i_glide_esite>  (166) 
-0.105281

>  <r_i_glide_emodel>  (166) 
-29.9802

>  <r_i_glide_energy>  (166) 
-25.3165

>  <r_i_glide_einternal>  (166) 
0.991095

>  <r_i_glide_intrahb_reward>  (166) 
-0

>  <i_i_glide_confnum>  (166) 
1

>  <i_i_glide_posenum>  (166) 
1

>  <r_i_glide_eff_state_penalty>  (166) 
0

>  <ligand_id>  (166) 
53

>  <original_smiles>  (166) 
Cc1cc(CN2CC=C(c3ccccc3)CC2)c2nn[nH]c2c1

>  <smiles>  (166) 
[H]C1=C(c2c([H])c([H])c([H])c([H])c2[H])C([H])([H])C([H])([H])[N+]([H])(C([H])([H])c2c([H])c(C([H])([H])[H])c([H])c3nn([H])nc23)C1([H])[H]

$$$$
54:0:0
     RDKit          3D

 50 56  0  0  1  0  0  0  0  0999 V2000
   -1.9149   -7.8380    4.1142 C   0  0  0  0  0  0  0  0  0  0  0  0
   -0.7528   -8.6530    4.5113 N   0  0  1  0  0  0  0  0  0  0  0  0
   -0.5108   -9.7708    3.5776 C   0  0  0  0  0  0  0  0  0  0  0  0
    0.2710   -9.3159    2.3492 C   0  0  0  0  0  0  0  0  0  0  0  0
    1.5519   -8.5542    2.7377 C   0  0  1  0  0  0  0  0  0  0  0  0
    2.4714   -9.4091    3.5593 C   0  0  0  0  0  0  0  0  0  0  0  0
    2.3912   -9.6073    4.9473 C   0  0  0  0  0  0  0  0  0  0  0  0
    3.3091  -10.5267    5.4944 C   0  0  0  0  0  0  0  0  0  0  0  0
    4.2387  -11.1703    4.6478 C   0  0  0  0  0  0  0  0  0  0  0  0
    4.3138  -10.8615    3.2633 C   0  0  0  0  0  0  0  0  0  0  0  0
    5.2406  -11.4772    2.4818 O   0  0  0  0  0  0  0  0  0  0  0  0
    3.4205   -9.9234    2.7022 C   0  0  0  0  0  0  0  0  0  0  0  0
    3.3712   -9.4078    1.4377 O   0  0  0  0  0  0  0  0  0  0  0  0
    2.4117   -8.3353    1.4698 C   0  0  2  0  0  0  0  0  0  0  0  0
    3.1532   -7.0362    1.5169 C   0  0  0  0  0  0  0  0  0  0  0  0
    3.9944   -6.5668    0.5215 N   0  0  0  0  0  0  0  0  0  0  0  0
    4.5044   -5.3279    0.8632 C   0  0  0  0  0  0  0  0  0  0  0  0
    5.3733   -4.4431    0.1977 C   0  0  0  0  0  0  0  0  0  0  0  0
    5.7352   -3.2240    0.8028 C   0  0  0  0  0  0  0  0  0  0  0  0
    5.2124   -2.9002    2.0701 C   0  0  0  0  0  0  0  0  0  0  0  0
    4.3337   -3.7902    2.7278 C   0  0  0  0  0  0  0  0  0  0  0  0
    3.9575   -5.0239    2.1444 C   0  0  0  0  0  0  0  0  0  0  0  0
    3.1077   -6.1181    2.5316 C   0  0  0  0  0  0  0  0  0  0  0  0
    2.2974   -6.3064    3.7780 C   0  0  0  0  0  0  0  0  0  0  0  0
    1.1333   -7.3071    3.5488 C   0  0  2  0  0  0  0  0  0  0  0  0
    0.4566   -7.8452    4.8440 C   0  0  2  0  0  0  0  0  0  0  0  0
    1.4305   -8.6901    5.6991 C   0  0  0  0  0  0  0  0  0  0  0  0
    4.1800   -7.0595   -0.3422 H   0  0  0  0  0  0  0  0  0  0  0  0
   -1.7813   -7.3637    3.1389 H   0  0  0  0  0  0  0  0  0  0  0  0
   -2.1415   -7.0611    4.8509 H   0  0  0  0  0  0  0  0  0  0  0  0
   -2.7770   -8.4979    4.0279 H   0  0  0  0  0  0  0  0  0  0  0  0
    0.0180  -10.5739    4.0869 H   0  0  0  0  0  0  0  0  0  0  0  0
   -1.4522  -10.2136    3.2613 H   0  0  0  0  0  0  0  0  0  0  0  0
    0.5106  -10.1947    1.7473 H   0  0  0  0  0  0  0  0  0  0  0  0
   -0.3713   -8.6905    1.7255 H   0  0  0  0  0  0  0  0  0  0  0  0
    3.2905  -10.7240    6.5580 H   0  0  0  0  0  0  0  0  0  0  0  0
    4.9118  -11.8917    5.0726 H   0  0  0  0  0  0  0  0  0  0  0  0
    4.9045  -11.6303    1.5873 H   0  0  0  0  0  0  0  0  0  0  0  0
    1.7634   -8.3953    0.6025 H   0  0  0  0  0  0  0  0  0  0  0  0
    5.7620   -4.7028   -0.7745 H   0  0  0  0  0  0  0  0  0  0  0  0
    6.4079   -2.5452    0.3013 H   0  0  0  0  0  0  0  0  0  0  0  0
    5.4865   -1.9682    2.5429 H   0  0  0  0  0  0  0  0  0  0  0  0
    3.9415   -3.5279    3.6976 H   0  0  0  0  0  0  0  0  0  0  0  0
    2.9548   -6.6677    4.5674 H   0  0  0  0  0  0  0  0  0  0  0  0
    1.9072   -5.3521    4.1310 H   0  0  0  0  0  0  0  0  0  0  0  0
    0.4015   -6.7527    2.9615 H   0  0  0  0  0  0  0  0  0  0  0  0
    0.1267   -7.0042    5.4552 H   0  0  0  0  0  0  0  0  0  0  0  0
    0.8849   -9.2820    6.4343 H   0  0  0  0  0  0  0  0  0  0  0  0
    2.0501   -8.0074    6.2816 H   0  0  0  0  0  0  0  0  0  0  0  0
   -1.0463   -9.1278    5.3570 H   0  0  0  0  0  0  0  0  0  0  0  0
  1  2  1  0
  1 29  1  0
  1 30  1  0
  1 31  1  0
  2 26  1  0
  2  3  1  0
  2 50  1  1
  3  4  1  0
  3 32  1  0
  3 33  1  0
  5  4  1  6
  4 34  1  0
  4 35  1  0
  5 14  1  0
  5 25  1  0
  5  6  1  0
  6 12  2  0
  6  7  1  0
  7 27  1  0
  7  8  2  0
  8  9  1  0
  8 36  1  0
  9 10  2  0
  9 37  1  0
 10 11  1  0
 10 12  1  0
 11 38  1  0
 12 13  1  0
 13 14  1  0
 14 15  1  0
 14 39  1  6
 15 23  2  0
 15 16  1  0
 16 28  1  0
 16 17  1  0
 17 22  2  0
 17 18  1  0
 18 19  2  0
 18 40  1  0
 19 20  1  0
 19 41  1  0
 20 21  2  0
 20 42  1  0
 21 22  1  0
 21 43  1  0
 22 23  1  0
 23 24  1  0
 24 25  1  0
 24 44  1  0
 24 45  1  0
 25 26  1  0
 25 46  1  6
 26 27  1  0
 26 47  1  1
 27 48  1  0
 27 49  1  0
M  CHG  1   2   1
M  END
>  <i_m_ct_stereo_status>  (167) 
1

>  <s_m_source_file>  (167) 
/var/tmp/pbs.5076255.sched01/tmprtix0sri/443g93ja_l.sdf

>  <i_m_source_file_index>  (167) 
32

>  <i_lp_mmshare_version>  (167) 
48012

>  <i_f3d_flags>  (167) 
0

>  <s_epik_input>  (167) 
W0NIMl0xW0NIMl1OKFtDSDNdKVtDQEBIXShbQ0gyXTIpW0NASF0zW0NIMl1jKGM0YyhbbkhdNSlbY0hdW2NIXVtjSF1bY0hdNCljNVtDQEhdNk9jN2MoW09IXSlbY0hdW2NIXWMyYzdbQ0BAXTEzNg==

>  <s_epik_cmdline>  (167) 
J2VwaWtfcHl0aG9uJywgJy1waHQnLCAnMi4wJywgJy1waCcsICc3LjAnLCAnLXRuJywgJzgnLCAnLW1hJywgJzIwMCcsICctaW1hZScsICc8aW5maWxlLm1hZT4nLCAnLW9tYWUnLCAnPG91dGZpbGUubWFlPic=

>  <r_lp_tautomer_probability>  (167) 
1

>  <r_epik_Ionization_Penalty>  (167) 
0.0546977

>  <r_epik_Ionization_Penalty_Charging>  (167) 
0.0405781

>  <r_epik_Ionization_Penalty_Neutral>  (167) 
0.0141195

>  <r_epik_State_Penalty>  (167) 
0.0445778

>  <r_epik_Charging_Adjusted_Penalty>  (167) 
0.085156

>  <i_epik_Tot_Q>  (167) 
1

>  <i_epik_Tot_abs_Q>  (167) 
1

>  <s_lp_Force_Field>  (167) 
OPLS3e

>  <r_lp_Energy>  (167) 
61.4921

>  <b_lp_Chiralities_Consistent>  (167) 
1

>  <s_lp_Variant>  (167) 
54:0-1

>  <s_i_glide_gridfile>  (167) 
pfpi4k_grid

>  <i_i_glide_lignum>  (167) 
32

>  <i_i_glide_rotatable_bonds>  (167) 
1

>  <r_i_docking_score>  (167) 
-3.37219

>  <r_i_glide_ligand_efficiency>  (167) 
-0.124896

>  <r_i_glide_ligand_efficiency_sa>  (167) 
-0.374688

>  <r_i_glide_ligand_efficiency_ln>  (167) 
-0.784991

>  <r_i_glide_gscore>  (167) 
-3.37219

>  <r_i_glide_lipo>  (167) 
-0.298493

>  <r_i_glide_hbond>  (167) 
-0.0334941

>  <r_i_glide_metal>  (167) 
-0

>  <r_i_glide_rewards>  (167) 
-0.958357

>  <r_i_glide_evdw>  (167) 
-16.7542

>  <r_i_glide_ecoul>  (167) 
-7.67495

>  <r_i_glide_erotb>  (167) 
0

>  <r_i_glide_esite>  (167) 
-0.0928962

>  <r_i_glide_emodel>  (167) 
-32.2284

>  <r_i_glide_energy>  (167) 
-24.4291

>  <r_i_glide_einternal>  (167) 
0.995222

>  <r_i_glide_intrahb_reward>  (167) 
-0

>  <i_i_glide_confnum>  (167) 
1

>  <i_i_glide_posenum>  (167) 
6

>  <r_i_glide_eff_state_penalty>  (167) 
0

>  <ligand_id>  (167) 
54

>  <original_smiles>  (167) 
CN1CCC23c4c5ccc(O)c4OC2c2[nH]c4ccccc4c2CC3C1C5

>  <smiles>  (167) 
[H]Oc1c([H])c([H])c2c3c1OC1([H])c4c(c5c([H])c([H])c([H])c([H])c5n4[H])C([H])([H])C4([H])C31C([H])([H])C([H])([H])[N+]([H])(C([H])([H])[H])C4([H])C2([H])[H]

$$$$
54:0:1
     RDKit          3D

 50 56  0  0  1  0  0  0  0  0999 V2000
    1.0577  -11.2247    4.5134 C   0  0  0  0  0  0  0  0  0  0  0  0
    2.5172  -10.9672    4.5036 N   0  0  1  0  0  0  0  0  0  0  0  0
    3.1346  -11.2489    3.1797 C   0  0  0  0  0  0  0  0  0  0  0  0
    2.9686  -10.0624    2.2149 C   0  0  0  0  0  0  0  0  0  0  0  0
    3.4481   -8.7298    2.8394 C   0  0  1  0  0  0  0  0  0  0  0  0
    4.8996   -8.7939    3.2245 C   0  0  0  0  0  0  0  0  0  0  0  0
    5.4224   -9.3359    4.4152 C   0  0  0  0  0  0  0  0  0  0  0  0
    6.8264   -9.3662    4.5167 C   0  0  0  0  0  0  0  0  0  0  0  0
    7.6174   -8.8659    3.4512 C   0  0  0  0  0  0  0  0  0  0  0  0
    7.0246   -8.2623    2.3134 C   0  0  0  0  0  0  0  0  0  0  0  0
    7.8152   -7.7462    1.3240 O   0  0  0  0  0  0  0  0  0  0  0  0
    5.6171   -8.1901    2.2103 C   0  0  0  0  0  0  0  0  0  0  0  0
    4.8364   -7.5813    1.2626 O   0  0  0  0  0  0  0  0  0  0  0  0
    3.4781   -7.6212    1.7424 C   0  0  2  0  0  0  0  0  0  0  0  0
    3.1305   -6.2817    2.3074 C   0  0  0  0  0  0  0  0  0  0  0  0
    3.0628   -5.1195    1.5623 N   0  0  0  0  0  0  0  0  0  0  0  0
    2.6957   -4.0559    2.3651 C   0  0  0  0  0  0  0  0  0  0  0  0
    2.4831   -2.6922    2.0931 C   0  0  0  0  0  0  0  0  0  0  0  0
    2.0981   -1.8224    3.1305 C   0  0  0  0  0  0  0  0  0  0  0  0
    1.9292   -2.3298    4.4340 C   0  0  0  0  0  0  0  0  0  0  0  0
    2.1418   -3.6987    4.6976 C   0  0  0  0  0  0  0  0  0  0  0  0
    2.5279   -4.5963    3.6740 C   0  0  0  0  0  0  0  0  0  0  0  0
    2.8102   -6.0049    3.6072 C   0  0  0  0  0  0  0  0  0  0  0  0
    2.7858   -7.0462    4.6911 C   0  0  0  0  0  0  0  0  0  0  0  0
    2.5942   -8.4725    4.1052 C   0  0  2  0  0  0  0  0  0  0  0  0
    2.9044   -9.6423    5.0856 C   0  0  2  0  0  0  0  0  0  0  0  0
    4.3960   -9.6656    5.5025 C   0  0  0  0  0  0  0  0  0  0  0  0
    3.2694   -5.0833    0.5747 H   0  0  0  0  0  0  0  0  0  0  0  0
    0.5347  -10.5730    3.8125 H   0  0  0  0  0  0  0  0  0  0  0  0
    0.6387  -11.0703    5.5092 H   0  0  0  0  0  0  0  0  0  0  0  0
    0.8573  -12.2571    4.2229 H   0  0  0  0  0  0  0  0  0  0  0  0
    4.1941  -11.4688    3.3028 H   0  0  0  0  0  0  0  0  0  0  0  0
    2.7071  -12.1508    2.7426 H   0  0  0  0  0  0  0  0  0  0  0  0
    3.5181  -10.2529    1.2939 H   0  0  0  0  0  0  0  0  0  0  0  0
    1.9182   -9.9737    1.9198 H   0  0  0  0  0  0  0  0  0  0  0  0
    7.2908   -9.7566    5.4118 H   0  0  0  0  0  0  0  0  0  0  0  0
    8.6884   -8.9197    3.5334 H   0  0  0  0  0  0  0  0  0  0  0  0
    8.7462   -7.8552    1.4696 H   0  0  0  0  0  0  0  0  0  0  0  0
    2.8010   -7.8460    0.9181 H   0  0  0  0  0  0  0  0  0  0  0  0
    2.6072   -2.3118    1.0909 H   0  0  0  0  0  0  0  0  0  0  0  0
    1.9385   -0.7714    2.9256 H   0  0  0  0  0  0  0  0  0  0  0  0
    1.6446   -1.6647    5.2372 H   0  0  0  0  0  0  0  0  0  0  0  0
    2.0140   -4.0766    5.6995 H   0  0  0  0  0  0  0  0  0  0  0  0
    3.7215   -6.9886    5.2487 H   0  0  0  0  0  0  0  0  0  0  0  0
    1.9962   -6.8289    5.4096 H   0  0  0  0  0  0  0  0  0  0  0  0
    1.5446   -8.5195    3.8110 H   0  0  0  0  0  0  0  0  0  0  0  0
    2.3193   -9.5192    5.9969 H   0  0  0  0  0  0  0  0  0  0  0  0
    4.6566  -10.6217    5.9543 H   0  0  0  0  0  0  0  0  0  0  0  0
    4.5380   -8.9242    6.2866 H   0  0  0  0  0  0  0  0  0  0  0  0
    2.8888  -11.6639    5.1357 H   0  0  0  0  0  0  0  0  0  0  0  0
  1  2  1  0
  1 29  1  0
  1 30  1  0
  1 31  1  0
  2 26  1  0
  2  3  1  0
  2 50  1  1
  3  4  1  0
  3 32  1  0
  3 33  1  0
  5  4  1  6
  4 34  1  0
  4 35  1  0
  5 14  1  0
  5 25  1  0
  5  6  1  0
  6 12  2  0
  6  7  1  0
  7 27  1  0
  7  8  2  0
  8  9  1  0
  8 36  1  0
  9 10  2  0
  9 37  1  0
 10 11  1  0
 10 12  1  0
 11 38  1  0
 12 13  1  0
 13 14  1  0
 14 15  1  0
 14 39  1  6
 15 23  2  0
 15 16  1  0
 16 28  1  0
 16 17  1  0
 17 22  2  0
 17 18  1  0
 18 19  2  0
 18 40  1  0
 19 20  1  0
 19 41  1  0
 20 21  2  0
 20 42  1  0
 21 22  1  0
 21 43  1  0
 22 23  1  0
 23 24  1  0
 24 25  1  0
 24 44  1  0
 24 45  1  0
 25 26  1  0
 25 46  1  6
 26 27  1  0
 26 47  1  1
 27 48  1  0
 27 49  1  0
M  CHG  1   2   1
M  END
>  <i_m_ct_stereo_status>  (168) 
1

>  <s_m_source_file>  (168) 
/var/tmp/pbs.5076255.sched01/tmprtix0sri/443g93ja_l.sdf

>  <i_m_source_file_index>  (168) 
32

>  <i_lp_mmshare_version>  (168) 
48012

>  <i_f3d_flags>  (168) 
0

>  <s_epik_input>  (168) 
W0NIMl0xW0NIMl1OKFtDSDNdKVtDQEBIXShbQ0gyXTIpW0NASF0zW0NIMl1jKGM0YyhbbkhdNSlbY0hdW2NIXVtjSF1bY0hdNCljNVtDQEhdNk9jN2MoW09IXSlbY0hdW2NIXWMyYzdbQ0BAXTEzNg==

>  <s_epik_cmdline>  (168) 
J2VwaWtfcHl0aG9uJywgJy1waHQnLCAnMi4wJywgJy1waCcsICc3LjAnLCAnLXRuJywgJzgnLCAnLW1hJywgJzIwMCcsICctaW1hZScsICc8aW5maWxlLm1hZT4nLCAnLW9tYWUnLCAnPG91dGZpbGUubWFlPic=

>  <r_lp_tautomer_probability>  (168) 
1

>  <r_epik_Ionization_Penalty>  (168) 
0.0546977

>  <r_epik_Ionization_Penalty_Charging>  (168) 
0.0405781

>  <r_epik_Ionization_Penalty_Neutral>  (168) 
0.0141195

>  <r_epik_State_Penalty>  (168) 
0.0445778

>  <r_epik_Charging_Adjusted_Penalty>  (168) 
0.085156

>  <i_epik_Tot_Q>  (168) 
1

>  <i_epik_Tot_abs_Q>  (168) 
1

>  <s_lp_Force_Field>  (168) 
OPLS3e

>  <r_lp_Energy>  (168) 
61.4921

>  <b_lp_Chiralities_Consistent>  (168) 
1

>  <s_lp_Variant>  (168) 
54:0-1

>  <s_i_glide_gridfile>  (168) 
pfpi4k_grid

>  <i_i_glide_lignum>  (168) 
32

>  <i_i_glide_rotatable_bonds>  (168) 
1

>  <r_i_docking_score>  (168) 
-3.14819

>  <r_i_glide_ligand_efficiency>  (168) 
-0.1166

>  <r_i_glide_ligand_efficiency_sa>  (168) 
-0.349799

>  <r_i_glide_ligand_efficiency_ln>  (168) 
-0.732846

>  <r_i_glide_gscore>  (168) 
-3.14819

>  <r_i_glide_lipo>  (168) 
-0.195178

>  <r_i_glide_hbond>  (168) 
0

>  <r_i_glide_metal>  (168) 
-0

>  <r_i_glide_rewards>  (168) 
-0.958357

>  <r_i_glide_evdw>  (168) 
-19.0522

>  <r_i_glide_ecoul>  (168) 
-6.73777

>  <r_i_glide_erotb>  (168) 
0

>  <r_i_glide_esite>  (168) 
-0.0313768

>  <r_i_glide_emodel>  (168) 
-33.8584

>  <r_i_glide_energy>  (168) 
-25.79

>  <r_i_glide_einternal>  (168) 
0.00101305

>  <r_i_glide_intrahb_reward>  (168) 
-0

>  <i_i_glide_confnum>  (168) 
1

>  <i_i_glide_posenum>  (168) 
1

>  <r_i_glide_eff_state_penalty>  (168) 
0

>  <ligand_id>  (168) 
54

>  <original_smiles>  (168) 
CN1CCC23c4c5ccc(O)c4OC2c2[nH]c4ccccc4c2CC3C1C5

>  <smiles>  (168) 
[H]Oc1c([H])c([H])c2c3c1OC1([H])c4c(c5c([H])c([H])c([H])c([H])c5n4[H])C([H])([H])C4([H])C31C([H])([H])C([H])([H])[N+]([H])(C([H])([H])[H])C4([H])C2([H])[H]

$$$$
54:0:2
     RDKit          3D

 50 56  0  0  1  0  0  0  0  0999 V2000
   -1.3816   -9.2207    2.9581 C   0  0  0  0  0  0  0  0  0  0  0  0
   -0.1806   -9.8142    3.5912 N   0  0  1  0  0  0  0  0  0  0  0  0
    0.7428  -10.4131    2.5911 C   0  0  0  0  0  0  0  0  0  0  0  0
    1.6552   -9.3476    1.9550 C   0  0  0  0  0  0  0  0  0  0  0  0
    2.3781   -8.4899    3.0192 C   0  0  1  0  0  0  0  0  0  0  0  0
    3.2342   -9.3361    3.9142 C   0  0  0  0  0  0  0  0  0  0  0  0
    2.8018  -10.0567    5.0432 C   0  0  0  0  0  0  0  0  0  0  0  0
    3.7684  -10.8627    5.6716 C   0  0  0  0  0  0  0  0  0  0  0  0
    5.0881  -10.9039    5.1564 C   0  0  0  0  0  0  0  0  0  0  0  0
    5.4767  -10.0908    4.0606 C   0  0  0  0  0  0  0  0  0  0  0  0
    6.7653  -10.1166    3.6142 O   0  0  0  0  0  0  0  0  0  0  0  0
    4.5289   -9.2487    3.4397 C   0  0  0  0  0  0  0  0  0  0  0  0
    4.6959   -8.3232    2.4442 O   0  0  0  0  0  0  0  0  0  0  0  0
    3.4556   -7.5995    2.3278 C   0  0  2  0  0  0  0  0  0  0  0  0
    3.6027   -6.2843    3.0219 C   0  0  0  0  0  0  0  0  0  0  0  0
    4.4725   -5.2888    2.6183 N   0  0  0  0  0  0  0  0  0  0  0  0
    4.3556   -4.1863    3.4421 C   0  0  0  0  0  0  0  0  0  0  0  0
    4.9999   -2.9358    3.4461 C   0  0  0  0  0  0  0  0  0  0  0  0
    4.6716   -1.9841    4.4300 C   0  0  0  0  0  0  0  0  0  0  0  0
    3.6987   -2.2948    5.3992 C   0  0  0  0  0  0  0  0  0  0  0  0
    3.0541   -3.5493    5.3842 C   0  0  0  0  0  0  0  0  0  0  0  0
    3.3633   -4.5255    4.4074 C   0  0  0  0  0  0  0  0  0  0  0  0
    2.9020   -5.8566    4.1163 C   0  0  0  0  0  0  0  0  0  0  0  0
    1.8680   -6.6926    4.8136 C   0  0  0  0  0  0  0  0  0  0  0  0
    1.2936   -7.7842    3.8705 C   0  0  2  0  0  0  0  0  0  0  0  0
    0.4916   -8.9141    4.5814 C   0  0  2  0  0  0  0  0  0  0  0  0
    1.3835   -9.7517    5.5292 C   0  0  0  0  0  0  0  0  0  0  0  0
    5.0896   -5.3821    1.8259 H   0  0  0  0  0  0  0  0  0  0  0  0
   -1.1169   -8.4013    2.2896 H   0  0  0  0  0  0  0  0  0  0  0  0
   -2.0763   -8.8534    3.7148 H   0  0  0  0  0  0  0  0  0  0  0  0
   -1.9044   -9.9691    2.3629 H   0  0  0  0  0  0  0  0  0  0  0  0
    1.3523  -11.1832    3.0606 H   0  0  0  0  0  0  0  0  0  0  0  0
    0.1724  -10.9316    1.8214 H   0  0  0  0  0  0  0  0  0  0  0  0
    2.3766   -9.8372    1.2954 H   0  0  0  0  0  0  0  0  0  0  0  0
    1.0684   -8.6858    1.3114 H   0  0  0  0  0  0  0  0  0  0  0  0
    3.4941  -11.4356    6.5484 H   0  0  0  0  0  0  0  0  0  0  0  0
    5.8059  -11.5439    5.6386 H   0  0  0  0  0  0  0  0  0  0  0  0
    7.2956  -10.7468    4.0754 H   0  0  0  0  0  0  0  0  0  0  0  0
    3.2296   -7.4231    1.2749 H   0  0  0  0  0  0  0  0  0  0  0  0
    5.7446   -2.7094    2.7010 H   0  0  0  0  0  0  0  0  0  0  0  0
    5.1679   -1.0229    4.4430 H   0  0  0  0  0  0  0  0  0  0  0  0
    3.4470   -1.5700    6.1611 H   0  0  0  0  0  0  0  0  0  0  0  0
    2.3103   -3.7752    6.1316 H   0  0  0  0  0  0  0  0  0  0  0  0
    2.3278   -7.1510    5.6896 H   0  0  0  0  0  0  0  0  0  0  0  0
    1.0649   -6.0628    5.1953 H   0  0  0  0  0  0  0  0  0  0  0  0
    0.6313   -7.2471    3.1902 H   0  0  0  0  0  0  0  0  0  0  0  0
   -0.3006   -8.4761    5.1886 H   0  0  0  0  0  0  0  0  0  0  0  0
    0.8920  -10.6868    5.7967 H   0  0  0  0  0  0  0  0  0  0  0  0
    1.4921   -9.2067    6.4653 H   0  0  0  0  0  0  0  0  0  0  0  0
   -0.5526  -10.5821    4.1434 H   0  0  0  0  0  0  0  0  0  0  0  0
  1  2  1  0
  1 29  1  0
  1 30  1  0
  1 31  1  0
  2 26  1  0
  2  3  1  0
  2 50  1  1
  3  4  1  0
  3 32  1  0
  3 33  1  0
  5  4  1  6
  4 34  1  0
  4 35  1  0
  5 14  1  0
  5 25  1  0
  5  6  1  0
  6 12  2  0
  6  7  1  0
  7 27  1  0
  7  8  2  0
  8  9  1  0
  8 36  1  0
  9 10  2  0
  9 37  1  0
 10 11  1  0
 10 12  1  0
 11 38  1  0
 12 13  1  0
 13 14  1  0
 14 15  1  0
 14 39  1  6
 15 23  2  0
 15 16  1  0
 16 28  1  0
 16 17  1  0
 17 22  2  0
 17 18  1  0
 18 19  2  0
 18 40  1  0
 19 20  1  0
 19 41  1  0
 20 21  2  0
 20 42  1  0
 21 22  1  0
 21 43  1  0
 22 23  1  0
 23 24  1  0
 24 25  1  0
 24 44  1  0
 24 45  1  0
 25 26  1  0
 25 46  1  6
 26 27  1  0
 26 47  1  1
 27 48  1  0
 27 49  1  0
M  CHG  1   2   1
M  END
>  <i_m_ct_stereo_status>  (169) 
1

>  <s_m_source_file>  (169) 
/var/tmp/pbs.5076255.sched01/tmprtix0sri/443g93ja_l.sdf

>  <i_m_source_file_index>  (169) 
32

>  <i_lp_mmshare_version>  (169) 
48012

>  <i_f3d_flags>  (169) 
0

>  <s_epik_input>  (169) 
W0NIMl0xW0NIMl1OKFtDSDNdKVtDQEBIXShbQ0gyXTIpW0NASF0zW0NIMl1jKGM0YyhbbkhdNSlbY0hdW2NIXVtjSF1bY0hdNCljNVtDQEhdNk9jN2MoW09IXSlbY0hdW2NIXWMyYzdbQ0BAXTEzNg==

>  <s_epik_cmdline>  (169) 
J2VwaWtfcHl0aG9uJywgJy1waHQnLCAnMi4wJywgJy1waCcsICc3LjAnLCAnLXRuJywgJzgnLCAnLW1hJywgJzIwMCcsICctaW1hZScsICc8aW5maWxlLm1hZT4nLCAnLW9tYWUnLCAnPG91dGZpbGUubWFlPic=

>  <r_lp_tautomer_probability>  (169) 
1

>  <r_epik_Ionization_Penalty>  (169) 
0.0546977

>  <r_epik_Ionization_Penalty_Charging>  (169) 
0.0405781

>  <r_epik_Ionization_Penalty_Neutral>  (169) 
0.0141195

>  <r_epik_State_Penalty>  (169) 
0.0445778

>  <r_epik_Charging_Adjusted_Penalty>  (169) 
0.085156

>  <i_epik_Tot_Q>  (169) 
1

>  <i_epik_Tot_abs_Q>  (169) 
1

>  <s_lp_Force_Field>  (169) 
OPLS3e

>  <r_lp_Energy>  (169) 
61.4921

>  <b_lp_Chiralities_Consistent>  (169) 
1

>  <s_lp_Variant>  (169) 
54:0-1

>  <s_i_glide_gridfile>  (169) 
pfpi4k_grid

>  <i_i_glide_lignum>  (169) 
32

>  <i_i_glide_rotatable_bonds>  (169) 
1

>  <r_i_docking_score>  (169) 
-2.99284

>  <r_i_glide_ligand_efficiency>  (169) 
-0.110846

>  <r_i_glide_ligand_efficiency_sa>  (169) 
-0.332537

>  <r_i_glide_ligand_efficiency_ln>  (169) 
-0.696683

>  <r_i_glide_gscore>  (169) 
-2.99284

>  <r_i_glide_lipo>  (169) 
-0.332083

>  <r_i_glide_hbond>  (169) 
-0.159642

>  <r_i_glide_metal>  (169) 
-0

>  <r_i_glide_rewards>  (169) 
-0.958357

>  <r_i_glide_evdw>  (169) 
-17.6547

>  <r_i_glide_ecoul>  (169) 
-4.01507

>  <r_i_glide_erotb>  (169) 
0

>  <r_i_glide_esite>  (169) 
-0.0577578

>  <r_i_glide_emodel>  (169) 
-29.3162

>  <r_i_glide_energy>  (169) 
-21.6698

>  <r_i_glide_einternal>  (169) 
0.0188861

>  <r_i_glide_intrahb_reward>  (169) 
-0

>  <i_i_glide_confnum>  (169) 
2

>  <i_i_glide_posenum>  (169) 
25

>  <r_i_glide_eff_state_penalty>  (169) 
0

>  <ligand_id>  (169) 
54

>  <original_smiles>  (169) 
CN1CCC23c4c5ccc(O)c4OC2c2[nH]c4ccccc4c2CC3C1C5

>  <smiles>  (169) 
[H]Oc1c([H])c([H])c2c3c1OC1([H])c4c(c5c([H])c([H])c([H])c([H])c5n4[H])C([H])([H])C4([H])C31C([H])([H])C([H])([H])[N+]([H])(C([H])([H])[H])C4([H])C2([H])[H]

$$$$
54:1:0
     RDKit          3D

 49 55  0  0  1  0  0  0  0  0999 V2000
   -1.9778    4.6355    2.7206 C   0  0  0  0  0  0  0  0  0  0  0  0
   -1.3613    4.3178    4.0003 N   0  0  0  0  0  0  0  0  0  0  0  0
   -2.1821    3.4000    4.8000 C   0  0  0  0  0  0  0  0  0  0  0  0
   -2.0032    1.9289    4.3982 C   0  0  0  0  0  0  0  0  0  0  0  0
   -0.5199    1.5167    4.3527 C   0  0  1  0  0  0  0  0  0  0  0  0
    0.1573    1.6906    5.6843 C   0  0  0  0  0  0  0  0  0  0  0  0
    0.6951    2.8866    6.1927 C   0  0  0  0  0  0  0  0  0  0  0  0
    1.2424    2.8172    7.4881 C   0  0  0  0  0  0  0  0  0  0  0  0
    1.2150    1.5932    8.2033 C   0  0  0  0  0  0  0  0  0  0  0  0
    0.7108    0.4092    7.6081 C   0  0  0  0  0  0  0  0  0  0  0  0
    0.7220   -0.7642    8.3053 O   0  0  0  0  0  0  0  0  0  0  0  0
    0.2037    0.4465    6.2906 C   0  0  0  0  0  0  0  0  0  0  0  0
   -0.2317   -0.5766    5.4894 O   0  0  0  0  0  0  0  0  0  0  0  0
   -0.4006   -0.0282    4.1635 C   0  0  2  0  0  0  0  0  0  0  0  0
    0.8005   -0.3824    3.3396 C   0  0  0  0  0  0  0  0  0  0  0  0
    1.1591   -1.6734    2.9981 N   0  0  0  0  0  0  0  0  0  0  0  0
    2.2875   -1.6643    2.2021 C   0  0  0  0  0  0  0  0  0  0  0  0
    3.0245   -2.6963    1.5935 C   0  0  0  0  0  0  0  0  0  0  0  0
    4.1649   -2.3834    0.8294 C   0  0  0  0  0  0  0  0  0  0  0  0
    4.5527   -1.0392    0.6779 C   0  0  0  0  0  0  0  0  0  0  0  0
    3.7988   -0.0141    1.2822 C   0  0  0  0  0  0  0  0  0  0  0  0
    2.6510   -0.2953    2.0594 C   0  0  0  0  0  0  0  0  0  0  0  0
    1.6924    0.4951    2.7846 C   0  0  0  0  0  0  0  0  0  0  0  0
    1.6042    1.9850    2.9583 C   0  0  0  0  0  0  0  0  0  0  0  0
    0.1590    2.4279    3.3048 C   0  0  2  0  0  0  0  0  0  0  0  0
    0.0445    3.8843    3.8478 C   0  0  2  0  0  0  0  0  0  0  0  0
    0.7465    4.0641    5.2175 C   0  0  0  0  0  0  0  0  0  0  0  0
    0.6316   -2.4830    3.2829 H   0  0  0  0  0  0  0  0  0  0  0  0
   -2.9708    5.0581    2.8664 H   0  0  0  0  0  0  0  0  0  0  0  0
   -2.0754    3.7568    2.0859 H   0  0  0  0  0  0  0  0  0  0  0  0
   -1.3848    5.3824    2.1896 H   0  0  0  0  0  0  0  0  0  0  0  0
   -1.9226    3.5127    5.8528 H   0  0  0  0  0  0  0  0  0  0  0  0
   -3.2308    3.6677    4.7196 H   0  0  0  0  0  0  0  0  0  0  0  0
   -2.5447    1.2909    5.0963 H   0  0  0  0  0  0  0  0  0  0  0  0
   -2.4579    1.7567    3.4225 H   0  0  0  0  0  0  0  0  0  0  0  0
    1.6878    3.6947    7.9300 H   0  0  0  0  0  0  0  0  0  0  0  0
    1.6078    1.5712    9.2047 H   0  0  0  0  0  0  0  0  0  0  0  0
    1.2010   -0.6898    9.1163 H   0  0  0  0  0  0  0  0  0  0  0  0
   -1.2938   -0.4510    3.6999 H   0  0  0  0  0  0  0  0  0  0  0  0
    2.7180   -3.7205    1.7157 H   0  0  0  0  0  0  0  0  0  0  0  0
    4.7411   -3.1712    0.3656 H   0  0  0  0  0  0  0  0  0  0  0  0
    5.4263   -0.7823    0.0980 H   0  0  0  0  0  0  0  0  0  0  0  0
    4.0938    1.0103    1.1501 H   0  0  0  0  0  0  0  0  0  0  0  0
    2.2913    2.2806    3.7513 H   0  0  0  0  0  0  0  0  0  0  0  0
    1.9400    2.4953    2.0570 H   0  0  0  0  0  0  0  0  0  0  0  0
   -0.3990    2.3380    2.3715 H   0  0  0  0  0  0  0  0  0  0  0  0
    0.5211    4.5697    3.1431 H   0  0  0  0  0  0  0  0  0  0  0  0
    0.3792    4.9558    5.7249 H   0  0  0  0  0  0  0  0  0  0  0  0
    1.8013    4.2443    5.0248 H   0  0  0  0  0  0  0  0  0  0  0  0
  1  2  1  0
  1 29  1  0
  1 30  1  0
  1 31  1  0
  2 26  1  0
  2  3  1  0
  3  4  1  0
  3 32  1  0
  3 33  1  0
  5  4  1  1
  4 34  1  0
  4 35  1  0
  5 14  1  0
  5 25  1  0
  5  6  1  0
  6 12  2  0
  6  7  1  0
  7 27  1  0
  7  8  2  0
  8  9  1  0
  8 36  1  0
  9 10  2  0
  9 37  1  0
 10 11  1  0
 10 12  1  0
 11 38  1  0
 12 13  1  0
 13 14  1  0
 14 15  1  0
 14 39  1  6
 15 23  2  0
 15 16  1  0
 16 28  1  0
 16 17  1  0
 17 22  2  0
 17 18  1  0
 18 19  2  0
 18 40  1  0
 19 20  1  0
 19 41  1  0
 20 21  2  0
 20 42  1  0
 21 22  1  0
 21 43  1  0
 22 23  1  0
 23 24  1  0
 24 25  1  0
 24 44  1  0
 24 45  1  0
 25 26  1  0
 25 46  1  6
 26 27  1  0
 26 47  1  6
 27 48  1  0
 27 49  1  0
M  END
>  <i_m_ct_stereo_status>  (170) 
1

>  <s_m_source_file>  (170) 
/var/tmp/pbs.5076255.sched01/tmprtix0sri/443g93ja_l.sdf

>  <i_m_source_file_index>  (170) 
33

>  <i_lp_mmshare_version>  (170) 
48012

>  <i_f3d_flags>  (170) 
0

>  <s_epik_input>  (170) 
W0NIMl0xW0NIMl1OKFtDSDNdKVtDQEBIXShbQ0gyXTIpW0NASF0zW0NIMl1jKGM0YyhbbkhdNSlbY0hdW2NIXVtjSF1bY0hdNCljNVtDQEhdNk9jN2MoW09IXSlbY0hdW2NIXWMyYzdbQ0BAXTEzNg==

>  <s_epik_cmdline>  (170) 
J2VwaWtfcHl0aG9uJywgJy1waHQnLCAnMi4wJywgJy1waCcsICc3LjAnLCAnLXRuJywgJzgnLCAnLW1hJywgJzIwMCcsICctaW1hZScsICc8aW5maWxlLm1hZT4nLCAnLW9tYWUnLCAnPG91dGZpbGUubWFlPic=

>  <r_lp_tautomer_probability>  (170) 
1

>  <r_epik_Ionization_Penalty>  (170) 
1.61104

>  <r_epik_Ionization_Penalty_Charging>  (170) 
0

>  <r_epik_Ionization_Penalty_Neutral>  (170) 
1.61104

>  <r_epik_State_Penalty>  (170) 
1.71787

>  <r_epik_Charging_Adjusted_Penalty>  (170) 
1.71787

>  <i_epik_Tot_Q>  (170) 
0

>  <i_epik_Tot_abs_Q>  (170) 
0

>  <s_lp_Force_Field>  (170) 
OPLS3e

>  <r_lp_Energy>  (170) 
57.2897

>  <b_lp_Chiralities_Consistent>  (170) 
1

>  <s_lp_Variant>  (170) 
54:0-2

>  <s_i_glide_gridfile>  (170) 
pfpi4k_grid

>  <i_i_glide_lignum>  (170) 
33

>  <i_i_glide_rotatable_bonds>  (170) 
1

>  <r_i_docking_score>  (170) 
-2.80272

>  <r_i_glide_ligand_efficiency>  (170) 
-0.103805

>  <r_i_glide_ligand_efficiency_sa>  (170) 
-0.311414

>  <r_i_glide_ligand_efficiency_ln>  (170) 
-0.652428

>  <r_i_glide_gscore>  (170) 
-2.80272

>  <r_i_glide_lipo>  (170) 
-0.0775516

>  <r_i_glide_hbond>  (170) 
-0.0519751

>  <r_i_glide_metal>  (170) 
-0

>  <r_i_glide_rewards>  (170) 
-0.96523

>  <r_i_glide_evdw>  (170) 
-20.4344

>  <r_i_glide_ecoul>  (170) 
-4.50121

>  <r_i_glide_erotb>  (170) 
0

>  <r_i_glide_esite>  (170) 
-0.0110677

>  <r_i_glide_emodel>  (170) 
-29.2386

>  <r_i_glide_energy>  (170) 
-24.9356

>  <r_i_glide_einternal>  (170) 
0.0516424

>  <r_i_glide_intrahb_reward>  (170) 
-0

>  <i_i_glide_confnum>  (170) 
1

>  <i_i_glide_posenum>  (170) 
1

>  <r_i_glide_eff_state_penalty>  (170) 
0

>  <ligand_id>  (170) 
54

>  <original_smiles>  (170) 
CN1CCC23c4c5ccc(O)c4OC2c2[nH]c4ccccc4c2CC3C1C5

>  <smiles>  (170) 
[H]Oc1c([H])c([H])c2c3c1OC1([H])c4c(c5c([H])c([H])c([H])c([H])c5n4[H])C([H])([H])C4([H])C([H])(N(C([H])([H])[H])C([H])([H])C([H])([H])C314)C2([H])[H]

$$$$
54:1:1
     RDKit          3D

 49 55  0  0  1  0  0  0  0  0999 V2000
   -1.0929   -7.9407    2.0085 C   0  0  0  0  0  0  0  0  0  0  0  0
   -0.5101   -8.1938    3.3145 N   0  0  0  0  0  0  0  0  0  0  0  0
   -0.2357   -9.6238    3.5225 C   0  0  0  0  0  0  0  0  0  0  0  0
    1.1007  -10.0747    2.9105 C   0  0  0  0  0  0  0  0  0  0  0  0
    2.2647   -9.1570    3.3434 C   0  0  1  0  0  0  0  0  0  0  0  0
    2.4549   -9.1364    4.8359 C   0  0  0  0  0  0  0  0  0  0  0  0
    1.7401   -8.3477    5.7572 C   0  0  0  0  0  0  0  0  0  0  0  0
    2.0572   -8.5373    7.1151 C   0  0  0  0  0  0  0  0  0  0  0  0
    3.0412   -9.4892    7.4821 C   0  0  0  0  0  0  0  0  0  0  0  0
    3.7755  -10.2011    6.4992 C   0  0  0  0  0  0  0  0  0  0  0  0
    4.7485  -11.0789    6.8760 O   0  0  0  0  0  0  0  0  0  0  0  0
    3.5044   -9.9879    5.1294 C   0  0  0  0  0  0  0  0  0  0  0  0
    4.1524  -10.4739    4.0255 O   0  0  0  0  0  0  0  0  0  0  0  0
    3.6278   -9.7663    2.8837 C   0  0  2  0  0  0  0  0  0  0  0  0
    4.6018   -8.6905    2.5082 C   0  0  0  0  0  0  0  0  0  0  0  0
    5.8824   -8.9299    2.0474 N   0  0  0  0  0  0  0  0  0  0  0  0
    6.5233   -7.7369    1.7698 C   0  0  0  0  0  0  0  0  0  0  0  0
    7.8064   -7.4428    1.2828 C   0  0  0  0  0  0  0  0  0  0  0  0
    8.1905   -6.1036    1.0886 C   0  0  0  0  0  0  0  0  0  0  0  0
    7.2849   -5.0677    1.3865 C   0  0  0  0  0  0  0  0  0  0  0  0
    5.9974   -5.3709    1.8768 C   0  0  0  0  0  0  0  0  0  0  0  0
    5.5834   -6.7093    2.0789 C   0  0  0  0  0  0  0  0  0  0  0  0
    4.3787   -7.3417    2.5427 C   0  0  0  0  0  0  0  0  0  0  0  0
    3.0858   -6.7278    2.9919 C   0  0  0  0  0  0  0  0  0  0  0  0
    1.9134   -7.7321    2.8562 C   0  0  2  0  0  0  0  0  0  0  0  0
    0.6259   -7.3070    3.6201 C   0  0  2  0  0  0  0  0  0  0  0  0
    0.8152   -7.2914    5.1564 C   0  0  0  0  0  0  0  0  0  0  0  0
    6.2528   -9.8620    1.9363 H   0  0  0  0  0  0  0  0  0  0  0  0
   -2.0036   -8.5279    1.8819 H   0  0  0  0  0  0  0  0  0  0  0  0
   -0.4076   -8.1862    1.1997 H   0  0  0  0  0  0  0  0  0  0  0  0
   -1.3663   -6.8893    1.9289 H   0  0  0  0  0  0  0  0  0  0  0  0
   -0.2110   -9.8338    4.5914 H   0  0  0  0  0  0  0  0  0  0  0  0
   -1.0502  -10.2249    3.1220 H   0  0  0  0  0  0  0  0  0  0  0  0
    1.3005  -11.1090    3.1972 H   0  0  0  0  0  0  0  0  0  0  0  0
    1.0258  -10.0836    1.8221 H   0  0  0  0  0  0  0  0  0  0  0  0
    1.5547   -7.9541    7.8710 H   0  0  0  0  0  0  0  0  0  0  0  0
    3.2481   -9.6467    8.5262 H   0  0  0  0  0  0  0  0  0  0  0  0
    4.6621  -11.3393    7.7788 H   0  0  0  0  0  0  0  0  0  0  0  0
    3.5081  -10.4563    2.0470 H   0  0  0  0  0  0  0  0  0  0  0  0
    8.5011   -8.2334    1.0547 H   0  0  0  0  0  0  0  0  0  0  0  0
    9.1802   -5.8840    0.7204 H   0  0  0  0  0  0  0  0  0  0  0  0
    7.5768   -4.0369    1.2501 H   0  0  0  0  0  0  0  0  0  0  0  0
    5.3094   -4.5723    2.1054 H   0  0  0  0  0  0  0  0  0  0  0  0
    3.1951   -6.4104    4.0292 H   0  0  0  0  0  0  0  0  0  0  0  0
    2.8739   -5.8273    2.4195 H   0  0  0  0  0  0  0  0  0  0  0  0
    1.7058   -7.7895    1.7865 H   0  0  0  0  0  0  0  0  0  0  0  0
    0.3372   -6.2997    3.3159 H   0  0  0  0  0  0  0  0  0  0  0  0
   -0.1476   -7.3403    5.6664 H   0  0  0  0  0  0  0  0  0  0  0  0
    1.2434   -6.3280    5.4276 H   0  0  0  0  0  0  0  0  0  0  0  0
  1  2  1  0
  1 29  1  0
  1 30  1  0
  1 31  1  0
  2 26  1  0
  2  3  1  0
  3  4  1  0
  3 32  1  0
  3 33  1  0
  5  4  1  1
  4 34  1  0
  4 35  1  0
  5 14  1  0
  5 25  1  0
  5  6  1  0
  6 12  2  0
  6  7  1  0
  7 27  1  0
  7  8  2  0
  8  9  1  0
  8 36  1  0
  9 10  2  0
  9 37  1  0
 10 11  1  0
 10 12  1  0
 11 38  1  0
 12 13  1  0
 13 14  1  0
 14 15  1  0
 14 39  1  6
 15 23  2  0
 15 16  1  0
 16 28  1  0
 16 17  1  0
 17 22  2  0
 17 18  1  0
 18 19  2  0
 18 40  1  0
 19 20  1  0
 19 41  1  0
 20 21  2  0
 20 42  1  0
 21 22  1  0
 21 43  1  0
 22 23  1  0
 23 24  1  0
 24 25  1  0
 24 44  1  0
 24 45  1  0
 25 26  1  0
 25 46  1  6
 26 27  1  0
 26 47  1  6
 27 48  1  0
 27 49  1  0
M  END
>  <i_m_ct_stereo_status>  (171) 
1

>  <s_m_source_file>  (171) 
/var/tmp/pbs.5076255.sched01/tmprtix0sri/443g93ja_l.sdf

>  <i_m_source_file_index>  (171) 
33

>  <i_lp_mmshare_version>  (171) 
48012

>  <i_f3d_flags>  (171) 
0

>  <s_epik_input>  (171) 
W0NIMl0xW0NIMl1OKFtDSDNdKVtDQEBIXShbQ0gyXTIpW0NASF0zW0NIMl1jKGM0YyhbbkhdNSlbY0hdW2NIXVtjSF1bY0hdNCljNVtDQEhdNk9jN2MoW09IXSlbY0hdW2NIXWMyYzdbQ0BAXTEzNg==

>  <s_epik_cmdline>  (171) 
J2VwaWtfcHl0aG9uJywgJy1waHQnLCAnMi4wJywgJy1waCcsICc3LjAnLCAnLXRuJywgJzgnLCAnLW1hJywgJzIwMCcsICctaW1hZScsICc8aW5maWxlLm1hZT4nLCAnLW9tYWUnLCAnPG91dGZpbGUubWFlPic=

>  <r_lp_tautomer_probability>  (171) 
1

>  <r_epik_Ionization_Penalty>  (171) 
1.61104

>  <r_epik_Ionization_Penalty_Charging>  (171) 
0

>  <r_epik_Ionization_Penalty_Neutral>  (171) 
1.61104

>  <r_epik_State_Penalty>  (171) 
1.71787

>  <r_epik_Charging_Adjusted_Penalty>  (171) 
1.71787

>  <i_epik_Tot_Q>  (171) 
0

>  <i_epik_Tot_abs_Q>  (171) 
0

>  <s_lp_Force_Field>  (171) 
OPLS3e

>  <r_lp_Energy>  (171) 
57.2897

>  <b_lp_Chiralities_Consistent>  (171) 
1

>  <s_lp_Variant>  (171) 
54:0-2

>  <s_i_glide_gridfile>  (171) 
pfpi4k_grid

>  <i_i_glide_lignum>  (171) 
33

>  <i_i_glide_rotatable_bonds>  (171) 
1

>  <r_i_docking_score>  (171) 
-2.52317

>  <r_i_glide_ligand_efficiency>  (171) 
-0.0934509

>  <r_i_glide_ligand_efficiency_sa>  (171) 
-0.280353

>  <r_i_glide_ligand_efficiency_ln>  (171) 
-0.587353

>  <r_i_glide_gscore>  (171) 
-2.52317

>  <r_i_glide_lipo>  (171) 
-0.412652

>  <r_i_glide_hbond>  (171) 
0

>  <r_i_glide_metal>  (171) 
-0

>  <r_i_glide_rewards>  (171) 
-0.96523

>  <r_i_glide_evdw>  (171) 
-22.2396

>  <r_i_glide_ecoul>  (171) 
-0.22207

>  <r_i_glide_erotb>  (171) 
0

>  <r_i_glide_esite>  (171) 
0

>  <r_i_glide_emodel>  (171) 
-26.1069

>  <r_i_glide_energy>  (171) 
-22.4617

>  <r_i_glide_einternal>  (171) 
0.346158

>  <r_i_glide_intrahb_reward>  (171) 
-0

>  <i_i_glide_confnum>  (171) 
2

>  <i_i_glide_posenum>  (171) 
3

>  <r_i_glide_eff_state_penalty>  (171) 
0

>  <ligand_id>  (171) 
54

>  <original_smiles>  (171) 
CN1CCC23c4c5ccc(O)c4OC2c2[nH]c4ccccc4c2CC3C1C5

>  <smiles>  (171) 
[H]Oc1c([H])c([H])c2c3c1OC1([H])c4c(c5c([H])c([H])c([H])c([H])c5n4[H])C([H])([H])C4([H])C([H])(N(C([H])([H])[H])C([H])([H])C([H])([H])C314)C2([H])[H]

$$$$
54:1:2
     RDKit          3D

 49 55  0  0  1  0  0  0  0  0999 V2000
    0.2376   -9.5526    2.8324 C   0  0  0  0  0  0  0  0  0  0  0  0
    1.5004   -9.4022    3.5380 N   0  0  0  0  0  0  0  0  0  0  0  0
    2.5546  -10.2591    2.9831 C   0  0  0  0  0  0  0  0  0  0  0  0
    3.2496   -9.6211    1.7669 C   0  0  0  0  0  0  0  0  0  0  0  0
    3.7117   -8.1799    2.0622 C   0  0  1  0  0  0  0  0  0  0  0  0
    4.6946   -8.1153    3.2053 C   0  0  0  0  0  0  0  0  0  0  0  0
    4.3740   -8.0908    4.5806 C   0  0  0  0  0  0  0  0  0  0  0  0
    5.4677   -8.0817    5.4652 C   0  0  0  0  0  0  0  0  0  0  0  0
    6.7934   -8.1055    4.9553 C   0  0  0  0  0  0  0  0  0  0  0  0
    7.0398   -8.0543    3.5591 C   0  0  0  0  0  0  0  0  0  0  0  0
    8.3200   -8.0227    3.1012 O   0  0  0  0  0  0  0  0  0  0  0  0
    5.9565   -8.0176    2.6324 C   0  0  0  0  0  0  0  0  0  0  0  0
    5.9664   -7.8608    1.2912 O   0  0  0  0  0  0  0  0  0  0  0  0
    4.5913   -7.6403    0.8835 C   0  0  2  0  0  0  0  0  0  0  0  0
    4.3890   -6.1794    0.6828 C   0  0  0  0  0  0  0  0  0  0  0  0
    5.0239   -5.4357   -0.3040 N   0  0  0  0  0  0  0  0  0  0  0  0
    4.6110   -4.1213   -0.2594 C   0  0  0  0  0  0  0  0  0  0  0  0
    4.9398   -2.9945   -1.0284 C   0  0  0  0  0  0  0  0  0  0  0  0
    4.3483   -1.7465   -0.7494 C   0  0  0  0  0  0  0  0  0  0  0  0
    3.4150   -1.6483    0.3139 C   0  0  0  0  0  0  0  0  0  0  0  0
    3.0861   -2.7880    1.0783 C   0  0  0  0  0  0  0  0  0  0  0  0
    3.6708   -4.0535    0.8168 C   0  0  0  0  0  0  0  0  0  0  0  0
    3.5523   -5.3683    1.3832 C   0  0  0  0  0  0  0  0  0  0  0  0
    2.7024   -5.8422    2.5156 C   0  0  0  0  0  0  0  0  0  0  0  0
    2.4449   -7.3699    2.4353 C   0  0  2  0  0  0  0  0  0  0  0  0
    1.8916   -7.9952    3.7377 C   0  0  2  0  0  0  0  0  0  0  0  0
    2.8948   -7.9485    4.9045 C   0  0  0  0  0  0  0  0  0  0  0  0
    5.6641   -5.8400   -0.9690 H   0  0  0  0  0  0  0  0  0  0  0  0
   -0.0734  -10.5983    2.8338 H   0  0  0  0  0  0  0  0  0  0  0  0
    0.3060   -9.2108    1.8008 H   0  0  0  0  0  0  0  0  0  0  0  0
   -0.5434   -8.9824    3.3396 H   0  0  0  0  0  0  0  0  0  0  0  0
    3.3043  -10.4530    3.7482 H   0  0  0  0  0  0  0  0  0  0  0  0
    2.1501  -11.2358    2.7136 H   0  0  0  0  0  0  0  0  0  0  0  0
    4.1000  -10.2382    1.4756 H   0  0  0  0  0  0  0  0  0  0  0  0
    2.5725   -9.6244    0.9106 H   0  0  0  0  0  0  0  0  0  0  0  0
    5.2968   -8.0509    6.5277 H   0  0  0  0  0  0  0  0  0  0  0  0
    7.6210   -8.1278    5.6366 H   0  0  0  0  0  0  0  0  0  0  0  0
    8.4094   -7.9699    2.1685 H   0  0  0  0  0  0  0  0  0  0  0  0
    4.4029   -8.1786   -0.0465 H   0  0  0  0  0  0  0  0  0  0  0  0
    5.6442   -3.0923   -1.8410 H   0  0  0  0  0  0  0  0  0  0  0  0
    4.5883   -0.8773   -1.3315 H   0  0  0  0  0  0  0  0  0  0  0  0
    2.9433   -0.7053    0.5275 H   0  0  0  0  0  0  0  0  0  0  0  0
    2.3682   -2.6996    1.8770 H   0  0  0  0  0  0  0  0  0  0  0  0
    3.2062   -5.5974    3.4560 H   0  0  0  0  0  0  0  0  0  0  0  0
    1.7516   -5.3081    2.5431 H   0  0  0  0  0  0  0  0  0  0  0  0
    1.7284   -7.4973    1.6224 H   0  0  0  0  0  0  0  0  0  0  0  0
    0.9928   -7.4621    4.0533 H   0  0  0  0  0  0  0  0  0  0  0  0
    2.6388   -8.6687    5.6835 H   0  0  0  0  0  0  0  0  0  0  0  0
    2.7992   -6.9669    5.3865 H   0  0  0  0  0  0  0  0  0  0  0  0
  1  2  1  0
  1 29  1  0
  1 30  1  0
  1 31  1  0
  2 26  1  0
  2  3  1  0
  3  4  1  0
  3 32  1  0
  3 33  1  0
  5  4  1  6
  4 34  1  0
  4 35  1  0
  5 14  1  0
  5 25  1  0
  5  6  1  0
  6 12  2  0
  6  7  1  0
  7 27  1  0
  7  8  2  0
  8  9  1  0
  8 36  1  0
  9 10  2  0
  9 37  1  0
 10 11  1  0
 10 12  1  0
 11 38  1  0
 12 13  1  0
 13 14  1  0
 14 15  1  0
 14 39  1  6
 15 23  2  0
 15 16  1  0
 16 28  1  0
 16 17  1  0
 17 22  2  0
 17 18  1  0
 18 19  2  0
 18 40  1  0
 19 20  1  0
 19 41  1  0
 20 21  2  0
 20 42  1  0
 21 22  1  0
 21 43  1  0
 22 23  1  0
 23 24  1  0
 24 25  1  0
 24 44  1  0
 24 45  1  0
 25 26  1  0
 25 46  1  6
 26 27  1  0
 26 47  1  1
 27 48  1  0
 27 49  1  0
M  END
>  <i_m_ct_stereo_status>  (172) 
1

>  <s_m_source_file>  (172) 
/var/tmp/pbs.5076255.sched01/tmprtix0sri/443g93ja_l.sdf

>  <i_m_source_file_index>  (172) 
33

>  <i_lp_mmshare_version>  (172) 
48012

>  <i_f3d_flags>  (172) 
0

>  <s_epik_input>  (172) 
W0NIMl0xW0NIMl1OKFtDSDNdKVtDQEBIXShbQ0gyXTIpW0NASF0zW0NIMl1jKGM0YyhbbkhdNSlbY0hdW2NIXVtjSF1bY0hdNCljNVtDQEhdNk9jN2MoW09IXSlbY0hdW2NIXWMyYzdbQ0BAXTEzNg==

>  <s_epik_cmdline>  (172) 
J2VwaWtfcHl0aG9uJywgJy1waHQnLCAnMi4wJywgJy1waCcsICc3LjAnLCAnLXRuJywgJzgnLCAnLW1hJywgJzIwMCcsICctaW1hZScsICc8aW5maWxlLm1hZT4nLCAnLW9tYWUnLCAnPG91dGZpbGUubWFlPic=

>  <r_lp_tautomer_probability>  (172) 
1

>  <r_epik_Ionization_Penalty>  (172) 
1.61104

>  <r_epik_Ionization_Penalty_Charging>  (172) 
0

>  <r_epik_Ionization_Penalty_Neutral>  (172) 
1.61104

>  <r_epik_State_Penalty>  (172) 
1.71787

>  <r_epik_Charging_Adjusted_Penalty>  (172) 
1.71787

>  <i_epik_Tot_Q>  (172) 
0

>  <i_epik_Tot_abs_Q>  (172) 
0

>  <s_lp_Force_Field>  (172) 
OPLS3e

>  <r_lp_Energy>  (172) 
57.2897

>  <b_lp_Chiralities_Consistent>  (172) 
1

>  <s_lp_Variant>  (172) 
54:0-2

>  <s_i_glide_gridfile>  (172) 
pfpi4k_grid

>  <i_i_glide_lignum>  (172) 
33

>  <i_i_glide_rotatable_bonds>  (172) 
1

>  <r_i_docking_score>  (172) 
-2.48513

>  <r_i_glide_ligand_efficiency>  (172) 
-0.092042

>  <r_i_glide_ligand_efficiency_sa>  (172) 
-0.276126

>  <r_i_glide_ligand_efficiency_ln>  (172) 
-0.578498

>  <r_i_glide_gscore>  (172) 
-2.48513

>  <r_i_glide_lipo>  (172) 
-0.255238

>  <r_i_glide_hbond>  (172) 
0

>  <r_i_glide_metal>  (172) 
-0

>  <r_i_glide_rewards>  (172) 
-0.96523

>  <r_i_glide_evdw>  (172) 
-22.4521

>  <r_i_glide_ecoul>  (172) 
-0.869665

>  <r_i_glide_erotb>  (172) 
0

>  <r_i_glide_esite>  (172) 
-0.0116145

>  <r_i_glide_emodel>  (172) 
-27.1118

>  <r_i_glide_energy>  (172) 
-23.3217

>  <r_i_glide_einternal>  (172) 
0.00298273

>  <r_i_glide_intrahb_reward>  (172) 
-0

>  <i_i_glide_confnum>  (172) 
1

>  <i_i_glide_posenum>  (172) 
2

>  <r_i_glide_eff_state_penalty>  (172) 
0

>  <ligand_id>  (172) 
54

>  <original_smiles>  (172) 
CN1CCC23c4c5ccc(O)c4OC2c2[nH]c4ccccc4c2CC3C1C5

>  <smiles>  (172) 
[H]Oc1c([H])c([H])c2c3c1OC1([H])c4c(c5c([H])c([H])c([H])c([H])c5n4[H])C([H])([H])C4([H])C([H])(N(C([H])([H])[H])C([H])([H])C([H])([H])C314)C2([H])[H]

$$$$
54:2:0
     RDKit          3D

 49 55  0  0  1  0  0  0  0  0999 V2000
    0.5047   -9.8819    6.0037 C   0  0  0  0  0  0  0  0  0  0  0  0
    1.8392  -10.4486    5.7808 N   0  0  1  0  0  0  0  0  0  0  0  0
    1.8930  -11.3443    4.6106 C   0  0  0  0  0  0  0  0  0  0  0  0
    2.0765  -10.5486    3.3189 C   0  0  0  0  0  0  0  0  0  0  0  0
    3.2675   -9.5632    3.4181 C   0  0  1  0  0  0  0  0  0  0  0  0
    4.5639  -10.2777    3.6899 C   0  0  0  0  0  0  0  0  0  0  0  0
    5.0317  -10.7047    4.9546 C   0  0  0  0  0  0  0  0  0  0  0  0
    6.2330  -11.4416    4.9435 C   0  0  0  0  0  0  0  0  0  0  0  0
    6.8651  -11.7254    3.7091 C   0  0  0  0  0  0  0  0  0  0  0  0
    6.3681  -11.2126    2.4753 C   0  0  0  0  0  0  0  0  0  0  0  0
    6.9838  -11.5166    1.2907 O   0  0  0  0  0  0  0  0  0  0  0  0
    5.2064  -10.4009    2.4804 C   0  0  0  0  0  0  0  0  0  0  0  0
    4.6193   -9.7075    1.4467 O   0  0  0  0  0  0  0  0  0  0  0  0
    3.5465   -8.9473    2.0092 C   0  0  2  0  0  0  0  0  0  0  0  0
    4.0223   -7.5449    2.0944 C   0  0  0  0  0  0  0  0  0  0  0  0
    4.3320   -6.7595    0.9983 N   0  0  0  0  0  0  0  0  0  0  0  0
    4.7232   -5.5008    1.4122 C   0  0  0  0  0  0  0  0  0  0  0  0
    5.1200   -4.3492    0.7019 C   0  0  0  0  0  0  0  0  0  0  0  0
    5.4675   -3.1759    1.4021 C   0  0  0  0  0  0  0  0  0  0  0  0
    5.4069   -3.1693    2.8086 C   0  0  0  0  0  0  0  0  0  0  0  0
    5.0079   -4.3287    3.5128 C   0  0  0  0  0  0  0  0  0  0  0  0
    4.6550   -5.5214    2.8346 C   0  0  0  0  0  0  0  0  0  0  0  0
    4.2123   -6.8272    3.2401 C   0  0  0  0  0  0  0  0  0  0  0  0
    3.9697   -7.3845    4.6115 C   0  0  0  0  0  0  0  0  0  0  0  0
    2.9811   -8.5819    4.5734 C   0  0  2  0  0  0  0  0  0  0  0  0
    2.9322   -9.4456    5.8625 C   0  0  2  0  0  0  0  0  0  0  0  0
    4.2742  -10.1532    6.1523 C   0  0  0  0  0  0  0  0  0  0  0  0
    4.2774   -7.0827    0.0437 H   0  0  0  0  0  0  0  0  0  0  0  0
    0.1680   -9.2670    5.1731 H   0  0  0  0  0  0  0  0  0  0  0  0
    0.4519   -9.2967    6.9181 H   0  0  0  0  0  0  0  0  0  0  0  0
   -0.1808  -10.7092    6.1174 H   0  0  0  0  0  0  0  0  0  0  0  0
    2.7028  -12.0597    4.7228 H   0  0  0  0  0  0  0  0  0  0  0  0
    0.9976  -11.9580    4.5556 H   0  0  0  0  0  0  0  0  0  0  0  0
    2.2240  -11.2496    2.4958 H   0  0  0  0  0  0  0  0  0  0  0  0
    1.1564  -10.0048    3.0888 H   0  0  0  0  0  0  0  0  0  0  0  0
    6.6552  -11.7803    5.8815 H   0  0  0  0  0  0  0  0  0  0  0  0
    7.7661  -12.3188    3.7074 H   0  0  0  0  0  0  0  0  0  0  0  0
    2.6821   -9.0034    1.3467 H   0  0  0  0  0  0  0  0  0  0  0  0
    5.1535   -4.3722   -0.3748 H   0  0  0  0  0  0  0  0  0  0  0  0
    5.7800   -2.2893    0.8627 H   0  0  0  0  0  0  0  0  0  0  0  0
    5.6798   -2.2755    3.3558 H   0  0  0  0  0  0  0  0  0  0  0  0
    4.9718   -4.3104    4.5913 H   0  0  0  0  0  0  0  0  0  0  0  0
    4.9260   -7.6943    5.0283 H   0  0  0  0  0  0  0  0  0  0  0  0
    3.5956   -6.6075    5.2764 H   0  0  0  0  0  0  0  0  0  0  0  0
    2.0062   -8.1308    4.3952 H   0  0  0  0  0  0  0  0  0  0  0  0
    2.7221   -8.8064    6.7158 H   0  0  0  0  0  0  0  0  0  0  0  0
    4.1431  -10.9557    6.8743 H   0  0  0  0  0  0  0  0  0  0  0  0
    4.9465   -9.4371    6.6239 H   0  0  0  0  0  0  0  0  0  0  0  0
    1.9300  -11.0927    6.5620 H   0  0  0  0  0  0  0  0  0  0  0  0
  1  2  1  0
  1 29  1  0
  1 30  1  0
  1 31  1  0
  2 26  1  0
  2  3  1  0
  2 49  1  1
  3  4  1  0
  3 32  1  0
  3 33  1  0
  5  4  1  6
  4 34  1  0
  4 35  1  0
  5 14  1  0
  5 25  1  0
  5  6  1  0
  6 12  2  0
  6  7  1  0
  7 27  1  0
  7  8  2  0
  8  9  1  0
  8 36  1  0
  9 10  2  0
  9 37  1  0
 10 11  1  0
 10 12  1  0
 12 13  1  0
 13 14  1  0
 14 15  1  0
 14 38  1  6
 15 23  2  0
 15 16  1  0
 16 28  1  0
 16 17  1  0
 17 22  2  0
 17 18  1  0
 18 19  2  0
 18 39  1  0
 19 20  1  0
 19 40  1  0
 20 21  2  0
 20 41  1  0
 21 22  1  0
 21 42  1  0
 22 23  1  0
 23 24  1  0
 24 25  1  0
 24 43  1  0
 24 44  1  0
 25 26  1  0
 25 45  1  6
 26 27  1  0
 26 46  1  1
 27 47  1  0
 27 48  1  0
M  CHG  2   2   1  11  -1
M  END
>  <i_m_ct_stereo_status>  (173) 
1

>  <s_m_source_file>  (173) 
/var/tmp/pbs.5076255.sched01/tmprtix0sri/443g93ja_l.sdf

>  <i_m_source_file_index>  (173) 
34

>  <i_lp_mmshare_version>  (173) 
48012

>  <i_f3d_flags>  (173) 
0

>  <s_epik_input>  (173) 
W0NIMl0xW0NIMl1OKFtDSDNdKVtDQEBIXShbQ0gyXTIpW0NASF0zW0NIMl1jKGM0YyhbbkhdNSlbY0hdW2NIXVtjSF1bY0hdNCljNVtDQEhdNk9jN2MoW09IXSlbY0hdW2NIXWMyYzdbQ0BAXTEzNg==

>  <s_epik_cmdline>  (173) 
J2VwaWtfcHl0aG9uJywgJy1waHQnLCAnMi4wJywgJy1waCcsICc3LjAnLCAnLXRuJywgJzgnLCAnLW1hJywgJzIwMCcsICctaW1hZScsICc8aW5maWxlLm1hZT4nLCAnLW9tYWUnLCAnPG91dGZpbGUubWFlPic=

>  <r_epik_Ionization_Penalty>  (173) 
2.25743

>  <r_epik_Ionization_Penalty_Charging>  (173) 
2.25743

>  <r_epik_Ionization_Penalty_Neutral>  (173) 
3.72932e-10

>  <r_epik_State_Penalty>  (173) 
2.39953

>  <r_epik_Charging_Adjusted_Penalty>  (173) 
4.65695

>  <i_epik_Tot_Q>  (173) 
0

>  <i_epik_Tot_abs_Q>  (173) 
2

>  <s_lp_Force_Field>  (173) 
OPLS3e

>  <r_lp_Energy>  (173) 
59.3429

>  <b_lp_Chiralities_Consistent>  (173) 
1

>  <s_lp_Variant>  (173) 
54:0-3

>  <s_i_glide_gridfile>  (173) 
pfpi4k_grid

>  <i_i_glide_lignum>  (173) 
34

>  <i_i_glide_rotatable_bonds>  (173) 
0

>  <r_i_docking_score>  (173) 
-3.45109

>  <r_i_glide_ligand_efficiency>  (173) 
-0.127818

>  <r_i_glide_ligand_efficiency_sa>  (173) 
-0.383454

>  <r_i_glide_ligand_efficiency_ln>  (173) 
-0.803357

>  <r_i_glide_gscore>  (173) 
-3.45109

>  <r_i_glide_lipo>  (173) 
-0.27133

>  <r_i_glide_hbond>  (173) 
-0.357341

>  <r_i_glide_metal>  (173) 
-0

>  <r_i_glide_rewards>  (173) 
-0.96523

>  <r_i_glide_evdw>  (173) 
-17.2561

>  <r_i_glide_ecoul>  (173) 
-6.01049

>  <r_i_glide_erotb>  (173) 
0

>  <r_i_glide_esite>  (173) 
-0.0928109

>  <r_i_glide_emodel>  (173) 
-31.239

>  <r_i_glide_energy>  (173) 
-23.2666

>  <r_i_glide_einternal>  (173) 
0

>  <r_i_glide_intrahb_reward>  (173) 
-0

>  <i_i_glide_confnum>  (173) 
1

>  <i_i_glide_posenum>  (173) 
24

>  <r_i_glide_eff_state_penalty>  (173) 
0

>  <ligand_id>  (173) 
54

>  <original_smiles>  (173) 
CN1CCC23c4c5ccc(O)c4OC2c2[nH]c4ccccc4c2CC3C1C5

>  <smiles>  (173) 
[H]c1c([H])c2c3c(c1[O-])OC1([H])c4c(c5c([H])c([H])c([H])c([H])c5n4[H])C([H])([H])C4([H])C31C([H])([H])C([H])([H])[N+]([H])(C([H])([H])[H])C4([H])C2([H])[H]

$$$$
54:2:1
     RDKit          3D

 49 55  0  0  1  0  0  0  0  0999 V2000
    0.2849  -10.0697    6.0063 C   0  0  0  0  0  0  0  0  0  0  0  0
    1.7190  -10.2460    5.6835 N   0  0  1  0  0  0  0  0  0  0  0  0
    1.9287  -11.0710    4.4666 C   0  0  0  0  0  0  0  0  0  0  0  0
    1.7801  -10.2359    3.1860 C   0  0  0  0  0  0  0  0  0  0  0  0
    2.6520   -8.9605    3.2161 C   0  0  1  0  0  0  0  0  0  0  0  0
    4.1066   -9.2970    3.3761 C   0  0  0  0  0  0  0  0  0  0  0  0
    4.7823   -9.5752    4.5821 C   0  0  0  0  0  0  0  0  0  0  0  0
    6.1309   -9.9534    4.4724 C   0  0  0  0  0  0  0  0  0  0  0  0
    6.7206  -10.0381    3.1879 C   0  0  0  0  0  0  0  0  0  0  0  0
    6.0065   -9.6739    2.0253 C   0  0  0  0  0  0  0  0  0  0  0  0
    6.6207   -9.7226    0.8232 O   0  0  0  0  0  0  0  0  0  0  0  0
    4.6635   -9.2484    2.1168 C   0  0  0  0  0  0  0  0  0  0  0  0
    3.8267   -8.7667    1.1443 O   0  0  0  0  0  0  0  0  0  0  0  0
    2.6427   -8.2924    1.8058 C   0  0  2  0  0  0  0  0  0  0  0  0
    2.7196   -6.8022    1.9002 C   0  0  0  0  0  0  0  0  0  0  0  0
    2.7139   -5.9479    0.8119 N   0  0  0  0  0  0  0  0  0  0  0  0
    2.7847   -4.6356    1.2320 C   0  0  0  0  0  0  0  0  0  0  0  0
    2.7955   -3.4189    0.5289 C   0  0  0  0  0  0  0  0  0  0  0  0
    2.8562   -2.2033    1.2346 C   0  0  0  0  0  0  0  0  0  0  0  0
    2.9081   -2.2194    2.6416 C   0  0  0  0  0  0  0  0  0  0  0  0
    2.8966   -3.4456    3.3383 C   0  0  0  0  0  0  0  0  0  0  0  0
    2.8316   -4.6834    2.6562 C   0  0  0  0  0  0  0  0  0  0  0  0
    2.7936   -6.0653    3.0504 C   0  0  0  0  0  0  0  0  0  0  0  0
    2.8265   -6.6807    4.4206 C   0  0  0  0  0  0  0  0  0  0  0  0
    2.2036   -8.1058    4.4202 C   0  0  2  0  0  0  0  0  0  0  0  0
    2.4983   -8.9624    5.6911 C   0  0  2  0  0  0  0  0  0  0  0  0
    4.0082   -9.2654    5.8549 C   0  0  0  0  0  0  0  0  0  0  0  0
    2.7016   -6.2619   -0.1496 H   0  0  0  0  0  0  0  0  0  0  0  0
   -0.2388   -9.5362    5.2102 H   0  0  0  0  0  0  0  0  0  0  0  0
    0.1617   -9.5171    6.9395 H   0  0  0  0  0  0  0  0  0  0  0  0
   -0.1806  -11.0444    6.1294 H   0  0  0  0  0  0  0  0  0  0  0  0
    2.9184  -11.5249    4.4951 H   0  0  0  0  0  0  0  0  0  0  0  0
    1.2287  -11.9071    4.4558 H   0  0  0  0  0  0  0  0  0  0  0  0
    2.0540  -10.8516    2.3293 H   0  0  0  0  0  0  0  0  0  0  0  0
    0.7310   -9.9630    3.0411 H   0  0  0  0  0  0  0  0  0  0  0  0
    6.7108  -10.1620    5.3607 H   0  0  0  0  0  0  0  0  0  0  0  0
    7.7447  -10.3514    3.1003 H   0  0  0  0  0  0  0  0  0  0  0  0
    1.7610   -8.5678    1.2274 H   0  0  0  0  0  0  0  0  0  0  0  0
    2.7406   -3.4134   -0.5483 H   0  0  0  0  0  0  0  0  0  0  0  0
    2.8480   -1.2651    0.6942 H   0  0  0  0  0  0  0  0  0  0  0  0
    2.9563   -1.2884    3.1876 H   0  0  0  0  0  0  0  0  0  0  0  0
    2.9366   -3.4468    4.4148 H   0  0  0  0  0  0  0  0  0  0  0  0
    3.8628   -6.7196    4.7586 H   0  0  0  0  0  0  0  0  0  0  0  0
    2.3057   -6.0425    5.1331 H   0  0  0  0  0  0  0  0  0  0  0  0
    1.1298   -7.9438    4.3292 H   0  0  0  0  0  0  0  0  0  0  0  0
    2.1860   -8.4051    6.5770 H   0  0  0  0  0  0  0  0  0  0  0  0
    4.1608  -10.0782    6.5636 H   0  0  0  0  0  0  0  0  0  0  0  0
    4.4827   -8.3880    6.2947 H   0  0  0  0  0  0  0  0  0  0  0  0
    2.0602  -10.8241    6.4458 H   0  0  0  0  0  0  0  0  0  0  0  0
  1  2  1  0
  1 29  1  0
  1 30  1  0
  1 31  1  0
  2 26  1  0
  2  3  1  0
  2 49  1  1
  3  4  1  0
  3 32  1  0
  3 33  1  0
  5  4  1  6
  4 34  1  0
  4 35  1  0
  5 14  1  0
  5 25  1  0
  5  6  1  0
  6 12  2  0
  6  7  1  0
  7 27  1  0
  7  8  2  0
  8  9  1  0
  8 36  1  0
  9 10  2  0
  9 37  1  0
 10 11  1  0
 10 12  1  0
 12 13  1  0
 13 14  1  0
 14 15  1  0
 14 38  1  6
 15 23  2  0
 15 16  1  0
 16 28  1  0
 16 17  1  0
 17 22  2  0
 17 18  1  0
 18 19  2  0
 18 39  1  0
 19 20  1  0
 19 40  1  0
 20 21  2  0
 20 41  1  0
 21 22  1  0
 21 42  1  0
 22 23  1  0
 23 24  1  0
 24 25  1  0
 24 43  1  0
 24 44  1  0
 25 26  1  0
 25 45  1  6
 26 27  1  0
 26 46  1  1
 27 47  1  0
 27 48  1  0
M  CHG  2   2   1  11  -1
M  END
>  <i_m_ct_stereo_status>  (174) 
1

>  <s_m_source_file>  (174) 
/var/tmp/pbs.5076255.sched01/tmprtix0sri/443g93ja_l.sdf

>  <i_m_source_file_index>  (174) 
34

>  <i_lp_mmshare_version>  (174) 
48012

>  <i_f3d_flags>  (174) 
0

>  <s_epik_input>  (174) 
W0NIMl0xW0NIMl1OKFtDSDNdKVtDQEBIXShbQ0gyXTIpW0NASF0zW0NIMl1jKGM0YyhbbkhdNSlbY0hdW2NIXVtjSF1bY0hdNCljNVtDQEhdNk9jN2MoW09IXSlbY0hdW2NIXWMyYzdbQ0BAXTEzNg==

>  <s_epik_cmdline>  (174) 
J2VwaWtfcHl0aG9uJywgJy1waHQnLCAnMi4wJywgJy1waCcsICc3LjAnLCAnLXRuJywgJzgnLCAnLW1hJywgJzIwMCcsICctaW1hZScsICc8aW5maWxlLm1hZT4nLCAnLW9tYWUnLCAnPG91dGZpbGUubWFlPic=

>  <r_epik_Ionization_Penalty>  (174) 
2.25743

>  <r_epik_Ionization_Penalty_Charging>  (174) 
2.25743

>  <r_epik_Ionization_Penalty_Neutral>  (174) 
3.72932e-10

>  <r_epik_State_Penalty>  (174) 
2.39953

>  <r_epik_Charging_Adjusted_Penalty>  (174) 
4.65695

>  <i_epik_Tot_Q>  (174) 
0

>  <i_epik_Tot_abs_Q>  (174) 
2

>  <s_lp_Force_Field>  (174) 
OPLS3e

>  <r_lp_Energy>  (174) 
59.3429

>  <b_lp_Chiralities_Consistent>  (174) 
1

>  <s_lp_Variant>  (174) 
54:0-3

>  <s_i_glide_gridfile>  (174) 
pfpi4k_grid

>  <i_i_glide_lignum>  (174) 
34

>  <i_i_glide_rotatable_bonds>  (174) 
0

>  <r_i_docking_score>  (174) 
-3.07203

>  <r_i_glide_ligand_efficiency>  (174) 
-0.113779

>  <r_i_glide_ligand_efficiency_sa>  (174) 
-0.341336

>  <r_i_glide_ligand_efficiency_ln>  (174) 
-0.715117

>  <r_i_glide_gscore>  (174) 
-3.07203

>  <r_i_glide_lipo>  (174) 
-0.0795476

>  <r_i_glide_hbond>  (174) 
-0.131738

>  <r_i_glide_metal>  (174) 
-0

>  <r_i_glide_rewards>  (174) 
-0.96523

>  <r_i_glide_evdw>  (174) 
-19.3293

>  <r_i_glide_ecoul>  (174) 
-5.50143

>  <r_i_glide_erotb>  (174) 
0

>  <r_i_glide_esite>  (174) 
-0.103835

>  <r_i_glide_emodel>  (174) 
-31.9594

>  <r_i_glide_energy>  (174) 
-24.8307

>  <r_i_glide_einternal>  (174) 
0

>  <r_i_glide_intrahb_reward>  (174) 
-0

>  <i_i_glide_confnum>  (174) 
2

>  <i_i_glide_posenum>  (174) 
30

>  <r_i_glide_eff_state_penalty>  (174) 
0

>  <ligand_id>  (174) 
54

>  <original_smiles>  (174) 
CN1CCC23c4c5ccc(O)c4OC2c2[nH]c4ccccc4c2CC3C1C5

>  <smiles>  (174) 
[H]c1c([H])c2c3c(c1[O-])OC1([H])c4c(c5c([H])c([H])c([H])c([H])c5n4[H])C([H])([H])C4([H])C31C([H])([H])C([H])([H])[N+]([H])(C([H])([H])[H])C4([H])C2([H])[H]

$$$$
54:2:2
     RDKit          3D

 49 55  0  0  1  0  0  0  0  0999 V2000
    3.5064   -1.6167   -1.0916 C   0  0  0  0  0  0  0  0  0  0  0  0
    4.5072   -2.5738   -0.5712 N   0  0  1  0  0  0  0  0  0  0  0  0
    5.1602   -2.0835    0.6715 C   0  0  0  0  0  0  0  0  0  0  0  0
    4.3018   -2.3730    1.9117 C   0  0  0  0  0  0  0  0  0  0  0  0
    3.8725   -3.8591    1.9819 C   0  0  1  0  0  0  0  0  0  0  0  0
    5.0649   -4.7748    2.0333 C   0  0  0  0  0  0  0  0  0  0  0  0
    5.8158   -5.2262    0.9333 C   0  0  0  0  0  0  0  0  0  0  0  0
    6.9494   -6.0035    1.2348 C   0  0  0  0  0  0  0  0  0  0  0  0
    7.2644   -6.2860    2.5860 C   0  0  0  0  0  0  0  0  0  0  0  0
    6.4215   -5.8614    3.6431 C   0  0  0  0  0  0  0  0  0  0  0  0
    6.7332   -6.1803    4.9333 O   0  0  0  0  0  0  0  0  0  0  0  0
    5.2557   -5.1121    3.3564 C   0  0  0  0  0  0  0  0  0  0  0  0
    4.2641   -4.6805    4.1959 O   0  0  0  0  0  0  0  0  0  0  0  0
    3.2156   -4.1462    3.3649 C   0  0  2  0  0  0  0  0  0  0  0  0
    2.1282   -5.1652    3.2528 C   0  0  0  0  0  0  0  0  0  0  0  0
    1.3543   -5.5892    4.3168 N   0  0  0  0  0  0  0  0  0  0  0  0
    0.4193   -6.5105    3.8916 C   0  0  0  0  0  0  0  0  0  0  0  0
   -0.5876   -7.2170    4.5716 C   0  0  0  0  0  0  0  0  0  0  0  0
   -1.4133   -8.1104    3.8644 C   0  0  0  0  0  0  0  0  0  0  0  0
   -1.2303   -8.2736    2.4796 C   0  0  0  0  0  0  0  0  0  0  0  0
   -0.2249   -7.5523    1.8033 C   0  0  0  0  0  0  0  0  0  0  0  0
    0.6281   -6.6577    2.4895 C   0  0  0  0  0  0  0  0  0  0  0  0
    1.7157   -5.7981    2.1123 C   0  0  0  0  0  0  0  0  0  0  0  0
    2.3405   -5.5617    0.7682 C   0  0  0  0  0  0  0  0  0  0  0  0
    3.0426   -4.1768    0.7120 C   0  0  2  0  0  0  0  0  0  0  0  0
    4.0067   -3.9831   -0.4917 C   0  0  2  0  0  0  0  0  0  0  0  0
    5.2071   -4.9574   -0.4401 C   0  0  0  0  0  0  0  0  0  0  0  0
    1.4930   -5.2680    5.2634 H   0  0  0  0  0  0  0  0  0  0  0  0
    2.7083   -1.4807   -0.3640 H   0  0  0  0  0  0  0  0  0  0  0  0
    3.0762   -1.9582   -2.0342 H   0  0  0  0  0  0  0  0  0  0  0  0
    3.9701   -0.6466   -1.2676 H   0  0  0  0  0  0  0  0  0  0  0  0
    6.1381   -2.5516    0.7860 H   0  0  0  0  0  0  0  0  0  0  0  0
    5.3644   -1.0138    0.5997 H   0  0  0  0  0  0  0  0  0  0  0  0
    4.8551   -2.0915    2.8100 H   0  0  0  0  0  0  0  0  0  0  0  0
    3.4150   -1.7325    1.8985 H   0  0  0  0  0  0  0  0  0  0  0  0
    7.5619   -6.3963    0.4380 H   0  0  0  0  0  0  0  0  0  0  0  0
    8.1468   -6.8649    2.8037 H   0  0  0  0  0  0  0  0  0  0  0  0
    2.8108   -3.2441    3.8246 H   0  0  0  0  0  0  0  0  0  0  0  0
   -0.7079   -7.0897    5.6336 H   0  0  0  0  0  0  0  0  0  0  0  0
   -2.1707   -8.6853    4.3828 H   0  0  0  0  0  0  0  0  0  0  0  0
   -1.8429   -8.9768    1.9328 H   0  0  0  0  0  0  0  0  0  0  0  0
   -0.0846   -7.7113    0.7463 H   0  0  0  0  0  0  0  0  0  0  0  0
    3.0571   -6.3615    0.5753 H   0  0  0  0  0  0  0  0  0  0  0  0
    1.5964   -5.6381   -0.0248 H   0  0  0  0  0  0  0  0  0  0  0  0
    2.2338   -3.4480    0.6452 H   0  0  0  0  0  0  0  0  0  0  0  0
    3.4725   -4.1790   -1.4257 H   0  0  0  0  0  0  0  0  0  0  0  0
    5.9894   -4.6073   -1.1069 H   0  0  0  0  0  0  0  0  0  0  0  0
    4.8869   -5.9211   -0.8333 H   0  0  0  0  0  0  0  0  0  0  0  0
    5.2351   -2.5895   -1.2702 H   0  0  0  0  0  0  0  0  0  0  0  0
  1  2  1  0
  1 29  1  0
  1 30  1  0
  1 31  1  0
  2 26  1  0
  2  3  1  0
  2 49  1  6
  3  4  1  0
  3 32  1  0
  3 33  1  0
  5  4  1  1
  4 34  1  0
  4 35  1  0
  5 14  1  0
  5 25  1  0
  5  6  1  0
  6 12  2  0
  6  7  1  0
  7 27  1  0
  7  8  2  0
  8  9  1  0
  8 36  1  0
  9 10  2  0
  9 37  1  0
 10 11  1  0
 10 12  1  0
 12 13  1  0
 13 14  1  0
 14 15  1  0
 14 38  1  1
 15 23  2  0
 15 16  1  0
 16 28  1  0
 16 17  1  0
 17 22  2  0
 17 18  1  0
 18 19  2  0
 18 39  1  0
 19 20  1  0
 19 40  1  0
 20 21  2  0
 20 41  1  0
 21 22  1  0
 21 42  1  0
 22 23  1  0
 23 24  1  0
 24 25  1  0
 24 43  1  0
 24 44  1  0
 25 26  1  0
 25 45  1  6
 26 27  1  0
 26 46  1  6
 27 47  1  0
 27 48  1  0
M  CHG  2   2   1  11  -1
M  END
>  <i_m_ct_stereo_status>  (175) 
1

>  <s_m_source_file>  (175) 
/var/tmp/pbs.5076255.sched01/tmprtix0sri/443g93ja_l.sdf

>  <i_m_source_file_index>  (175) 
34

>  <i_lp_mmshare_version>  (175) 
48012

>  <i_f3d_flags>  (175) 
0

>  <s_epik_input>  (175) 
W0NIMl0xW0NIMl1OKFtDSDNdKVtDQEBIXShbQ0gyXTIpW0NASF0zW0NIMl1jKGM0YyhbbkhdNSlbY0hdW2NIXVtjSF1bY0hdNCljNVtDQEhdNk9jN2MoW09IXSlbY0hdW2NIXWMyYzdbQ0BAXTEzNg==

>  <s_epik_cmdline>  (175) 
J2VwaWtfcHl0aG9uJywgJy1waHQnLCAnMi4wJywgJy1waCcsICc3LjAnLCAnLXRuJywgJzgnLCAnLW1hJywgJzIwMCcsICctaW1hZScsICc8aW5maWxlLm1hZT4nLCAnLW9tYWUnLCAnPG91dGZpbGUubWFlPic=

>  <r_epik_Ionization_Penalty>  (175) 
2.25743

>  <r_epik_Ionization_Penalty_Charging>  (175) 
2.25743

>  <r_epik_Ionization_Penalty_Neutral>  (175) 
3.72932e-10

>  <r_epik_State_Penalty>  (175) 
2.39953

>  <r_epik_Charging_Adjusted_Penalty>  (175) 
4.65695

>  <i_epik_Tot_Q>  (175) 
0

>  <i_epik_Tot_abs_Q>  (175) 
2

>  <s_lp_Force_Field>  (175) 
OPLS3e

>  <r_lp_Energy>  (175) 
59.3429

>  <b_lp_Chiralities_Consistent>  (175) 
1

>  <s_lp_Variant>  (175) 
54:0-3

>  <s_i_glide_gridfile>  (175) 
pfpi4k_grid

>  <i_i_glide_lignum>  (175) 
34

>  <i_i_glide_rotatable_bonds>  (175) 
0

>  <r_i_docking_score>  (175) 
-2.92327

>  <r_i_glide_ligand_efficiency>  (175) 
-0.108269

>  <r_i_glide_ligand_efficiency_sa>  (175) 
-0.324808

>  <r_i_glide_ligand_efficiency_ln>  (175) 
-0.680489

>  <r_i_glide_gscore>  (175) 
-2.92327

>  <r_i_glide_lipo>  (175) 
-0.274529

>  <r_i_glide_hbond>  (175) 
0

>  <r_i_glide_metal>  (175) 
-0

>  <r_i_glide_rewards>  (175) 
-0.96523

>  <r_i_glide_evdw>  (175) 
-22.988

>  <r_i_glide_ecoul>  (175) 
-3.46104

>  <r_i_glide_erotb>  (175) 
0

>  <r_i_glide_esite>  (175) 
-0.0149568

>  <r_i_glide_emodel>  (175) 
-33.2425

>  <r_i_glide_energy>  (175) 
-26.449

>  <r_i_glide_einternal>  (175) 
0

>  <r_i_glide_intrahb_reward>  (175) 
-0

>  <i_i_glide_confnum>  (175) 
1

>  <i_i_glide_posenum>  (175) 
5

>  <r_i_glide_eff_state_penalty>  (175) 
0

>  <ligand_id>  (175) 
54

>  <original_smiles>  (175) 
CN1CCC23c4c5ccc(O)c4OC2c2[nH]c4ccccc4c2CC3C1C5

>  <smiles>  (175) 
[H]c1c([H])c2c3c(c1[O-])OC1([H])c4c(c5c([H])c([H])c([H])c([H])c5n4[H])C([H])([H])C4([H])C31C([H])([H])C([H])([H])[N+]([H])(C([H])([H])[H])C4([H])C2([H])[H]

$$$$
55:0:0
     RDKit          3D

 43 46  0  0  1  0  0  0  0  0999 V2000
   -0.2563   -5.8966    5.3765 C   0  0  0  0  0  0  0  0  0  0  0  0
    0.8008   -6.7362    4.6477 C   0  0  0  0  0  0  0  0  0  0  0  0
    0.6756   -6.6760    3.1892 N   0  0  0  0  0  0  0  0  0  0  0  0
   -0.2580   -7.4516    2.5816 N   0  0  0  0  0  0  0  0  0  0  0  0
   -0.0407   -7.2321    1.2888 C   0  0  0  0  0  0  0  0  0  0  0  0
    0.8784   -6.2709    1.0071 N   0  0  0  0  0  0  0  0  0  0  0  0
    1.3177   -5.9692    2.2363 C   0  0  0  0  0  0  0  0  0  0  0  0
    2.3476   -4.9221    2.5418 C   0  0  0  0  0  0  0  0  0  0  0  0
    2.6498   -4.5792    3.6822 O   0  0  0  0  0  0  0  0  0  0  0  0
    2.8824   -4.3694    1.4471 N   0  0  0  0  0  0  0  0  0  0  0  0
    3.8701   -3.2892    1.4140 C   0  0  2  0  0  0  0  0  0  0  0  0
    3.4284   -2.1946    0.4180 C   0  0  1  0  0  0  0  0  0  0  0  0
    4.4583   -1.0458    0.4606 C   0  0  0  0  0  0  0  0  0  0  0  0
    5.8427   -1.5811    0.0423 C   0  0  1  0  0  0  0  0  0  0  0  0
    6.2824   -2.6862    1.0263 C   0  0  0  0  0  0  0  0  0  0  0  0
    5.2547   -3.8361    0.9948 C   0  0  2  0  0  0  0  0  0  0  0  0
    5.1809   -4.4204   -0.4363 C   0  0  0  0  0  0  0  0  0  0  0  0
    4.7344   -3.3165   -1.4226 C   0  0  2  0  0  0  0  0  0  0  0  0
    4.6550   -3.8536   -2.7298 O   0  0  0  0  0  0  0  0  0  0  0  0
    5.7598   -2.1598   -1.3912 C   0  0  0  0  0  0  0  0  0  0  0  0
    3.3447   -2.7833   -1.0118 C   0  0  0  0  0  0  0  0  0  0  0  0
   -0.0941   -5.9499    6.4493 H   0  0  0  0  0  0  0  0  0  0  0  0
   -1.2660   -6.2588    5.1762 H   0  0  0  0  0  0  0  0  0  0  0  0
   -0.2054   -4.8434    5.0882 H   0  0  0  0  0  0  0  0  0  0  0  0
    1.7984   -6.4332    4.9618 H   0  0  0  0  0  0  0  0  0  0  0  0
    0.7242   -7.7767    4.9471 H   0  0  0  0  0  0  0  0  0  0  0  0
   -0.6225   -7.7398    0.5358 H   0  0  0  0  0  0  0  0  0  0  0  0
    2.5658   -4.7393    0.5611 H   0  0  0  0  0  0  0  0  0  0  0  0
    3.9561   -2.8296    2.4027 H   0  0  0  0  0  0  0  0  0  0  0  0
    2.4518   -1.8082    0.7135 H   0  0  0  0  0  0  0  0  0  0  0  0
    4.1512   -0.2392   -0.2021 H   0  0  0  0  0  0  0  0  0  0  0  0
    4.5073   -0.6219    1.4646 H   0  0  0  0  0  0  0  0  0  0  0  0
    6.5620   -0.7623    0.0751 H   0  0  0  0  0  0  0  0  0  0  0  0
    7.2706   -3.0586    0.7609 H   0  0  0  0  0  0  0  0  0  0  0  0
    6.3665   -2.2811    2.0356 H   0  0  0  0  0  0  0  0  0  0  0  0
    5.5663   -4.6136    1.6949 H   0  0  0  0  0  0  0  0  0  0  0  0
    6.1593   -4.8041   -0.7148 H   0  0  0  0  0  0  0  0  0  0  0  0
    4.5006   -5.2725   -0.4765 H   0  0  0  0  0  0  0  0  0  0  0  0
    4.0355   -4.5727   -2.7197 H   0  0  0  0  0  0  0  0  0  0  0  0
    5.4683   -1.3780   -2.0941 H   0  0  0  0  0  0  0  0  0  0  0  0
    6.7398   -2.5187   -1.7072 H   0  0  0  0  0  0  0  0  0  0  0  0
    2.6074   -3.5852   -1.0586 H   0  0  0  0  0  0  0  0  0  0  0  0
    2.9956   -2.0177   -1.7050 H   0  0  0  0  0  0  0  0  0  0  0  0
  1  2  1  0
  1 22  1  0
  1 23  1  0
  1 24  1  0
  2  3  1  0
  2 25  1  0
  2 26  1  0
  3  7  1  0
  3  4  1  0
  4  5  2  0
  5  6  1  0
  5 27  1  0
  6  7  2  0
  7  8  1  0
  8  9  2  0
  8 10  1  0
 10 11  1  0
 10 28  1  0
 11 16  1  0
 11 12  1  0
 11 29  1  1
 12 21  1  0
 12 13  1  0
 12 30  1  1
 13 14  1  0
 13 31  1  0
 13 32  1  0
 14 20  1  0
 14 15  1  0
 14 33  1  6
 15 16  1  0
 15 34  1  0
 15 35  1  0
 16 17  1  0
 16 36  1  1
 17 18  1  0
 17 37  1  0
 17 38  1  0
 18 19  1  6
 18 20  1  0
 18 21  1  0
 19 39  1  0
 20 40  1  0
 20 41  1  0
 21 42  1  0
 21 43  1  0
M  END
>  <i_m_ct_stereo_status>  (176) 
1

>  <s_m_source_file>  (176) 
/var/tmp/pbs.5076255.sched01/tmprtix0sri/443g93ja_l.sdf

>  <i_m_source_file_index>  (176) 
35

>  <i_lp_mmshare_version>  (176) 
48012

>  <i_f3d_flags>  (176) 
0

>  <s_epik_input>  (176) 
W0NIM11bQ0gyXW4xbltjSF1uYzFDKD1PKVtOSF1bQ0BIXShbQ0BIXShbQ0gyXTIpW0NIMl1bQ0BASF0oW0NIMl0zKVtDSDJdNClbQ0BIXTNbQ0gyXVtDQEBdMjRbT0hd

>  <s_epik_cmdline>  (176) 
J2VwaWtfcHl0aG9uJywgJy1waHQnLCAnMi4wJywgJy1waCcsICc3LjAnLCAnLXRuJywgJzgnLCAnLW1hJywgJzIwMCcsICctaW1hZScsICc8aW5maWxlLm1hZT4nLCAnLW9tYWUnLCAnPG91dGZpbGUubWFlPic=

>  <r_lp_tautomer_probability>  (176) 
1

>  <r_epik_Ionization_Penalty>  (176) 
5.72389e-06

>  <r_epik_Ionization_Penalty_Charging>  (176) 
0

>  <r_epik_Ionization_Penalty_Neutral>  (176) 
5.72389e-06

>  <r_epik_State_Penalty>  (176) 
-0

>  <r_epik_Charging_Adjusted_Penalty>  (176) 
0

>  <i_epik_Tot_Q>  (176) 
0

>  <i_epik_Tot_abs_Q>  (176) 
0

>  <s_lp_Force_Field>  (176) 
OPLS3e

>  <r_lp_Energy>  (176) 
-3.65945

>  <b_lp_Chiralities_Consistent>  (176) 
1

>  <s_lp_Variant>  (176) 
55:0-1

>  <s_i_glide_gridfile>  (176) 
pfpi4k_grid

>  <i_i_glide_lignum>  (176) 
35

>  <i_i_glide_rotatable_bonds>  (176) 
5

>  <r_i_docking_score>  (176) 
-3.96603

>  <r_i_glide_ligand_efficiency>  (176) 
-0.188858

>  <r_i_glide_ligand_efficiency_sa>  (176) 
-0.521046

>  <r_i_glide_ligand_efficiency_ln>  (176) 
-0.980592

>  <r_i_glide_gscore>  (176) 
-3.96603

>  <r_i_glide_lipo>  (176) 
-0.258913

>  <r_i_glide_hbond>  (176) 
-0.48

>  <r_i_glide_metal>  (176) 
-0

>  <r_i_glide_rewards>  (176) 
-1.42936

>  <r_i_glide_evdw>  (176) 
-21.2538

>  <r_i_glide_ecoul>  (176) 
-7.80601

>  <r_i_glide_erotb>  (176) 
0.64846

>  <r_i_glide_esite>  (176) 
-0.212625

>  <r_i_glide_emodel>  (176) 
-35.7373

>  <r_i_glide_energy>  (176) 
-29.0598

>  <r_i_glide_einternal>  (176) 
0.418931

>  <r_i_glide_intrahb_reward>  (176) 
-0

>  <i_i_glide_confnum>  (176) 
1

>  <i_i_glide_posenum>  (176) 
38

>  <r_i_glide_eff_state_penalty>  (176) 
0

>  <ligand_id>  (176) 
55

>  <original_smiles>  (176) 
CCn1ncnc1C(=O)NC1C2CC3CC1CC(O)(C3)C2

>  <smiles>  (176) 
[H]OC12C([H])([H])C3([H])C([H])([H])C([H])(C1([H])[H])C([H])(N([H])C(=O)c1nc([H])nn1C([H])([H])C([H])([H])[H])C([H])(C3([H])[H])C2([H])[H]

$$$$
55:0:1
     RDKit          3D

 43 46  0  0  1  0  0  0  0  0999 V2000
    3.9535   -9.3470    2.3547 C   0  0  0  0  0  0  0  0  0  0  0  0
    3.0897   -8.4533    3.2576 C   0  0  0  0  0  0  0  0  0  0  0  0
    2.0404   -7.7424    2.5272 N   0  0  0  0  0  0  0  0  0  0  0  0
    0.8894   -8.3968    2.2418 N   0  0  0  0  0  0  0  0  0  0  0  0
    0.1651   -7.4874    1.6003 C   0  0  0  0  0  0  0  0  0  0  0  0
    0.7584   -6.2649    1.4307 N   0  0  0  0  0  0  0  0  0  0  0  0
    1.9301   -6.4842    2.0451 C   0  0  0  0  0  0  0  0  0  0  0  0
    2.9766   -5.4346    2.2421 C   0  0  0  0  0  0  0  0  0  0  0  0
    3.7852   -5.4420    3.1722 O   0  0  0  0  0  0  0  0  0  0  0  0
    2.9602   -4.4940    1.2919 N   0  0  0  0  0  0  0  0  0  0  0  0
    3.8443   -3.3410    1.2261 C   0  0  2  0  0  0  0  0  0  0  0  0
    3.2712   -2.3069    0.2343 C   0  0  1  0  0  0  0  0  0  0  0  0
    4.1766   -1.0572    0.2467 C   0  0  0  0  0  0  0  0  0  0  0  0
    5.5951   -1.4430   -0.2132 C   0  0  1  0  0  0  0  0  0  0  0  0
    6.1764   -2.4869    0.7612 C   0  0  0  0  0  0  0  0  0  0  0  0
    5.2717   -3.7379    0.7679 C   0  0  2  0  0  0  0  0  0  0  0  0
    5.2139   -4.3373   -0.6532 C   0  0  0  0  0  0  0  0  0  0  0  0
    4.6391   -3.2933   -1.6335 C   0  0  2  0  0  0  0  0  0  0  0  0
    4.6123   -3.8545   -2.9290 O   0  0  0  0  0  0  0  0  0  0  0  0
    5.5347   -2.0346   -1.6398 C   0  0  0  0  0  0  0  0  0  0  0  0
    3.2097   -2.9100   -1.1926 C   0  0  0  0  0  0  0  0  0  0  0  0
    4.7337   -9.8244    2.9487 H   0  0  0  0  0  0  0  0  0  0  0  0
    4.4480   -8.7723    1.5675 H   0  0  0  0  0  0  0  0  0  0  0  0
    3.3706  -10.1416    1.8825 H   0  0  0  0  0  0  0  0  0  0  0  0
    2.6149   -9.0559    4.0297 H   0  0  0  0  0  0  0  0  0  0  0  0
    3.7378   -7.7713    3.8023 H   0  0  0  0  0  0  0  0  0  0  0  0
   -0.8228   -7.7215    1.2279 H   0  0  0  0  0  0  0  0  0  0  0  0
    2.2913   -4.6317    0.5467 H   0  0  0  0  0  0  0  0  0  0  0  0
    3.8947   -2.8938    2.2229 H   0  0  0  0  0  0  0  0  0  0  0  0
    2.2692   -2.0224    0.5549 H   0  0  0  0  0  0  0  0  0  0  0  0
    3.7787   -0.2826   -0.4011 H   0  0  0  0  0  0  0  0  0  0  0  0
    4.2085   -0.6244    1.2478 H   0  0  0  0  0  0  0  0  0  0  0  0
    6.2149   -0.5474   -0.2126 H   0  0  0  0  0  0  0  0  0  0  0  0
    7.1915   -2.7544    0.4679 H   0  0  0  0  0  0  0  0  0  0  0  0
    6.2479   -2.0674    1.7658 H   0  0  0  0  0  0  0  0  0  0  0  0
    5.7024   -4.4718    1.4520 H   0  0  0  0  0  0  0  0  0  0  0  0
    6.2142   -4.6229   -0.9523 H   0  0  0  0  0  0  0  0  0  0  0  0
    4.6246   -5.2555   -0.6730 H   0  0  0  0  0  0  0  0  0  0  0  0
    4.0975   -4.6509   -2.8861 H   0  0  0  0  0  0  0  0  0  0  0  0
    5.1429   -1.2947   -2.3395 H   0  0  0  0  0  0  0  0  0  0  0  0
    6.5372   -2.2926   -1.9836 H   0  0  0  0  0  0  0  0  0  0  0  0
    2.5639   -3.7896   -1.2162 H   0  0  0  0  0  0  0  0  0  0  0  0
    2.7581   -2.1946   -1.8807 H   0  0  0  0  0  0  0  0  0  0  0  0
  1  2  1  0
  1 22  1  0
  1 23  1  0
  1 24  1  0
  2  3  1  0
  2 25  1  0
  2 26  1  0
  3  7  1  0
  3  4  1  0
  4  5  2  0
  5  6  1  0
  5 27  1  0
  6  7  2  0
  7  8  1  0
  8  9  2  0
  8 10  1  0
 10 11  1  0
 10 28  1  0
 11 16  1  0
 11 12  1  0
 11 29  1  1
 12 21  1  0
 12 13  1  0
 12 30  1  1
 13 14  1  0
 13 31  1  0
 13 32  1  0
 14 20  1  0
 14 15  1  0
 14 33  1  6
 15 16  1  0
 15 34  1  0
 15 35  1  0
 16 17  1  0
 16 36  1  1
 17 18  1  0
 17 37  1  0
 17 38  1  0
 18 19  1  6
 18 20  1  0
 18 21  1  0
 19 39  1  0
 20 40  1  0
 20 41  1  0
 21 42  1  0
 21 43  1  0
M  END
>  <i_m_ct_stereo_status>  (177) 
1

>  <s_m_source_file>  (177) 
/var/tmp/pbs.5076255.sched01/tmprtix0sri/443g93ja_l.sdf

>  <i_m_source_file_index>  (177) 
35

>  <i_lp_mmshare_version>  (177) 
48012

>  <i_f3d_flags>  (177) 
0

>  <s_epik_input>  (177) 
W0NIM11bQ0gyXW4xbltjSF1uYzFDKD1PKVtOSF1bQ0BIXShbQ0BIXShbQ0gyXTIpW0NIMl1bQ0BASF0oW0NIMl0zKVtDSDJdNClbQ0BIXTNbQ0gyXVtDQEBdMjRbT0hd

>  <s_epik_cmdline>  (177) 
J2VwaWtfcHl0aG9uJywgJy1waHQnLCAnMi4wJywgJy1waCcsICc3LjAnLCAnLXRuJywgJzgnLCAnLW1hJywgJzIwMCcsICctaW1hZScsICc8aW5maWxlLm1hZT4nLCAnLW9tYWUnLCAnPG91dGZpbGUubWFlPic=

>  <r_lp_tautomer_probability>  (177) 
1

>  <r_epik_Ionization_Penalty>  (177) 
5.72389e-06

>  <r_epik_Ionization_Penalty_Charging>  (177) 
0

>  <r_epik_Ionization_Penalty_Neutral>  (177) 
5.72389e-06

>  <r_epik_State_Penalty>  (177) 
-0

>  <r_epik_Charging_Adjusted_Penalty>  (177) 
0

>  <i_epik_Tot_Q>  (177) 
0

>  <i_epik_Tot_abs_Q>  (177) 
0

>  <s_lp_Force_Field>  (177) 
OPLS3e

>  <r_lp_Energy>  (177) 
-3.65945

>  <b_lp_Chiralities_Consistent>  (177) 
1

>  <s_lp_Variant>  (177) 
55:0-1

>  <s_i_glide_gridfile>  (177) 
pfpi4k_grid

>  <i_i_glide_lignum>  (177) 
35

>  <i_i_glide_rotatable_bonds>  (177) 
5

>  <r_i_docking_score>  (177) 
-3.6401

>  <r_i_glide_ligand_efficiency>  (177) 
-0.173338

>  <r_i_glide_ligand_efficiency_sa>  (177) 
-0.478226

>  <r_i_glide_ligand_efficiency_ln>  (177) 
-0.900007

>  <r_i_glide_gscore>  (177) 
-3.6401

>  <r_i_glide_lipo>  (177) 
-0.209038

>  <r_i_glide_hbond>  (177) 
-0.48

>  <r_i_glide_metal>  (177) 
-0

>  <r_i_glide_rewards>  (177) 
-1.42936

>  <r_i_glide_evdw>  (177) 
-20.5072

>  <r_i_glide_ecoul>  (177) 
-6.78331

>  <r_i_glide_erotb>  (177) 
0.64846

>  <r_i_glide_esite>  (177) 
-0.127304

>  <r_i_glide_emodel>  (177) 
-33.2153

>  <r_i_glide_energy>  (177) 
-27.2905

>  <r_i_glide_einternal>  (177) 
0.780449

>  <r_i_glide_intrahb_reward>  (177) 
-0

>  <i_i_glide_confnum>  (177) 
1

>  <i_i_glide_posenum>  (177) 
31

>  <r_i_glide_eff_state_penalty>  (177) 
0

>  <ligand_id>  (177) 
55

>  <original_smiles>  (177) 
CCn1ncnc1C(=O)NC1C2CC3CC1CC(O)(C3)C2

>  <smiles>  (177) 
[H]OC12C([H])([H])C3([H])C([H])([H])C([H])(C1([H])[H])C([H])(N([H])C(=O)c1nc([H])nn1C([H])([H])C([H])([H])[H])C([H])(C3([H])[H])C2([H])[H]

$$$$
55:0:2
     RDKit          3D

 43 46  0  0  1  0  0  0  0  0999 V2000
    7.0762   -6.6061    1.3625 C   0  0  0  0  0  0  0  0  0  0  0  0
    5.6971   -6.1407    0.9283 C   0  0  0  0  0  0  0  0  0  0  0  0
    4.5447   -6.9321    1.3496 N   0  0  0  0  0  0  0  0  0  0  0  0
    4.7454   -8.1067    2.0080 N   0  0  0  0  0  0  0  0  0  0  0  0
    3.5120   -8.5466    2.2162 C   0  0  0  0  0  0  0  0  0  0  0  0
    2.4994   -7.7527    1.7476 N   0  0  0  0  0  0  0  0  0  0  0  0
    3.2072   -6.7563    1.2255 C   0  0  0  0  0  0  0  0  0  0  0  0
    2.5724   -5.5747    0.5195 C   0  0  0  0  0  0  0  0  0  0  0  0
    1.4189   -5.6570    0.0827 O   0  0  0  0  0  0  0  0  0  0  0  0
    3.3120   -4.4663    0.4502 N   0  0  0  0  0  0  0  0  0  0  0  0
    3.0365   -3.2336   -0.2884 C   0  0  2  0  0  0  0  0  0  0  0  0
    3.2315   -3.4400   -1.8091 C   0  0  1  0  0  0  0  0  0  0  0  0
    2.8712   -2.1448   -2.5453 C   0  0  0  0  0  0  0  0  0  0  0  0
    3.7977   -1.0214   -2.0539 C   0  0  1  0  0  0  0  0  0  0  0  0
    3.6585   -0.8252   -0.5189 C   0  0  0  0  0  0  0  0  0  0  0  0
    4.0157   -2.1340    0.1971 C   0  0  2  0  0  0  0  0  0  0  0  0
    5.4900   -2.4662   -0.1345 C   0  0  0  0  0  0  0  0  0  0  0  0
    5.6346   -2.6932   -1.6508 C   0  0  2  0  0  0  0  0  0  0  0  0
    6.9978   -2.9737   -1.9210 O   0  0  0  0  0  0  0  0  0  0  0  0
    5.2410   -1.4052   -2.3714 C   0  0  0  0  0  0  0  0  0  0  0  0
    4.6996   -3.8250   -2.1437 C   0  0  0  0  0  0  0  0  0  0  0  0
    7.8201   -5.9046    0.9909 H   0  0  0  0  0  0  0  0  0  0  0  0
    7.3161   -7.5951    0.9756 H   0  0  0  0  0  0  0  0  0  0  0  0
    7.1444   -6.6079    2.4486 H   0  0  0  0  0  0  0  0  0  0  0  0
    5.5848   -5.1717    1.3949 H   0  0  0  0  0  0  0  0  0  0  0  0
    5.6699   -6.0632   -0.1533 H   0  0  0  0  0  0  0  0  0  0  0  0
    3.3216   -9.4743    2.7470 H   0  0  0  0  0  0  0  0  0  0  0  0
    4.2328   -4.5195    0.8372 H   0  0  0  0  0  0  0  0  0  0  0  0
    2.0081   -2.9250   -0.0899 H   0  0  0  0  0  0  0  0  0  0  0  0
    2.5179   -4.1920   -2.1426 H   0  0  0  0  0  0  0  0  0  0  0  0
    2.9576   -2.2700   -3.6281 H   0  0  0  0  0  0  0  0  0  0  0  0
    1.8326   -1.9003   -2.3407 H   0  0  0  0  0  0  0  0  0  0  0  0
    3.5643   -0.1081   -2.6037 H   0  0  0  0  0  0  0  0  0  0  0  0
    4.3059   -0.0132   -0.1737 H   0  0  0  0  0  0  0  0  0  0  0  0
    2.6398   -0.5565   -0.2367 H   0  0  0  0  0  0  0  0  0  0  0  0
    3.8978   -1.9884    1.2708 H   0  0  0  0  0  0  0  0  0  0  0  0
    6.1393   -1.6520    0.2022 H   0  0  0  0  0  0  0  0  0  0  0  0
    5.8393   -3.3438    0.3976 H   0  0  0  0  0  0  0  0  0  0  0  0
    7.1389   -3.1119   -2.8484 H   0  0  0  0  0  0  0  0  0  0  0  0
    5.3277   -1.5633   -3.4439 H   0  0  0  0  0  0  0  0  0  0  0  0
    5.8695   -0.5797   -2.0550 H   0  0  0  0  0  0  0  0  0  0  0  0
    4.9567   -4.7660   -1.6766 H   0  0  0  0  0  0  0  0  0  0  0  0
    4.8134   -3.9979   -3.2164 H   0  0  0  0  0  0  0  0  0  0  0  0
  1  2  1  0
  1 22  1  0
  1 23  1  0
  1 24  1  0
  2  3  1  0
  2 25  1  0
  2 26  1  0
  3  7  1  0
  3  4  1  0
  4  5  2  0
  5  6  1  0
  5 27  1  0
  6  7  2  0
  7  8  1  0
  8  9  2  0
  8 10  1  0
 10 11  1  0
 10 28  1  0
 11 16  1  0
 11 12  1  0
 11 29  1  6
 12 21  1  0
 12 13  1  0
 12 30  1  6
 13 14  1  0
 13 31  1  0
 13 32  1  0
 14 20  1  0
 14 15  1  0
 14 33  1  6
 15 16  1  0
 15 34  1  0
 15 35  1  0
 16 17  1  0
 16 36  1  1
 17 18  1  0
 17 37  1  0
 17 38  1  0
 18 19  1  1
 18 20  1  0
 18 21  1  0
 19 39  1  0
 20 40  1  0
 20 41  1  0
 21 42  1  0
 21 43  1  0
M  END
>  <i_m_ct_stereo_status>  (178) 
1

>  <s_m_source_file>  (178) 
/var/tmp/pbs.5076255.sched01/tmprtix0sri/443g93ja_l.sdf

>  <i_m_source_file_index>  (178) 
35

>  <i_lp_mmshare_version>  (178) 
48012

>  <i_f3d_flags>  (178) 
0

>  <s_epik_input>  (178) 
W0NIM11bQ0gyXW4xbltjSF1uYzFDKD1PKVtOSF1bQ0BIXShbQ0BIXShbQ0gyXTIpW0NIMl1bQ0BASF0oW0NIMl0zKVtDSDJdNClbQ0BIXTNbQ0gyXVtDQEBdMjRbT0hd

>  <s_epik_cmdline>  (178) 
J2VwaWtfcHl0aG9uJywgJy1waHQnLCAnMi4wJywgJy1waCcsICc3LjAnLCAnLXRuJywgJzgnLCAnLW1hJywgJzIwMCcsICctaW1hZScsICc8aW5maWxlLm1hZT4nLCAnLW9tYWUnLCAnPG91dGZpbGUubWFlPic=

>  <r_lp_tautomer_probability>  (178) 
1

>  <r_epik_Ionization_Penalty>  (178) 
5.72389e-06

>  <r_epik_Ionization_Penalty_Charging>  (178) 
0

>  <r_epik_Ionization_Penalty_Neutral>  (178) 
5.72389e-06

>  <r_epik_State_Penalty>  (178) 
-0

>  <r_epik_Charging_Adjusted_Penalty>  (178) 
0

>  <i_epik_Tot_Q>  (178) 
0

>  <i_epik_Tot_abs_Q>  (178) 
0

>  <s_lp_Force_Field>  (178) 
OPLS3e

>  <r_lp_Energy>  (178) 
-3.65945

>  <b_lp_Chiralities_Consistent>  (178) 
1

>  <s_lp_Variant>  (178) 
55:0-1

>  <s_i_glide_gridfile>  (178) 
pfpi4k_grid

>  <i_i_glide_lignum>  (178) 
35

>  <i_i_glide_rotatable_bonds>  (178) 
5

>  <r_i_docking_score>  (178) 
-3.5173

>  <r_i_glide_ligand_efficiency>  (178) 
-0.16749

>  <r_i_glide_ligand_efficiency_sa>  (178) 
-0.462094

>  <r_i_glide_ligand_efficiency_ln>  (178) 
-0.869645

>  <r_i_glide_gscore>  (178) 
-3.5173

>  <r_i_glide_lipo>  (178) 
-0.223887

>  <r_i_glide_hbond>  (178) 
-0.371577

>  <r_i_glide_metal>  (178) 
-0

>  <r_i_glide_rewards>  (178) 
-1.61348

>  <r_i_glide_evdw>  (178) 
-17.4665

>  <r_i_glide_ecoul>  (178) 
-6.80021

>  <r_i_glide_erotb>  (178) 
0.64846

>  <r_i_glide_esite>  (178) 
-0.0634653

>  <r_i_glide_emodel>  (178) 
-29.2776

>  <r_i_glide_energy>  (178) 
-24.2667

>  <r_i_glide_einternal>  (178) 
1.09635

>  <r_i_glide_intrahb_reward>  (178) 
-0

>  <i_i_glide_confnum>  (178) 
2

>  <i_i_glide_posenum>  (178) 
2

>  <r_i_glide_eff_state_penalty>  (178) 
0

>  <ligand_id>  (178) 
55

>  <original_smiles>  (178) 
CCn1ncnc1C(=O)NC1C2CC3CC1CC(O)(C3)C2

>  <smiles>  (178) 
[H]OC12C([H])([H])C3([H])C([H])([H])C([H])(C1([H])[H])C([H])(N([H])C(=O)c1nc([H])nn1C([H])([H])C([H])([H])[H])C([H])(C3([H])[H])C2([H])[H]

$$$$
56:0:0
     RDKit          3D

 24 25  0  0  1  0  0  0  0  0999 V2000
   -0.8758    0.4023    4.0904 C   0  0  0  0  0  0  0  0  0  0  0  0
   -1.4374    0.5160    5.5055 C   0  0  0  0  0  0  0  0  0  0  0  0
   -1.8261   -0.4991    6.0778 O   0  0  0  0  0  0  0  0  0  0  0  0
   -1.4957    1.7448    6.0370 N   0  0  0  0  0  0  0  0  0  0  0  0
   -1.8542    2.0866    7.3744 C   0  0  0  0  0  0  0  0  0  0  0  0
   -2.9791    2.9102    7.5665 C   0  0  0  0  0  0  0  0  0  0  0  0
   -3.3516    3.3358    8.8592 C   0  0  0  0  0  0  0  0  0  0  0  0
   -2.5829    2.9452    9.9705 C   0  0  0  0  0  0  0  0  0  0  0  0
   -1.4417    2.1437    9.7820 C   0  0  0  0  0  0  0  0  0  0  0  0
   -0.6776    1.7504   10.9011 C   0  0  0  0  0  0  0  0  0  0  0  0
    0.4565    0.9403   10.6981 C   0  0  0  0  0  0  0  0  0  0  0  0
    0.7787    0.5621    9.3813 C   0  0  0  0  0  0  0  0  0  0  0  0
    0.0420    0.9247    8.3121 N   0  0  0  0  0  0  0  0  0  0  0  0
   -1.0549    1.7010    8.4855 C   0  0  0  0  0  0  0  0  0  0  0  0
   -0.5786    1.3781    3.6995 H   0  0  0  0  0  0  0  0  0  0  0  0
   -1.6397   -0.0126    3.4357 H   0  0  0  0  0  0  0  0  0  0  0  0
   -0.0076   -0.2590    4.0721 H   0  0  0  0  0  0  0  0  0  0  0  0
   -1.1814    2.5074    5.4487 H   0  0  0  0  0  0  0  0  0  0  0  0
   -3.5439    3.2206    6.6998 H   0  0  0  0  0  0  0  0  0  0  0  0
   -4.2201    3.9662    9.0036 H   0  0  0  0  0  0  0  0  0  0  0  0
   -2.8727    3.2514   10.9648 H   0  0  0  0  0  0  0  0  0  0  0  0
   -0.9701    2.0465   11.9011 H   0  0  0  0  0  0  0  0  0  0  0  0
    1.0575    0.6066   11.5350 H   0  0  0  0  0  0  0  0  0  0  0  0
    1.6373   -0.0638    9.1762 H   0  0  0  0  0  0  0  0  0  0  0  0
  1  2  1  0
  1 15  1  0
  1 16  1  0
  1 17  1  0
  2  3  2  0
  2  4  1  0
  4  5  1  0
  4 18  1  0
  5 14  2  0
  5  6  1  0
  6  7  2  0
  6 19  1  0
  7  8  1  0
  7 20  1  0
  8  9  2  0
  8 21  1  0
  9 14  1  0
  9 10  1  0
 10 11  2  0
 10 22  1  0
 11 12  1  0
 11 23  1  0
 12 13  2  0
 12 24  1  0
 13 14  1  0
M  END
>  <i_m_ct_stereo_status>  (179) 
1

>  <s_m_source_file>  (179) 
/var/tmp/pbs.5076255.sched01/tmprtix0sri/443g93ja_l.sdf

>  <i_m_source_file_index>  (179) 
36

>  <i_lp_mmshare_version>  (179) 
48012

>  <i_f3d_flags>  (179) 
0

>  <s_epik_input>  (179) 
W0NIM11DKD1PKVtOSF1jKFtjSF1bY0hdW2NIXTEpYyhjMTIpbltjSF1bY0hdW2NIXTI=

>  <s_epik_cmdline>  (179) 
J2VwaWtfcHl0aG9uJywgJy1waHQnLCAnMi4wJywgJy1waCcsICc3LjAnLCAnLXRuJywgJzgnLCAnLW1hJywgJzIwMCcsICctaW1hZScsICc8aW5maWxlLm1hZT4nLCAnLW9tYWUnLCAnPG91dGZpbGUubWFlPic=

>  <r_epik_Ionization_Penalty>  (179) 
0.00166776

>  <r_epik_Ionization_Penalty_Charging>  (179) 
0

>  <r_epik_Ionization_Penalty_Neutral>  (179) 
0.00166776

>  <r_epik_State_Penalty>  (179) 
0.00112515

>  <r_epik_Charging_Adjusted_Penalty>  (179) 
0.00112515

>  <i_epik_Tot_Q>  (179) 
0

>  <i_epik_Tot_abs_Q>  (179) 
0

>  <s_lp_Force_Field>  (179) 
OPLS3e

>  <r_lp_Energy>  (179) 
24.901

>  <b_lp_Chiralities_Consistent>  (179) 
1

>  <s_lp_Variant>  (179) 
56:0-1

>  <s_i_glide_gridfile>  (179) 
pfpi4k_grid

>  <i_i_glide_lignum>  (179) 
36

>  <i_i_glide_rotatable_bonds>  (179) 
2

>  <r_i_docking_score>  (179) 
-4.04814

>  <r_i_glide_ligand_efficiency>  (179) 
-0.289153

>  <r_i_glide_ligand_efficiency_sa>  (179) 
-0.6969

>  <r_i_glide_ligand_efficiency_ln>  (179) 
-1.11241

>  <r_i_glide_gscore>  (179) 
-4.04814

>  <r_i_glide_lipo>  (179) 
-0.186188

>  <r_i_glide_hbond>  (179) 
-0.121479

>  <r_i_glide_metal>  (179) 
-0

>  <r_i_glide_rewards>  (179) 
-2.13948

>  <r_i_glide_evdw>  (179) 
-15.3133

>  <r_i_glide_ecoul>  (179) 
-5.17737

>  <r_i_glide_erotb>  (179) 
0

>  <r_i_glide_esite>  (179) 
-0.0587239

>  <r_i_glide_emodel>  (179) 
-24.0969

>  <r_i_glide_energy>  (179) 
-20.4907

>  <r_i_glide_einternal>  (179) 
5.33649

>  <r_i_glide_intrahb_reward>  (179) 
-0

>  <i_i_glide_confnum>  (179) 
1

>  <i_i_glide_posenum>  (179) 
2

>  <r_i_glide_eff_state_penalty>  (179) 
0

>  <ligand_id>  (179) 
56

>  <original_smiles>  (179) 
CC(=O)Nc1cccc2cccnc12

>  <smiles>  (179) 
[H]c1nc2c(N([H])C(=O)C([H])([H])[H])c([H])c([H])c([H])c2c([H])c1[H]

$$$$
56:0:1
     RDKit          3D

 24 25  0  0  1  0  0  0  0  0999 V2000
    1.6077   -6.4747    0.9124 C   0  0  0  0  0  0  0  0  0  0  0  0
    2.6121   -5.3482    1.1392 C   0  0  0  0  0  0  0  0  0  0  0  0
    3.0516   -5.1695    2.2730 O   0  0  0  0  0  0  0  0  0  0  0  0
    2.9241   -4.6112    0.0585 N   0  0  0  0  0  0  0  0  0  0  0  0
    3.6914   -3.4129   -0.0442 C   0  0  0  0  0  0  0  0  0  0  0  0
    4.5775   -2.9827    0.9748 C   0  0  0  0  0  0  0  0  0  0  0  0
    5.3356   -1.8098    0.8157 C   0  0  0  0  0  0  0  0  0  0  0  0
    5.2161   -1.0583   -0.3623 C   0  0  0  0  0  0  0  0  0  0  0  0
    4.3415   -1.4728   -1.3859 C   0  0  0  0  0  0  0  0  0  0  0  0
    4.2230   -0.7149   -2.5680 C   0  0  0  0  0  0  0  0  0  0  0  0
    3.3556   -1.1543   -3.5827 C   0  0  0  0  0  0  0  0  0  0  0  0
    2.6202   -2.3328   -3.3584 C   0  0  0  0  0  0  0  0  0  0  0  0
    2.7212   -3.0574   -2.2270 N   0  0  0  0  0  0  0  0  0  0  0  0
    3.5622   -2.6556   -1.2406 C   0  0  0  0  0  0  0  0  0  0  0  0
    1.2688   -6.4993   -0.1222 H   0  0  0  0  0  0  0  0  0  0  0  0
    0.7347   -6.3412    1.5502 H   0  0  0  0  0  0  0  0  0  0  0  0
    2.0561   -7.4391    1.1540 H   0  0  0  0  0  0  0  0  0  0  0  0
    2.5020   -4.8894   -0.8204 H   0  0  0  0  0  0  0  0  0  0  0  0
    4.7075   -3.5422    1.8886 H   0  0  0  0  0  0  0  0  0  0  0  0
    6.0103   -1.4866    1.5973 H   0  0  0  0  0  0  0  0  0  0  0  0
    5.7983   -0.1599   -0.4677 H   0  0  0  0  0  0  0  0  0  0  0  0
    4.7813    0.1995   -2.6995 H   0  0  0  0  0  0  0  0  0  0  0  0
    3.2225   -0.5850   -4.4923 H   0  0  0  0  0  0  0  0  0  0  0  0
    1.9228   -2.6952   -4.1010 H   0  0  0  0  0  0  0  0  0  0  0  0
  1  2  1  0
  1 15  1  0
  1 16  1  0
  1 17  1  0
  2  3  2  0
  2  4  1  0
  4  5  1  0
  4 18  1  0
  5 14  2  0
  5  6  1  0
  6  7  2  0
  6 19  1  0
  7  8  1  0
  7 20  1  0
  8  9  2  0
  8 21  1  0
  9 14  1  0
  9 10  1  0
 10 11  2  0
 10 22  1  0
 11 12  1  0
 11 23  1  0
 12 13  2  0
 12 24  1  0
 13 14  1  0
M  END
>  <i_m_ct_stereo_status>  (180) 
1

>  <s_m_source_file>  (180) 
/var/tmp/pbs.5076255.sched01/tmprtix0sri/443g93ja_l.sdf

>  <i_m_source_file_index>  (180) 
36

>  <i_lp_mmshare_version>  (180) 
48012

>  <i_f3d_flags>  (180) 
0

>  <s_epik_input>  (180) 
W0NIM11DKD1PKVtOSF1jKFtjSF1bY0hdW2NIXTEpYyhjMTIpbltjSF1bY0hdW2NIXTI=

>  <s_epik_cmdline>  (180) 
J2VwaWtfcHl0aG9uJywgJy1waHQnLCAnMi4wJywgJy1waCcsICc3LjAnLCAnLXRuJywgJzgnLCAnLW1hJywgJzIwMCcsICctaW1hZScsICc8aW5maWxlLm1hZT4nLCAnLW9tYWUnLCAnPG91dGZpbGUubWFlPic=

>  <r_epik_Ionization_Penalty>  (180) 
0.00166776

>  <r_epik_Ionization_Penalty_Charging>  (180) 
0

>  <r_epik_Ionization_Penalty_Neutral>  (180) 
0.00166776

>  <r_epik_State_Penalty>  (180) 
0.00112515

>  <r_epik_Charging_Adjusted_Penalty>  (180) 
0.00112515

>  <i_epik_Tot_Q>  (180) 
0

>  <i_epik_Tot_abs_Q>  (180) 
0

>  <s_lp_Force_Field>  (180) 
OPLS3e

>  <r_lp_Energy>  (180) 
24.901

>  <b_lp_Chiralities_Consistent>  (180) 
1

>  <s_lp_Variant>  (180) 
56:0-1

>  <s_i_glide_gridfile>  (180) 
pfpi4k_grid

>  <i_i_glide_lignum>  (180) 
36

>  <i_i_glide_rotatable_bonds>  (180) 
2

>  <r_i_docking_score>  (180) 
-3.98993

>  <r_i_glide_ligand_efficiency>  (180) 
-0.284995

>  <r_i_glide_ligand_efficiency_sa>  (180) 
-0.686879

>  <r_i_glide_ligand_efficiency_ln>  (180) 
-1.09642

>  <r_i_glide_gscore>  (180) 
-3.98993

>  <r_i_glide_lipo>  (180) 
-0.554234

>  <r_i_glide_hbond>  (180) 
-0.149192

>  <r_i_glide_metal>  (180) 
-0

>  <r_i_glide_rewards>  (180) 
-2.13948

>  <r_i_glide_evdw>  (180) 
-21.4977

>  <r_i_glide_ecoul>  (180) 
-0.0573916

>  <r_i_glide_erotb>  (180) 
0

>  <r_i_glide_esite>  (180) 
-0.0635316

>  <r_i_glide_emodel>  (180) 
-27.5999

>  <r_i_glide_energy>  (180) 
-21.5551

>  <r_i_glide_einternal>  (180) 
0.399975

>  <r_i_glide_intrahb_reward>  (180) 
-0

>  <i_i_glide_confnum>  (180) 
1

>  <i_i_glide_posenum>  (180) 
3

>  <r_i_glide_eff_state_penalty>  (180) 
0

>  <ligand_id>  (180) 
56

>  <original_smiles>  (180) 
CC(=O)Nc1cccc2cccnc12

>  <smiles>  (180) 
[H]c1nc2c(N([H])C(=O)C([H])([H])[H])c([H])c([H])c([H])c2c([H])c1[H]

$$$$
56:0:2
     RDKit          3D

 24 25  0  0  1  0  0  0  0  0999 V2000
   -0.1797   -3.2217    6.0868 C   0  0  0  0  0  0  0  0  0  0  0  0
   -0.8615   -1.9770    5.5305 C   0  0  0  0  0  0  0  0  0  0  0  0
   -2.0752   -1.8482    5.6821 O   0  0  0  0  0  0  0  0  0  0  0  0
   -0.0773   -1.0887    4.8979 N   0  0  0  0  0  0  0  0  0  0  0  0
   -0.4861    0.1725    4.3817 C   0  0  0  0  0  0  0  0  0  0  0  0
   -0.0887    0.4868    3.0651 C   0  0  0  0  0  0  0  0  0  0  0  0
   -0.4080    1.7282    2.4942 C   0  0  0  0  0  0  0  0  0  0  0  0
   -1.1180    2.6760    3.2506 C   0  0  0  0  0  0  0  0  0  0  0  0
   -1.5043    2.3789    4.5679 C   0  0  0  0  0  0  0  0  0  0  0  0
   -2.1958    3.3436    5.3223 C   0  0  0  0  0  0  0  0  0  0  0  0
   -2.5566    3.0542    6.6503 C   0  0  0  0  0  0  0  0  0  0  0  0
   -2.1829    1.8053    7.1749 C   0  0  0  0  0  0  0  0  0  0  0  0
   -1.5167    0.8812    6.4645 N   0  0  0  0  0  0  0  0  0  0  0  0
   -1.1860    1.1275    5.1669 C   0  0  0  0  0  0  0  0  0  0  0  0
    0.8960   -3.1928    5.9198 H   0  0  0  0  0  0  0  0  0  0  0  0
   -0.5807   -4.1183    5.6141 H   0  0  0  0  0  0  0  0  0  0  0  0
   -0.3570   -3.2938    7.1604 H   0  0  0  0  0  0  0  0  0  0  0  0
    0.9047   -1.3202    4.8019 H   0  0  0  0  0  0  0  0  0  0  0  0
    0.4765   -0.2406    2.4915 H   0  0  0  0  0  0  0  0  0  0  0  0
   -0.1072    1.9714    1.4787 H   0  0  0  0  0  0  0  0  0  0  0  0
   -1.3372    3.6320    2.7941 H   0  0  0  0  0  0  0  0  0  0  0  0
   -2.4357    4.2993    4.8780 H   0  0  0  0  0  0  0  0  0  0  0  0
   -3.1022    3.7618    7.2655 H   0  0  0  0  0  0  0  0  0  0  0  0
   -2.4486    1.5194    8.1873 H   0  0  0  0  0  0  0  0  0  0  0  0
  1  2  1  0
  1 15  1  0
  1 16  1  0
  1 17  1  0
  2  3  2  0
  2  4  1  0
  4  5  1  0
  4 18  1  0
  5 14  2  0
  5  6  1  0
  6  7  2  0
  6 19  1  0
  7  8  1  0
  7 20  1  0
  8  9  2  0
  8 21  1  0
  9 14  1  0
  9 10  1  0
 10 11  2  0
 10 22  1  0
 11 12  1  0
 11 23  1  0
 12 13  2  0
 12 24  1  0
 13 14  1  0
M  END
>  <i_m_ct_stereo_status>  (181) 
1

>  <s_m_source_file>  (181) 
/var/tmp/pbs.5076255.sched01/tmprtix0sri/443g93ja_l.sdf

>  <i_m_source_file_index>  (181) 
36

>  <i_lp_mmshare_version>  (181) 
48012

>  <i_f3d_flags>  (181) 
0

>  <s_epik_input>  (181) 
W0NIM11DKD1PKVtOSF1jKFtjSF1bY0hdW2NIXTEpYyhjMTIpbltjSF1bY0hdW2NIXTI=

>  <s_epik_cmdline>  (181) 
J2VwaWtfcHl0aG9uJywgJy1waHQnLCAnMi4wJywgJy1waCcsICc3LjAnLCAnLXRuJywgJzgnLCAnLW1hJywgJzIwMCcsICctaW1hZScsICc8aW5maWxlLm1hZT4nLCAnLW9tYWUnLCAnPG91dGZpbGUubWFlPic=

>  <r_epik_Ionization_Penalty>  (181) 
0.00166776

>  <r_epik_Ionization_Penalty_Charging>  (181) 
0

>  <r_epik_Ionization_Penalty_Neutral>  (181) 
0.00166776

>  <r_epik_State_Penalty>  (181) 
0.00112515

>  <r_epik_Charging_Adjusted_Penalty>  (181) 
0.00112515

>  <i_epik_Tot_Q>  (181) 
0

>  <i_epik_Tot_abs_Q>  (181) 
0

>  <s_lp_Force_Field>  (181) 
OPLS3e

>  <r_lp_Energy>  (181) 
24.901

>  <b_lp_Chiralities_Consistent>  (181) 
1

>  <s_lp_Variant>  (181) 
56:0-1

>  <s_i_glide_gridfile>  (181) 
pfpi4k_grid

>  <i_i_glide_lignum>  (181) 
36

>  <i_i_glide_rotatable_bonds>  (181) 
2

>  <r_i_docking_score>  (181) 
-3.84586

>  <r_i_glide_ligand_efficiency>  (181) 
-0.274704

>  <r_i_glide_ligand_efficiency_sa>  (181) 
-0.662076

>  <r_i_glide_ligand_efficiency_ln>  (181) 
-1.05683

>  <r_i_glide_gscore>  (181) 
-3.84586

>  <r_i_glide_lipo>  (181) 
-0.137289

>  <r_i_glide_hbond>  (181) 
-0.0581832

>  <r_i_glide_metal>  (181) 
-0

>  <r_i_glide_rewards>  (181) 
-2.13948

>  <r_i_glide_evdw>  (181) 
-18.0442

>  <r_i_glide_ecoul>  (181) 
-3.71215

>  <r_i_glide_erotb>  (181) 
0

>  <r_i_glide_esite>  (181) 
-0.0518744

>  <r_i_glide_emodel>  (181) 
-25.1446

>  <r_i_glide_energy>  (181) 
-21.7564

>  <r_i_glide_einternal>  (181) 
5.12288

>  <r_i_glide_intrahb_reward>  (181) 
-0

>  <i_i_glide_confnum>  (181) 
1

>  <i_i_glide_posenum>  (181) 
1

>  <r_i_glide_eff_state_penalty>  (181) 
0

>  <ligand_id>  (181) 
56

>  <original_smiles>  (181) 
CC(=O)Nc1cccc2cccnc12

>  <smiles>  (181) 
[H]c1nc2c(N([H])C(=O)C([H])([H])[H])c([H])c([H])c([H])c2c([H])c1[H]

$$$$
57:0:0
     RDKit          3D

 39 41  0  0  1  0  0  0  0  0999 V2000
    0.0728    0.2724    3.8546 C   0  0  0  0  0  0  0  0  0  0  0  0
   -1.0256    1.3448    3.8221 C   0  0  0  0  0  0  0  0  0  0  0  0
   -0.8034    2.3508    2.6870 C   0  0  0  0  0  0  0  0  0  0  0  0
   -1.0651    2.0609    5.0859 N   0  0  0  0  0  0  0  0  0  0  0  0
   -1.5992    1.6323    6.2431 C   0  0  0  0  0  0  0  0  0  0  0  0
   -2.1571    0.5327    6.3675 O   0  0  0  0  0  0  0  0  0  0  0  0
   -1.4974    2.5877    7.4525 C   0  0  2  0  0  0  0  0  0  0  0  0
   -1.3104    1.7749    8.7648 C   0  0  0  0  0  0  0  0  0  0  0  0
   -1.2595    2.7155    9.9852 C   0  0  1  0  0  0  0  0  0  0  0  0
   -0.0656    3.6747    9.8380 C   0  0  0  0  0  0  0  0  0  0  0  0
   -0.2414    4.5066    8.5532 C   0  0  2  0  0  0  0  0  0  0  0  0
   -1.5497    5.3144    8.6234 C   0  0  0  0  0  0  0  0  0  0  0  0
   -2.7456    4.3515    8.7863 C   0  0  2  0  0  0  0  0  0  0  0  0
   -2.5747    3.5162   10.0712 C   0  0  0  0  0  0  0  0  0  0  0  0
   -2.8154    3.3998    7.5682 C   0  0  0  0  0  0  0  0  0  0  0  0
   -0.2942    3.5737    7.3295 C   0  0  0  0  0  0  0  0  0  0  0  0
    0.1455   -0.2424    2.9002 H   0  0  0  0  0  0  0  0  0  0  0  0
   -0.1270   -0.4740    4.6195 H   0  0  0  0  0  0  0  0  0  0  0  0
    1.0487    0.7083    4.0687 H   0  0  0  0  0  0  0  0  0  0  0  0
   -1.9949    0.8677    3.6718 H   0  0  0  0  0  0  0  0  0  0  0  0
   -0.7327    1.8455    1.7228 H   0  0  0  0  0  0  0  0  0  0  0  0
    0.1182    2.9212    2.8195 H   0  0  0  0  0  0  0  0  0  0  0  0
   -1.6193    3.0673    2.6194 H   0  0  0  0  0  0  0  0  0  0  0  0
   -0.6324    2.9754    5.0946 H   0  0  0  0  0  0  0  0  0  0  0  0
   -2.1421    1.0904    8.8750 H   0  0  0  0  0  0  0  0  0  0  0  0
   -0.4037    1.1701    8.7148 H   0  0  0  0  0  0  0  0  0  0  0  0
   -1.1466    2.1250   10.8956 H   0  0  0  0  0  0  0  0  0  0  0  0
   -0.0025    4.3320   10.7074 H   0  0  0  0  0  0  0  0  0  0  0  0
    0.8663    3.1128    9.7982 H   0  0  0  0  0  0  0  0  0  0  0  0
    0.6039    5.1846    8.4410 H   0  0  0  0  0  0  0  0  0  0  0  0
   -1.5178    6.0196    9.4515 H   0  0  0  0  0  0  0  0  0  0  0  0
   -1.6533    5.9056    7.7164 H   0  0  0  0  0  0  0  0  0  0  0  0
   -3.6686    4.9240    8.8550 H   0  0  0  0  0  0  0  0  0  0  0  0
   -3.4194    2.8386   10.2021 H   0  0  0  0  0  0  0  0  0  0  0  0
   -2.5624    4.1602   10.9481 H   0  0  0  0  0  0  0  0  0  0  0  0
   -2.9861    3.9757    6.6566 H   0  0  0  0  0  0  0  0  0  0  0  0
   -3.6752    2.7357    7.6718 H   0  0  0  0  0  0  0  0  0  0  0  0
    0.6435    3.0190    7.2474 H   0  0  0  0  0  0  0  0  0  0  0  0
   -0.3665    4.1960    6.4358 H   0  0  0  0  0  0  0  0  0  0  0  0
  1  2  1  0
  1 17  1  0
  1 18  1  0
  1 19  1  0
  2  3  1  0
  2  4  1  0
  2 20  1  0
  3 21  1  0
  3 22  1  0
  3 23  1  0
  4  5  1  0
  4 24  1  0
  5  6  2  0
  7  5  1  6
  7 15  1  0
  7 16  1  0
  7  8  1  0
  8  9  1  0
  8 25  1  0
  8 26  1  0
  9 14  1  0
  9 10  1  0
  9 27  1  1
 10 11  1  0
 10 28  1  0
 10 29  1  0
 11 12  1  0
 11 16  1  0
 11 30  1  6
 12 13  1  0
 12 31  1  0
 12 32  1  0
 13 14  1  0
 13 15  1  0
 13 33  1  1
 14 34  1  0
 14 35  1  0
 15 36  1  0
 15 37  1  0
 16 38  1  0
 16 39  1  0
M  END
>  <i_m_ct_stereo_status>  (182) 
1

>  <s_m_source_file>  (182) 
/var/tmp/pbs.5076255.sched01/tmprtix0sri/443g93ja_l.sdf

>  <i_m_source_file_index>  (182) 
37

>  <i_lp_mmshare_version>  (182) 
48012

>  <i_f3d_flags>  (182) 
0

>  <s_epik_input>  (182) 
W0NIM11bQ0hdKFtDSDNdKVtOSF1DKD1PKUMxMltDSDJdW0NAQEhdM1tDSDJdW0NASF0oW0NIMl0yKVtDSDJdW0NAQEhdKFtDSDJdMylbQ0gyXTE=

>  <s_epik_cmdline>  (182) 
J2VwaWtfcHl0aG9uJywgJy1waHQnLCAnMi4wJywgJy1waCcsICc3LjAnLCAnLXRuJywgJzgnLCAnLW1hJywgJzIwMCcsICctaW1hZScsICc8aW5maWxlLm1hZT4nLCAnLW9tYWUnLCAnPG91dGZpbGUubWFlPic=

>  <r_lp_tautomer_probability>  (182) 
1

>  <r_epik_Ionization_Penalty>  (182) 
2.51005e-07

>  <r_epik_Ionization_Penalty_Charging>  (182) 
0

>  <r_epik_Ionization_Penalty_Neutral>  (182) 
2.51005e-07

>  <r_epik_State_Penalty>  (182) 
-0

>  <r_epik_Charging_Adjusted_Penalty>  (182) 
0

>  <i_epik_Tot_Q>  (182) 
0

>  <i_epik_Tot_abs_Q>  (182) 
0

>  <s_lp_Force_Field>  (182) 
OPLS3e

>  <r_lp_Energy>  (182) 
6.16053

>  <b_lp_Chiralities_Consistent>  (182) 
1

>  <s_lp_Variant>  (182) 
57:0-1

>  <s_i_glide_gridfile>  (182) 
pfpi4k_grid

>  <i_i_glide_lignum>  (182) 
37

>  <i_i_glide_rotatable_bonds>  (182) 
3

>  <r_i_docking_score>  (182) 
-3.15484

>  <r_i_glide_ligand_efficiency>  (182) 
-0.197178

>  <r_i_glide_ligand_efficiency_sa>  (182) 
-0.496857

>  <r_i_glide_ligand_efficiency_ln>  (182) 
-0.836254

>  <r_i_glide_gscore>  (182) 
-3.15484

>  <r_i_glide_lipo>  (182) 
-0.214851

>  <r_i_glide_hbond>  (182) 
-0.16

>  <r_i_glide_metal>  (182) 
-0

>  <r_i_glide_rewards>  (182) 
-1.89996

>  <r_i_glide_evdw>  (182) 
-12.8457

>  <r_i_glide_ecoul>  (182) 
-3.65045

>  <r_i_glide_erotb>  (182) 
0.344466

>  <r_i_glide_esite>  (182) 
-0.0346398

>  <r_i_glide_emodel>  (182) 
-20.2435

>  <r_i_glide_energy>  (182) 
-16.4961

>  <r_i_glide_einternal>  (182) 
0.282111

>  <r_i_glide_intrahb_reward>  (182) 
-0

>  <i_i_glide_confnum>  (182) 
2

>  <i_i_glide_posenum>  (182) 
38

>  <r_i_glide_eff_state_penalty>  (182) 
0

>  <ligand_id>  (182) 
57

>  <original_smiles>  (182) 
CC(C)NC(=O)C12CC3CC(CC(C3)C1)C2

>  <smiles>  (182) 
[H]N(C(=O)C12C([H])([H])C3([H])C([H])([H])C([H])(C([H])([H])C([H])(C3([H])[H])C1([H])[H])C2([H])[H])C([H])(C([H])([H])[H])C([H])([H])[H]

$$$$
57:0:1
     RDKit          3D

 39 41  0  0  1  0  0  0  0  0999 V2000
   -0.0533    1.6252    3.1841 C   0  0  0  0  0  0  0  0  0  0  0  0
   -1.4208    1.7046    3.8749 C   0  0  0  0  0  0  0  0  0  0  0  0
   -2.4142    2.5624    3.0803 C   0  0  0  0  0  0  0  0  0  0  0  0
   -1.2649    2.2719    5.2081 N   0  0  0  0  0  0  0  0  0  0  0  0
   -1.5868    1.7058    6.3837 C   0  0  0  0  0  0  0  0  0  0  0  0
   -2.0111    0.5507    6.4845 O   0  0  0  0  0  0  0  0  0  0  0  0
   -1.4394    2.5923    7.6432 C   0  0  2  0  0  0  0  0  0  0  0  0
   -0.7911    1.7810    8.7999 C   0  0  0  0  0  0  0  0  0  0  0  0
   -0.7068    2.6491   10.0753 C   0  0  1  0  0  0  0  0  0  0  0  0
    0.1551    3.8938    9.7963 C   0  0  0  0  0  0  0  0  0  0  0  0
   -0.4927    4.7170    8.6681 C   0  0  2  0  0  0  0  0  0  0  0  0
   -1.9141    5.1508    9.0773 C   0  0  0  0  0  0  0  0  0  0  0  0
   -2.7661    3.9011    9.3653 C   0  0  2  0  0  0  0  0  0  0  0  0
   -2.1248    3.0771   10.4974 C   0  0  0  0  0  0  0  0  0  0  0  0
   -2.8529    3.0352    8.0917 C   0  0  0  0  0  0  0  0  0  0  0  0
   -0.5733    3.8647    7.3894 C   0  0  0  0  0  0  0  0  0  0  0  0
   -0.1471    1.2328    2.1719 H   0  0  0  0  0  0  0  0  0  0  0  0
    0.6205    0.9721    3.7343 H   0  0  0  0  0  0  0  0  0  0  0  0
    0.4208    2.6042    3.1117 H   0  0  0  0  0  0  0  0  0  0  0  0
   -1.8238    0.6916    3.9368 H   0  0  0  0  0  0  0  0  0  0  0  0
   -2.5406    2.1692    2.0758 H   0  0  0  0  0  0  0  0  0  0  0  0
   -2.0817    3.5968    2.9910 H   0  0  0  0  0  0  0  0  0  0  0  0
   -3.3948    2.5625    3.5522 H   0  0  0  0  0  0  0  0  0  0  0  0
   -0.9118    3.2198    5.2332 H   0  0  0  0  0  0  0  0  0  0  0  0
   -1.3760    0.8875    9.0213 H   0  0  0  0  0  0  0  0  0  0  0  0
    0.2061    1.4332    8.5165 H   0  0  0  0  0  0  0  0  0  0  0  0
   -0.2575    2.0688   10.8807 H   0  0  0  0  0  0  0  0  0  0  0  0
    0.2467    4.4994   10.7000 H   0  0  0  0  0  0  0  0  0  0  0  0
    1.1657    3.5955    9.5134 H   0  0  0  0  0  0  0  0  0  0  0  0
    0.1151    5.5983    8.4664 H   0  0  0  0  0  0  0  0  0  0  0  0
   -1.8791    5.7969    9.9554 H   0  0  0  0  0  0  0  0  0  0  0  0
   -2.3708    5.7376    8.2819 H   0  0  0  0  0  0  0  0  0  0  0  0
   -3.7693    4.2018    9.6618 H   0  0  0  0  0  0  0  0  0  0  0  0
   -2.7355    2.1999   10.7230 H   0  0  0  0  0  0  0  0  0  0  0  0
   -2.0810    3.6600   11.4178 H   0  0  0  0  0  0  0  0  0  0  0  0
   -3.3576    3.5890    7.2965 H   0  0  0  0  0  0  0  0  0  0  0  0
   -3.4604    2.1553    8.2914 H   0  0  0  0  0  0  0  0  0  0  0  0
    0.4342    3.5882    7.0710 H   0  0  0  0  0  0  0  0  0  0  0  0
   -0.9953    4.4903    6.6006 H   0  0  0  0  0  0  0  0  0  0  0  0
  1  2  1  0
  1 17  1  0
  1 18  1  0
  1 19  1  0
  2  3  1  0
  2  4  1  0
  2 20  1  0
  3 21  1  0
  3 22  1  0
  3 23  1  0
  4  5  1  0
  4 24  1  0
  5  6  2  0
  7  5  1  6
  7 15  1  0
  7 16  1  0
  7  8  1  0
  8  9  1  0
  8 25  1  0
  8 26  1  0
  9 14  1  0
  9 10  1  0
  9 27  1  1
 10 11  1  0
 10 28  1  0
 10 29  1  0
 11 12  1  0
 11 16  1  0
 11 30  1  6
 12 13  1  0
 12 31  1  0
 12 32  1  0
 13 14  1  0
 13 15  1  0
 13 33  1  1
 14 34  1  0
 14 35  1  0
 15 36  1  0
 15 37  1  0
 16 38  1  0
 16 39  1  0
M  END
>  <i_m_ct_stereo_status>  (183) 
1

>  <s_m_source_file>  (183) 
/var/tmp/pbs.5076255.sched01/tmprtix0sri/443g93ja_l.sdf

>  <i_m_source_file_index>  (183) 
37

>  <i_lp_mmshare_version>  (183) 
48012

>  <i_f3d_flags>  (183) 
0

>  <s_epik_input>  (183) 
W0NIM11bQ0hdKFtDSDNdKVtOSF1DKD1PKUMxMltDSDJdW0NAQEhdM1tDSDJdW0NASF0oW0NIMl0yKVtDSDJdW0NAQEhdKFtDSDJdMylbQ0gyXTE=

>  <s_epik_cmdline>  (183) 
J2VwaWtfcHl0aG9uJywgJy1waHQnLCAnMi4wJywgJy1waCcsICc3LjAnLCAnLXRuJywgJzgnLCAnLW1hJywgJzIwMCcsICctaW1hZScsICc8aW5maWxlLm1hZT4nLCAnLW9tYWUnLCAnPG91dGZpbGUubWFlPic=

>  <r_lp_tautomer_probability>  (183) 
1

>  <r_epik_Ionization_Penalty>  (183) 
2.51005e-07

>  <r_epik_Ionization_Penalty_Charging>  (183) 
0

>  <r_epik_Ionization_Penalty_Neutral>  (183) 
2.51005e-07

>  <r_epik_State_Penalty>  (183) 
-0

>  <r_epik_Charging_Adjusted_Penalty>  (183) 
0

>  <i_epik_Tot_Q>  (183) 
0

>  <i_epik_Tot_abs_Q>  (183) 
0

>  <s_lp_Force_Field>  (183) 
OPLS3e

>  <r_lp_Energy>  (183) 
6.16053

>  <b_lp_Chiralities_Consistent>  (183) 
1

>  <s_lp_Variant>  (183) 
57:0-1

>  <s_i_glide_gridfile>  (183) 
pfpi4k_grid

>  <i_i_glide_lignum>  (183) 
37

>  <i_i_glide_rotatable_bonds>  (183) 
3

>  <r_i_docking_score>  (183) 
-3.11144

>  <r_i_glide_ligand_efficiency>  (183) 
-0.194465

>  <r_i_glide_ligand_efficiency_sa>  (183) 
-0.490022

>  <r_i_glide_ligand_efficiency_ln>  (183) 
-0.82475

>  <r_i_glide_gscore>  (183) 
-3.11144

>  <r_i_glide_lipo>  (183) 
-0.127044

>  <r_i_glide_hbond>  (183) 
-0.16

>  <r_i_glide_metal>  (183) 
-0

>  <r_i_glide_rewards>  (183) 
-1.89996

>  <r_i_glide_evdw>  (183) 
-14.2148

>  <r_i_glide_ecoul>  (183) 
-3.53966

>  <r_i_glide_erotb>  (183) 
0.344466

>  <r_i_glide_esite>  (183) 
-0.0272102

>  <r_i_glide_emodel>  (183) 
-21.2742

>  <r_i_glide_energy>  (183) 
-17.7545

>  <r_i_glide_einternal>  (183) 
0.644724

>  <r_i_glide_intrahb_reward>  (183) 
-0

>  <i_i_glide_confnum>  (183) 
1

>  <i_i_glide_posenum>  (183) 
19

>  <r_i_glide_eff_state_penalty>  (183) 
0

>  <ligand_id>  (183) 
57

>  <original_smiles>  (183) 
CC(C)NC(=O)C12CC3CC(CC(C3)C1)C2

>  <smiles>  (183) 
[H]N(C(=O)C12C([H])([H])C3([H])C([H])([H])C([H])(C([H])([H])C([H])(C3([H])[H])C1([H])[H])C2([H])[H])C([H])(C([H])([H])[H])C([H])([H])[H]

$$$$
57:0:2
     RDKit          3D

 39 41  0  0  1  0  0  0  0  0999 V2000
   -0.6693    1.7624    2.6410 C   0  0  0  0  0  0  0  0  0  0  0  0
    0.2769    2.7904    3.2782 C   0  0  0  0  0  0  0  0  0  0  0  0
    1.7504    2.4809    2.9822 C   0  0  0  0  0  0  0  0  0  0  0  0
    0.0739    2.8249    4.7165 N   0  0  0  0  0  0  0  0  0  0  0  0
   -0.7194    3.6703    5.3919 C   0  0  0  0  0  0  0  0  0  0  0  0
   -1.3885    4.5423    4.8329 O   0  0  0  0  0  0  0  0  0  0  0  0
   -0.7633    3.5117    6.9332 C   0  0  2  0  0  0  0  0  0  0  0  0
    0.2941    2.4809    7.4407 C   0  0  0  0  0  0  0  0  0  0  0  0
    0.2201    2.3399    8.9701 C   0  0  1  0  0  0  0  0  0  0  0  0
    0.5105    3.6997    9.6277 C   0  0  0  0  0  0  0  0  0  0  0  0
   -0.5437    4.7225    9.1588 C   0  0  2  0  0  0  0  0  0  0  0  0
   -1.9532    4.2451    9.5600 C   0  0  0  0  0  0  0  0  0  0  0  0
   -2.2357    2.8817    8.9026 C   0  0  2  0  0  0  0  0  0  0  0  0
   -1.1842    1.8507    9.3610 C   0  0  0  0  0  0  0  0  0  0  0  0
   -2.1773    3.0314    7.3651 C   0  0  0  0  0  0  0  0  0  0  0  0
   -0.4736    4.8767    7.6215 C   0  0  0  0  0  0  0  0  0  0  0  0
   -0.5114    1.6863    1.5655 H   0  0  0  0  0  0  0  0  0  0  0  0
   -1.7104    2.0344    2.8009 H   0  0  0  0  0  0  0  0  0  0  0  0
   -0.5195    0.7712    3.0643 H   0  0  0  0  0  0  0  0  0  0  0  0
    0.0571    3.7800    2.8787 H   0  0  0  0  0  0  0  0  0  0  0  0
    1.9301    2.4166    1.9084 H   0  0  0  0  0  0  0  0  0  0  0  0
    2.0581    1.5348    3.4278 H   0  0  0  0  0  0  0  0  0  0  0  0
    2.4000    3.2609    3.3787 H   0  0  0  0  0  0  0  0  0  0  0  0
    0.5960    2.1424    5.2471 H   0  0  0  0  0  0  0  0  0  0  0  0
    0.1384    1.4953    6.9990 H   0  0  0  0  0  0  0  0  0  0  0  0
    1.3030    2.7911    7.1617 H   0  0  0  0  0  0  0  0  0  0  0  0
    0.9629    1.6128    9.3014 H   0  0  0  0  0  0  0  0  0  0  0  0
    0.4874    3.6008   10.7130 H   0  0  0  0  0  0  0  0  0  0  0  0
    1.5114    4.0421    9.3613 H   0  0  0  0  0  0  0  0  0  0  0  0
   -0.3412    5.6868    9.6218 H   0  0  0  0  0  0  0  0  0  0  0  0
   -2.0327    4.1614   10.6423 H   0  0  0  0  0  0  0  0  0  0  0  0
   -2.7021    4.9746    9.2490 H   0  0  0  0  0  0  0  0  0  0  0  0
   -3.2280    2.5431    9.1976 H   0  0  0  0  0  0  0  0  0  0  0  0
   -1.3805    0.8888    8.8936 H   0  0  0  0  0  0  0  0  0  0  0  0
   -1.2438    1.6975   10.4377 H   0  0  0  0  0  0  0  0  0  0  0  0
   -2.9430    3.7399    7.0368 H   0  0  0  0  0  0  0  0  0  0  0  0
   -2.4211    2.0776    6.8910 H   0  0  0  0  0  0  0  0  0  0  0  0
    0.5114    5.2518    7.3292 H   0  0  0  0  0  0  0  0  0  0  0  0
   -1.1933    5.6351    7.3042 H   0  0  0  0  0  0  0  0  0  0  0  0
  1  2  1  0
  1 17  1  0
  1 18  1  0
  1 19  1  0
  2  3  1  0
  2  4  1  0
  2 20  1  0
  3 21  1  0
  3 22  1  0
  3 23  1  0
  4  5  1  0
  4 24  1  0
  5  6  2  0
  7  5  1  6
  7 15  1  0
  7 16  1  0
  7  8  1  0
  8  9  1  0
  8 25  1  0
  8 26  1  0
  9 14  1  0
  9 10  1  0
  9 27  1  1
 10 11  1  0
 10 28  1  0
 10 29  1  0
 11 12  1  0
 11 16  1  0
 11 30  1  1
 12 13  1  0
 12 31  1  0
 12 32  1  0
 13 14  1  0
 13 15  1  0
 13 33  1  6
 14 34  1  0
 14 35  1  0
 15 36  1  0
 15 37  1  0
 16 38  1  0
 16 39  1  0
M  END
>  <i_m_ct_stereo_status>  (184) 
1

>  <s_m_source_file>  (184) 
/var/tmp/pbs.5076255.sched01/tmprtix0sri/443g93ja_l.sdf

>  <i_m_source_file_index>  (184) 
37

>  <i_lp_mmshare_version>  (184) 
48012

>  <i_f3d_flags>  (184) 
0

>  <s_epik_input>  (184) 
W0NIM11bQ0hdKFtDSDNdKVtOSF1DKD1PKUMxMltDSDJdW0NAQEhdM1tDSDJdW0NASF0oW0NIMl0yKVtDSDJdW0NAQEhdKFtDSDJdMylbQ0gyXTE=

>  <s_epik_cmdline>  (184) 
J2VwaWtfcHl0aG9uJywgJy1waHQnLCAnMi4wJywgJy1waCcsICc3LjAnLCAnLXRuJywgJzgnLCAnLW1hJywgJzIwMCcsICctaW1hZScsICc8aW5maWxlLm1hZT4nLCAnLW9tYWUnLCAnPG91dGZpbGUubWFlPic=

>  <r_lp_tautomer_probability>  (184) 
1

>  <r_epik_Ionization_Penalty>  (184) 
2.51005e-07

>  <r_epik_Ionization_Penalty_Charging>  (184) 
0

>  <r_epik_Ionization_Penalty_Neutral>  (184) 
2.51005e-07

>  <r_epik_State_Penalty>  (184) 
-0

>  <r_epik_Charging_Adjusted_Penalty>  (184) 
0

>  <i_epik_Tot_Q>  (184) 
0

>  <i_epik_Tot_abs_Q>  (184) 
0

>  <s_lp_Force_Field>  (184) 
OPLS3e

>  <r_lp_Energy>  (184) 
6.16053

>  <b_lp_Chiralities_Consistent>  (184) 
1

>  <s_lp_Variant>  (184) 
57:0-1

>  <s_i_glide_gridfile>  (184) 
pfpi4k_grid

>  <i_i_glide_lignum>  (184) 
37

>  <i_i_glide_rotatable_bonds>  (184) 
3

>  <r_i_docking_score>  (184) 
-2.63924

>  <r_i_glide_ligand_efficiency>  (184) 
-0.164953

>  <r_i_glide_ligand_efficiency_sa>  (184) 
-0.415655

>  <r_i_glide_ligand_efficiency_ln>  (184) 
-0.699584

>  <r_i_glide_gscore>  (184) 
-2.63924

>  <r_i_glide_lipo>  (184) 
-0.0832493

>  <r_i_glide_hbond>  (184) 
-0.0301957

>  <r_i_glide_metal>  (184) 
-0

>  <r_i_glide_rewards>  (184) 
-1.89996

>  <r_i_glide_evdw>  (184) 
-11.7236

>  <r_i_glide_ecoul>  (184) 
-2.36321

>  <r_i_glide_erotb>  (184) 
0.344466

>  <r_i_glide_esite>  (184) 
-0.0296382

>  <r_i_glide_emodel>  (184) 
-17.1619

>  <r_i_glide_energy>  (184) 
-14.0868

>  <r_i_glide_einternal>  (184) 
0.309592

>  <r_i_glide_intrahb_reward>  (184) 
-0

>  <i_i_glide_confnum>  (184) 
2

>  <i_i_glide_posenum>  (184) 
32

>  <r_i_glide_eff_state_penalty>  (184) 
0

>  <ligand_id>  (184) 
57

>  <original_smiles>  (184) 
CC(C)NC(=O)C12CC3CC(CC(C3)C1)C2

>  <smiles>  (184) 
[H]N(C(=O)C12C([H])([H])C3([H])C([H])([H])C([H])(C([H])([H])C([H])(C3([H])[H])C1([H])[H])C2([H])[H])C([H])(C([H])([H])[H])C([H])([H])[H]

$$$$
58:0:0
     RDKit          3D

 31 33  0  0  1  0  0  0  0  0999 V2000
    3.1497   -0.8177   -3.2660 C   0  0  0  0  0  0  0  0  0  0  0  0
    4.1461   -1.5146   -2.3409 C   0  0  2  0  0  0  0  0  0  0  0  0
    4.8502   -2.6645   -3.0669 C   0  0  0  0  0  0  0  0  0  0  0  0
    5.8228   -3.4205   -2.1618 C   0  0  0  0  0  0  0  0  0  0  0  0
    5.1120   -3.9406   -0.9056 C   0  0  0  0  0  0  0  0  0  0  0  0
    4.3851   -2.8083   -0.1479 C   0  0  2  0  0  0  0  0  0  0  0  0
    3.4339   -2.0502   -1.0840 C   0  0  0  0  0  0  0  0  0  0  0  0
    5.3160   -1.7751    0.5437 C   0  0  0  0  0  0  0  0  0  0  0  0
    6.1573   -1.0963   -0.1041 O   0  0  0  0  0  0  0  0  0  0  0  0
    5.0464   -1.7472    1.8528 N   0  0  0  0  0  0  0  0  0  0  0  0
    4.0465   -2.6862    2.2262 C   0  0  0  0  0  0  0  0  0  0  0  0
    3.5458   -2.9643    3.4486 N   0  0  0  0  0  0  0  0  0  0  0  0
    2.6361   -3.9331    3.4567 C   0  0  0  0  0  0  0  0  0  0  0  0
    2.1877   -4.6404    2.4155 N   0  0  0  0  0  0  0  0  0  0  0  0
    2.6841   -4.3609    1.1907 C   0  0  0  0  0  0  0  0  0  0  0  0
    3.6483   -3.3456    1.0671 C   0  0  0  0  0  0  0  0  0  0  0  0
    2.3715   -1.5086   -3.6015 H   0  0  0  0  0  0  0  0  0  0  0  0
    3.6475   -0.3995   -4.1428 H   0  0  0  0  0  0  0  0  0  0  0  0
    2.6579    0.0032   -2.7437 H   0  0  0  0  0  0  0  0  0  0  0  0
    4.8884   -0.7611   -2.0525 H   0  0  0  0  0  0  0  0  0  0  0  0
    4.1146   -3.3590   -3.4785 H   0  0  0  0  0  0  0  0  0  0  0  0
    5.4097   -2.2561   -3.9077 H   0  0  0  0  0  0  0  0  0  0  0  0
    6.2374   -4.2554   -2.7156 H   0  0  0  0  0  0  0  0  0  0  0  0
    6.6626   -2.7840   -1.8790 H   0  0  0  0  0  0  0  0  0  0  0  0
    4.3855   -4.7055   -1.1989 H   0  0  0  0  0  0  0  0  0  0  0  0
    5.8233   -4.4396   -0.2458 H   0  0  0  0  0  0  0  0  0  0  0  0
    3.0112   -1.2033   -0.5443 H   0  0  0  0  0  0  0  0  0  0  0  0
    2.5939   -2.6863   -1.3726 H   0  0  0  0  0  0  0  0  0  0  0  0
    5.4715   -1.1229    2.5293 H   0  0  0  0  0  0  0  0  0  0  0  0
    2.2293   -4.1644    4.4119 H   0  0  0  0  0  0  0  0  0  0  0  0
    2.3251   -4.9264    0.3508 H   0  0  0  0  0  0  0  0  0  0  0  0
  1  2  1  0
  1 17  1  0
  1 18  1  0
  1 19  1  0
  2  7  1  0
  2  3  1  0
  2 20  1  1
  3  4  1  0
  3 21  1  0
  3 22  1  0
  4  5  1  0
  4 23  1  0
  4 24  1  0
  6  5  1  6
  5 25  1  0
  5 26  1  0
  6 16  1  0
  6  7  1  0
  6  8  1  0
  7 27  1  0
  7 28  1  0
  8  9  2  0
  8 10  1  0
 10 11  1  0
 10 29  1  0
 11 16  2  0
 11 12  1  0
 12 13  2  0
 13 14  1  0
 13 30  1  0
 14 15  2  0
 15 16  1  0
 15 31  1  0
M  END
>  <i_m_ct_stereo_status>  (185) 
1

>  <s_m_source_file>  (185) 
/var/tmp/pbs.5076255.sched01/tmprtix0sri/443g93ja_l.sdf

>  <i_m_source_file_index>  (185) 
38

>  <i_lp_mmshare_version>  (185) 
48012

>  <i_f3d_flags>  (185) 
0

>  <s_epik_input>  (185) 
W0NIM11bQ0BASF0oW0NIMl0xKVtDSDJdW0NIMl1bQ0gyXVtDQF0xMmMzYyhbTkhdQzI9TyluW2NIXW5bY0hdMw==

>  <s_epik_cmdline>  (185) 
J2VwaWtfcHl0aG9uJywgJy1waHQnLCAnMi4wJywgJy1waCcsICc3LjAnLCAnLXRuJywgJzgnLCAnLW1hJywgJzIwMCcsICctaW1hZScsICc8aW5maWxlLm1hZT4nLCAnLW9tYWUnLCAnPG91dGZpbGUubWFlPic=

>  <r_lp_tautomer_probability>  (185) 
1

>  <r_epik_Ionization_Penalty>  (185) 
2.04344e-06

>  <r_epik_Ionization_Penalty_Charging>  (185) 
0

>  <r_epik_Ionization_Penalty_Neutral>  (185) 
2.04344e-06

>  <r_epik_State_Penalty>  (185) 
-0

>  <r_epik_Charging_Adjusted_Penalty>  (185) 
0

>  <i_epik_Tot_Q>  (185) 
0

>  <i_epik_Tot_abs_Q>  (185) 
0

>  <s_lp_Force_Field>  (185) 
OPLS3e

>  <r_lp_Energy>  (185) 
43.9475

>  <b_lp_Chiralities_Consistent>  (185) 
1

>  <s_lp_Variant>  (185) 
58:0-1

>  <s_i_glide_gridfile>  (185) 
pfpi4k_grid

>  <i_i_glide_lignum>  (185) 
38

>  <i_i_glide_rotatable_bonds>  (185) 
0

>  <r_i_docking_score>  (185) 
-3.64506

>  <r_i_glide_ligand_efficiency>  (185) 
-0.227816

>  <r_i_glide_ligand_efficiency_sa>  (185) 
-0.574061

>  <r_i_glide_ligand_efficiency_ln>  (185) 
-0.966197

>  <r_i_glide_gscore>  (185) 
-3.64506

>  <r_i_glide_lipo>  (185) 
-0.463872

>  <r_i_glide_hbond>  (185) 
-0.0264919

>  <r_i_glide_metal>  (185) 
-0

>  <r_i_glide_rewards>  (185) 
-2.01282

>  <r_i_glide_evdw>  (185) 
-18.8325

>  <r_i_glide_ecoul>  (185) 
-1.33506

>  <r_i_glide_erotb>  (185) 
0

>  <r_i_glide_esite>  (185) 
0

>  <r_i_glide_emodel>  (185) 
-25.1679

>  <r_i_glide_energy>  (185) 
-20.1675

>  <r_i_glide_einternal>  (185) 
0

>  <r_i_glide_intrahb_reward>  (185) 
-0

>  <i_i_glide_confnum>  (185) 
1

>  <i_i_glide_posenum>  (185) 
16

>  <r_i_glide_eff_state_penalty>  (185) 
0

>  <ligand_id>  (185) 
58

>  <original_smiles>  (185) 
CC1CCCC2(C1)C(=O)Nc1ncncc12

>  <smiles>  (185) 
[H]c1nc([H])c2c(n1)N([H])C(=O)C21C([H])([H])C([H])([H])C([H])([H])C([H])(C([H])([H])[H])C1([H])[H]

$$$$
58:0:1
     RDKit          3D

 31 33  0  0  1  0  0  0  0  0999 V2000
   -0.7858    2.4812    7.1256 C   0  0  0  0  0  0  0  0  0  0  0  0
   -0.5854    2.6778    5.6232 C   0  0  2  0  0  0  0  0  0  0  0  0
   -1.9353    2.7708    4.8794 C   0  0  0  0  0  0  0  0  0  0  0  0
   -1.7582    2.9045    3.3569 C   0  0  0  0  0  0  0  0  0  0  0  0
   -0.8828    1.7660    2.7970 C   0  0  0  0  0  0  0  0  0  0  0  0
    0.4806    1.6673    3.5235 C   0  0  2  0  0  0  0  0  0  0  0  0
    0.2781    1.5345    5.0436 C   0  0  0  0  0  0  0  0  0  0  0  0
    1.4751    2.8213    3.2420 C   0  0  0  0  0  0  0  0  0  0  0  0
    1.2087    4.0310    3.5400 O   0  0  0  0  0  0  0  0  0  0  0  0
    2.5959    2.3620    2.7229 N   0  0  0  0  0  0  0  0  0  0  0  0
    2.5607    0.9580    2.5214 C   0  0  0  0  0  0  0  0  0  0  0  0
    3.4821    0.1442    2.0024 N   0  0  0  0  0  0  0  0  0  0  0  0
    3.1086   -1.1398    1.9348 C   0  0  0  0  0  0  0  0  0  0  0  0
    1.9491   -1.6791    2.3289 N   0  0  0  0  0  0  0  0  0  0  0  0
    1.0246   -0.8452    2.8562 C   0  0  0  0  0  0  0  0  0  0  0  0
    1.3240    0.5252    2.9748 C   0  0  0  0  0  0  0  0  0  0  0  0
   -1.3048    1.5474    7.3389 H   0  0  0  0  0  0  0  0  0  0  0  0
   -1.3619    3.3017    7.5538 H   0  0  0  0  0  0  0  0  0  0  0  0
    0.1761    2.4549    7.6411 H   0  0  0  0  0  0  0  0  0  0  0  0
   -0.0622    3.6320    5.5078 H   0  0  0  0  0  0  0  0  0  0  0  0
   -2.5197    1.8762    5.0935 H   0  0  0  0  0  0  0  0  0  0  0  0
   -2.5073    3.6194    5.2574 H   0  0  0  0  0  0  0  0  0  0  0  0
   -2.7315    2.8891    2.8667 H   0  0  0  0  0  0  0  0  0  0  0  0
   -1.3069    3.8652    3.1082 H   0  0  0  0  0  0  0  0  0  0  0  0
   -1.4287    0.8225    2.8993 H   0  0  0  0  0  0  0  0  0  0  0  0
   -0.7305    1.9079    1.7260 H   0  0  0  0  0  0  0  0  0  0  0  0
    1.2478    1.5367    5.5419 H   0  0  0  0  0  0  0  0  0  0  0  0
   -0.1735    0.5707    5.2855 H   0  0  0  0  0  0  0  0  0  0  0  0
    3.4357    2.9020    2.4917 H   0  0  0  0  0  0  0  0  0  0  0  0
    3.8447   -1.8049    1.5216 H   0  0  0  0  0  0  0  0  0  0  0  0
    0.0766   -1.2752    3.1720 H   0  0  0  0  0  0  0  0  0  0  0  0
  1  2  1  0
  1 17  1  0
  1 18  1  0
  1 19  1  0
  2  7  1  0
  2  3  1  0
  2 20  1  1
  3  4  1  0
  3 21  1  0
  3 22  1  0
  4  5  1  0
  4 23  1  0
  4 24  1  0
  6  5  1  6
  5 25  1  0
  5 26  1  0
  6 16  1  0
  6  7  1  0
  6  8  1  0
  7 27  1  0
  7 28  1  0
  8  9  2  0
  8 10  1  0
 10 11  1  0
 10 29  1  0
 11 16  2  0
 11 12  1  0
 12 13  2  0
 13 14  1  0
 13 30  1  0
 14 15  2  0
 15 16  1  0
 15 31  1  0
M  END
>  <i_m_ct_stereo_status>  (186) 
1

>  <s_m_source_file>  (186) 
/var/tmp/pbs.5076255.sched01/tmprtix0sri/443g93ja_l.sdf

>  <i_m_source_file_index>  (186) 
38

>  <i_lp_mmshare_version>  (186) 
48012

>  <i_f3d_flags>  (186) 
0

>  <s_epik_input>  (186) 
W0NIM11bQ0BASF0oW0NIMl0xKVtDSDJdW0NIMl1bQ0gyXVtDQF0xMmMzYyhbTkhdQzI9TyluW2NIXW5bY0hdMw==

>  <s_epik_cmdline>  (186) 
J2VwaWtfcHl0aG9uJywgJy1waHQnLCAnMi4wJywgJy1waCcsICc3LjAnLCAnLXRuJywgJzgnLCAnLW1hJywgJzIwMCcsICctaW1hZScsICc8aW5maWxlLm1hZT4nLCAnLW9tYWUnLCAnPG91dGZpbGUubWFlPic=

>  <r_lp_tautomer_probability>  (186) 
1

>  <r_epik_Ionization_Penalty>  (186) 
2.04344e-06

>  <r_epik_Ionization_Penalty_Charging>  (186) 
0

>  <r_epik_Ionization_Penalty_Neutral>  (186) 
2.04344e-06

>  <r_epik_State_Penalty>  (186) 
-0

>  <r_epik_Charging_Adjusted_Penalty>  (186) 
0

>  <i_epik_Tot_Q>  (186) 
0

>  <i_epik_Tot_abs_Q>  (186) 
0

>  <s_lp_Force_Field>  (186) 
OPLS3e

>  <r_lp_Energy>  (186) 
43.9475

>  <b_lp_Chiralities_Consistent>  (186) 
1

>  <s_lp_Variant>  (186) 
58:0-1

>  <s_i_glide_gridfile>  (186) 
pfpi4k_grid

>  <i_i_glide_lignum>  (186) 
38

>  <i_i_glide_rotatable_bonds>  (186) 
0

>  <r_i_docking_score>  (186) 
-3.5079

>  <r_i_glide_ligand_efficiency>  (186) 
-0.219244

>  <r_i_glide_ligand_efficiency_sa>  (186) 
-0.55246

>  <r_i_glide_ligand_efficiency_ln>  (186) 
-0.92984

>  <r_i_glide_gscore>  (186) 
-3.5079

>  <r_i_glide_lipo>  (186) 
-0.0108361

>  <r_i_glide_hbond>  (186) 
-0.242262

>  <r_i_glide_metal>  (186) 
-0

>  <r_i_glide_rewards>  (186) 
-1.92773

>  <r_i_glide_evdw>  (186) 
-18.7746

>  <r_i_glide_ecoul>  (186) 
-1.88859

>  <r_i_glide_erotb>  (186) 
0

>  <r_i_glide_esite>  (186) 
-0.105065

>  <r_i_glide_emodel>  (186) 
-25.5442

>  <r_i_glide_energy>  (186) 
-20.6631

>  <r_i_glide_einternal>  (186) 
0

>  <r_i_glide_intrahb_reward>  (186) 
-0

>  <i_i_glide_confnum>  (186) 
2

>  <i_i_glide_posenum>  (186) 
35

>  <r_i_glide_eff_state_penalty>  (186) 
0

>  <ligand_id>  (186) 
58

>  <original_smiles>  (186) 
CC1CCCC2(C1)C(=O)Nc1ncncc12

>  <smiles>  (186) 
[H]c1nc([H])c2c(n1)N([H])C(=O)C21C([H])([H])C([H])([H])C([H])([H])C([H])(C([H])([H])[H])C1([H])[H]

$$$$
58:0:2
     RDKit          3D

 31 33  0  0  1  0  0  0  0  0999 V2000
   -3.0146    3.2556    2.7207 C   0  0  0  0  0  0  0  0  0  0  0  0
   -2.0156    2.6176    3.6790 C   0  0  2  0  0  0  0  0  0  0  0  0
   -1.3803    3.6729    4.6054 C   0  0  0  0  0  0  0  0  0  0  0  0
   -0.3239    3.0662    5.5435 C   0  0  0  0  0  0  0  0  0  0  0  0
    0.7442    2.3002    4.7494 C   0  0  0  0  0  0  0  0  0  0  0  0
    0.1243    1.2345    3.8130 C   0  0  2  0  0  0  0  0  0  0  0  0
   -0.9316    1.8578    2.8905 C   0  0  0  0  0  0  0  0  0  0  0  0
   -0.5122    0.0210    4.5534 C   0  0  0  0  0  0  0  0  0  0  0  0
   -1.4274    0.0971    5.3759 O   0  0  0  0  0  0  0  0  0  0  0  0
    0.0956   -1.1161    4.1308 N   0  0  0  0  0  0  0  0  0  0  0  0
    1.1278   -0.8575    3.2102 C   0  0  0  0  0  0  0  0  0  0  0  0
    1.9618   -1.7382    2.6085 N   0  0  0  0  0  0  0  0  0  0  0  0
    2.8633   -1.1681    1.8139 C   0  0  0  0  0  0  0  0  0  0  0  0
    3.0437    0.1342    1.5685 N   0  0  0  0  0  0  0  0  0  0  0  0
    2.1921    1.0046    2.1591 C   0  0  0  0  0  0  0  0  0  0  0  0
    1.1949    0.5081    3.0154 C   0  0  0  0  0  0  0  0  0  0  0  0
   -2.5238    3.9810    2.0829 H   0  0  0  0  0  0  0  0  0  0  0  0
   -3.8175    3.7437    3.2693 H   0  0  0  0  0  0  0  0  0  0  0  0
   -3.4825    2.5065    2.0840 H   0  0  0  0  0  0  0  0  0  0  0  0
   -2.5851    1.9177    4.2914 H   0  0  0  0  0  0  0  0  0  0  0  0
   -0.9151    4.4489    3.9931 H   0  0  0  0  0  0  0  0  0  0  0  0
   -2.1589    4.1528    5.1996 H   0  0  0  0  0  0  0  0  0  0  0  0
    0.1484    3.8535    6.1306 H   0  0  0  0  0  0  0  0  0  0  0  0
   -0.7998    2.3998    6.2634 H   0  0  0  0  0  0  0  0  0  0  0  0
    1.3214    3.0141    4.1521 H   0  0  0  0  0  0  0  0  0  0  0  0
    1.4573    1.8372    5.4313 H   0  0  0  0  0  0  0  0  0  0  0  0
   -1.4055    1.0744    2.2924 H   0  0  0  0  0  0  0  0  0  0  0  0
   -0.4570    2.5280    2.1704 H   0  0  0  0  0  0  0  0  0  0  0  0
   -0.1686   -2.0410    4.4084 H   0  0  0  0  0  0  0  0  0  0  0  0
    3.5429   -1.8497    1.3321 H   0  0  0  0  0  0  0  0  0  0  0  0
    2.3301    2.0601    1.9597 H   0  0  0  0  0  0  0  0  0  0  0  0
  1  2  1  0
  1 17  1  0
  1 18  1  0
  1 19  1  0
  2  7  1  0
  2  3  1  0
  2 20  1  1
  3  4  1  0
  3 21  1  0
  3 22  1  0
  4  5  1  0
  4 23  1  0
  4 24  1  0
  6  5  1  1
  5 25  1  0
  5 26  1  0
  6 16  1  0
  6  7  1  0
  6  8  1  0
  7 27  1  0
  7 28  1  0
  8  9  2  0
  8 10  1  0
 10 11  1  0
 10 29  1  0
 11 16  2  0
 11 12  1  0
 12 13  2  0
 13 14  1  0
 13 30  1  0
 14 15  2  0
 15 16  1  0
 15 31  1  0
M  END
>  <i_m_ct_stereo_status>  (187) 
1

>  <s_m_source_file>  (187) 
/var/tmp/pbs.5076255.sched01/tmprtix0sri/443g93ja_l.sdf

>  <i_m_source_file_index>  (187) 
38

>  <i_lp_mmshare_version>  (187) 
48012

>  <i_f3d_flags>  (187) 
0

>  <s_epik_input>  (187) 
W0NIM11bQ0BASF0oW0NIMl0xKVtDSDJdW0NIMl1bQ0gyXVtDQF0xMmMzYyhbTkhdQzI9TyluW2NIXW5bY0hdMw==

>  <s_epik_cmdline>  (187) 
J2VwaWtfcHl0aG9uJywgJy1waHQnLCAnMi4wJywgJy1waCcsICc3LjAnLCAnLXRuJywgJzgnLCAnLW1hJywgJzIwMCcsICctaW1hZScsICc8aW5maWxlLm1hZT4nLCAnLW9tYWUnLCAnPG91dGZpbGUubWFlPic=

>  <r_lp_tautomer_probability>  (187) 
1

>  <r_epik_Ionization_Penalty>  (187) 
2.04344e-06

>  <r_epik_Ionization_Penalty_Charging>  (187) 
0

>  <r_epik_Ionization_Penalty_Neutral>  (187) 
2.04344e-06

>  <r_epik_State_Penalty>  (187) 
-0

>  <r_epik_Charging_Adjusted_Penalty>  (187) 
0

>  <i_epik_Tot_Q>  (187) 
0

>  <i_epik_Tot_abs_Q>  (187) 
0

>  <s_lp_Force_Field>  (187) 
OPLS3e

>  <r_lp_Energy>  (187) 
43.9475

>  <b_lp_Chiralities_Consistent>  (187) 
1

>  <s_lp_Variant>  (187) 
58:0-1

>  <s_i_glide_gridfile>  (187) 
pfpi4k_grid

>  <i_i_glide_lignum>  (187) 
38

>  <i_i_glide_rotatable_bonds>  (187) 
0

>  <r_i_docking_score>  (187) 
-3.33946

>  <r_i_glide_ligand_efficiency>  (187) 
-0.208716

>  <r_i_glide_ligand_efficiency_sa>  (187) 
-0.525932

>  <r_i_glide_ligand_efficiency_ln>  (187) 
-0.885191

>  <r_i_glide_gscore>  (187) 
-3.33946

>  <r_i_glide_lipo>  (187) 
0

>  <r_i_glide_hbond>  (187) 
0

>  <r_i_glide_metal>  (187) 
-0

>  <r_i_glide_rewards>  (187) 
-1.92773

>  <r_i_glide_evdw>  (187) 
-20.5705

>  <r_i_glide_ecoul>  (187) 
-2.12254

>  <r_i_glide_erotb>  (187) 
0

>  <r_i_glide_esite>  (187) 
-0.064831

>  <r_i_glide_emodel>  (187) 
-27.3521

>  <r_i_glide_energy>  (187) 
-22.693

>  <r_i_glide_einternal>  (187) 
0

>  <r_i_glide_intrahb_reward>  (187) 
-0

>  <i_i_glide_confnum>  (187) 
1

>  <i_i_glide_posenum>  (187) 
9

>  <r_i_glide_eff_state_penalty>  (187) 
0

>  <ligand_id>  (187) 
58

>  <original_smiles>  (187) 
CC1CCCC2(C1)C(=O)Nc1ncncc12

>  <smiles>  (187) 
[H]c1nc([H])c2c(n1)N([H])C(=O)C21C([H])([H])C([H])([H])C([H])([H])C([H])(C([H])([H])[H])C1([H])[H]

$$$$
59:0:0
     RDKit          3D

 26 28  0  0  1  0  0  0  0  0999 V2000
   -0.2063   -1.7028    5.3213 C   0  0  0  0  0  0  0  0  0  0  0  0
   -0.3966   -0.4123    4.6406 N   0  0  0  0  0  0  0  0  0  0  0  0
   -1.3912    0.4298    5.0855 C   0  0  0  0  0  0  0  0  0  0  0  0
   -2.1172    0.1253    6.0412 O   0  0  0  0  0  0  0  0  0  0  0  0
   -1.5121    1.6208    4.4274 N   0  0  0  0  0  0  0  0  0  0  0  0
   -2.3800    2.7410    4.7660 C   0  0  0  0  0  0  0  0  0  0  0  0
   -1.7311    3.9008    3.9779 C   0  0  0  0  0  0  0  0  0  0  0  0
   -0.9949    3.2553    2.9124 N   0  0  0  0  0  0  0  0  0  0  0  0
   -0.7231    1.9847    3.3400 C   0  0  0  0  0  0  0  0  0  0  0  0
    0.2151    1.1427    2.9084 C   0  0  0  0  0  0  0  0  0  0  0  0
    1.1458    1.2767    1.9053 N   0  0  0  0  0  0  0  0  0  0  0  0
    1.8147    0.0734    2.0085 N   0  0  0  0  0  0  0  0  0  0  0  0
    2.9406   -0.2832    1.1515 C   0  0  0  0  0  0  0  0  0  0  0  0
    1.4196   -0.7596    3.0405 N   0  0  0  0  0  0  0  0  0  0  0  0
    0.4458   -0.0902    3.5480 C   0  0  0  0  0  0  0  0  0  0  0  0
   -0.0217   -1.5428    6.3863 H   0  0  0  0  0  0  0  0  0  0  0  0
    0.6185   -2.3058    4.9348 H   0  0  0  0  0  0  0  0  0  0  0  0
   -1.1194   -2.2917    5.2249 H   0  0  0  0  0  0  0  0  0  0  0  0
   -3.3718    2.5455    4.3539 H   0  0  0  0  0  0  0  0  0  0  0  0
   -2.4712    2.9225    5.8401 H   0  0  0  0  0  0  0  0  0  0  0  0
   -2.4583    4.6445    3.6445 H   0  0  0  0  0  0  0  0  0  0  0  0
   -0.9859    4.3776    4.6139 H   0  0  0  0  0  0  0  0  0  0  0  0
    3.3026   -1.2794    1.3910 H   0  0  0  0  0  0  0  0  0  0  0  0
    3.7480    0.4324    1.2706 H   0  0  0  0  0  0  0  0  0  0  0  0
    2.6360   -0.2753    0.1095 H   0  0  0  0  0  0  0  0  0  0  0  0
   -0.4481    3.7672    2.2099 H   0  0  0  0  0  0  0  0  0  0  0  0
  1  2  1  0
  1 16  1  0
  1 17  1  0
  1 18  1  0
  2 15  1  0
  2  3  1  0
  3  4  2  0
  3  5  1  0
  5  9  1  0
  5  6  1  0
  6  7  1  0
  6 19  1  0
  6 20  1  0
  7  8  1  0
  7 21  1  0
  7 22  1  0
  8  9  1  0
  8 26  1  0
  9 10  2  0
 10 15  1  0
 10 11  1  0
 11 12  2  0
 12 13  1  0
 12 14  1  0
 13 23  1  0
 13 24  1  0
 13 25  1  0
 14 15  2  0
M  CHG  1  12   1
M  END
>  <i_m_ct_stereo_status>  (188) 
1

>  <s_m_source_file>  (188) 
/var/tmp/pbs.5076255.sched01/tmprtix0sri/443g93ja_l.sdf

>  <i_m_source_file_index>  (188) 
39

>  <i_lp_mmshare_version>  (188) 
48012

>  <i_f3d_flags>  (188) 
0

>  <s_epik_input>  (188) 
Tz1DMU4oW0NIM10pYyhubihuMilbQ0gzXSljMkMoTjEzKT1OW0NIMl1bQ0gyXTM=

>  <s_epik_cmdline>  (188) 
J2VwaWtfcHl0aG9uJywgJy1waHQnLCAnMi4wJywgJy1waCcsICc3LjAnLCAnLXRuJywgJzgnLCAnLW1hJywgJzIwMCcsICctaW1hZScsICc8aW5maWxlLm1hZT4nLCAnLW9tYWUnLCAnPG91dGZpbGUubWFlPic=

>  <r_epik_Ionization_Penalty>  (188) 
0.210704

>  <r_epik_Ionization_Penalty_Charging>  (188) 
1.31558e-16

>  <r_epik_Ionization_Penalty_Neutral>  (188) 
0.210704

>  <r_epik_State_Penalty>  (188) 
0.0661293

>  <r_epik_Charging_Adjusted_Penalty>  (188) 
0.0661293

>  <i_epik_Tot_Q>  (188) 
1

>  <i_epik_Tot_abs_Q>  (188) 
1

>  <s_lp_Force_Field>  (188) 
OPLS3e

>  <r_lp_Energy>  (188) 
32.6949

>  <b_lp_Chiralities_Consistent>  (188) 
1

>  <s_lp_Variant>  (188) 
59:0-1

>  <s_i_glide_gridfile>  (188) 
pfpi4k_grid

>  <i_i_glide_lignum>  (188) 
39

>  <i_i_glide_rotatable_bonds>  (188) 
0

>  <r_i_docking_score>  (188) 
-4.83122

>  <r_i_glide_ligand_efficiency>  (188) 
-0.322081

>  <r_i_glide_ligand_efficiency_sa>  (188) 
-0.794321

>  <r_i_glide_ligand_efficiency_ln>  (188) 
-1.3029

>  <r_i_glide_gscore>  (188) 
-4.83122

>  <r_i_glide_lipo>  (188) 
0

>  <r_i_glide_hbond>  (188) 
-0.32

>  <r_i_glide_metal>  (188) 
-0

>  <r_i_glide_rewards>  (188) 
-1.99628

>  <r_i_glide_evdw>  (188) 
-16.4493

>  <r_i_glide_ecoul>  (188) 
-9.62734

>  <r_i_glide_erotb>  (188) 
0

>  <r_i_glide_esite>  (188) 
-0.248375

>  <r_i_glide_emodel>  (188) 
-35.0375

>  <r_i_glide_energy>  (188) 
-26.0766

>  <r_i_glide_einternal>  (188) 
0

>  <r_i_glide_intrahb_reward>  (188) 
-0

>  <i_i_glide_confnum>  (188) 
2

>  <i_i_glide_posenum>  (188) 
6

>  <r_i_glide_eff_state_penalty>  (188) 
0

>  <ligand_id>  (188) 
59

>  <original_smiles>  (188) 
CN1C(=O)N2CCN=C2c2nn(C)nc21

>  <smiles>  (188) 
[H]N1c2c3n[n+](C([H])([H])[H])nc-3n(C([H])([H])[H])c(=O)n2C([H])([H])C1([H])[H]

$$$$
59:0:1
     RDKit          3D

 26 28  0  0  1  0  0  0  0  0999 V2000
    7.0477   -3.5747    0.6234 C   0  0  0  0  0  0  0  0  0  0  0  0
    5.7884   -3.4902   -0.1360 N   0  0  0  0  0  0  0  0  0  0  0  0
    5.6927   -2.5995   -1.1816 C   0  0  0  0  0  0  0  0  0  0  0  0
    6.6225   -1.8660   -1.5015 O   0  0  0  0  0  0  0  0  0  0  0  0
    4.5088   -2.5835   -1.8621 N   0  0  0  0  0  0  0  0  0  0  0  0
    4.2009   -1.8391   -3.0708 C   0  0  0  0  0  0  0  0  0  0  0  0
    2.9284   -2.5520   -3.5747 C   0  0  0  0  0  0  0  0  0  0  0  0
    2.3675   -3.1753   -2.3941 N   0  0  0  0  0  0  0  0  0  0  0  0
    3.3966   -3.3363   -1.5025 C   0  0  0  0  0  0  0  0  0  0  0  0
    3.4909   -4.1354   -0.4320 C   0  0  0  0  0  0  0  0  0  0  0  0
    2.5823   -5.0200    0.1000 N   0  0  0  0  0  0  0  0  0  0  0  0
    3.3595   -5.6506    1.0500 N   0  0  0  0  0  0  0  0  0  0  0  0
    2.8055   -6.6549    1.9612 C   0  0  0  0  0  0  0  0  0  0  0  0
    4.6620   -5.1995    1.1890 N   0  0  0  0  0  0  0  0  0  0  0  0
    4.7028   -4.3042    0.2718 C   0  0  0  0  0  0  0  0  0  0  0  0
    7.8763   -3.8199   -0.0445 H   0  0  0  0  0  0  0  0  0  0  0  0
    7.0506   -4.3110    1.4316 H   0  0  0  0  0  0  0  0  0  0  0  0
    7.2562   -2.6017    1.0718 H   0  0  0  0  0  0  0  0  0  0  0  0
    3.9779   -0.8107   -2.7855 H   0  0  0  0  0  0  0  0  0  0  0  0
    5.0108   -1.8260   -3.8097 H   0  0  0  0  0  0  0  0  0  0  0  0
    2.2441   -1.9008   -4.1290 H   0  0  0  0  0  0  0  0  0  0  0  0
    3.2277   -3.3775   -4.2223 H   0  0  0  0  0  0  0  0  0  0  0  0
    3.5292   -6.9303    2.7234 H   0  0  0  0  0  0  0  0  0  0  0  0
    2.5317   -7.5417    1.3977 H   0  0  0  0  0  0  0  0  0  0  0  0
    1.9158   -6.2642    2.4463 H   0  0  0  0  0  0  0  0  0  0  0  0
    1.5822   -3.8104   -2.4832 H   0  0  0  0  0  0  0  0  0  0  0  0
  1  2  1  0
  1 16  1  0
  1 17  1  0
  1 18  1  0
  2 15  1  0
  2  3  1  0
  3  4  2  0
  3  5  1  0
  5  9  1  0
  5  6  1  0
  6  7  1  0
  6 19  1  0
  6 20  1  0
  7  8  1  0
  7 21  1  0
  7 22  1  0
  8  9  1  0
  8 26  1  0
  9 10  2  0
 10 15  1  0
 10 11  1  0
 11 12  2  0
 12 13  1  0
 12 14  1  0
 13 23  1  0
 13 24  1  0
 13 25  1  0
 14 15  2  0
M  CHG  1  12   1
M  END
>  <i_m_ct_stereo_status>  (189) 
1

>  <s_m_source_file>  (189) 
/var/tmp/pbs.5076255.sched01/tmprtix0sri/443g93ja_l.sdf

>  <i_m_source_file_index>  (189) 
39

>  <i_lp_mmshare_version>  (189) 
48012

>  <i_f3d_flags>  (189) 
0

>  <s_epik_input>  (189) 
Tz1DMU4oW0NIM10pYyhubihuMilbQ0gzXSljMkMoTjEzKT1OW0NIMl1bQ0gyXTM=

>  <s_epik_cmdline>  (189) 
J2VwaWtfcHl0aG9uJywgJy1waHQnLCAnMi4wJywgJy1waCcsICc3LjAnLCAnLXRuJywgJzgnLCAnLW1hJywgJzIwMCcsICctaW1hZScsICc8aW5maWxlLm1hZT4nLCAnLW9tYWUnLCAnPG91dGZpbGUubWFlPic=

>  <r_epik_Ionization_Penalty>  (189) 
0.210704

>  <r_epik_Ionization_Penalty_Charging>  (189) 
1.31558e-16

>  <r_epik_Ionization_Penalty_Neutral>  (189) 
0.210704

>  <r_epik_State_Penalty>  (189) 
0.0661293

>  <r_epik_Charging_Adjusted_Penalty>  (189) 
0.0661293

>  <i_epik_Tot_Q>  (189) 
1

>  <i_epik_Tot_abs_Q>  (189) 
1

>  <s_lp_Force_Field>  (189) 
OPLS3e

>  <r_lp_Energy>  (189) 
32.6949

>  <b_lp_Chiralities_Consistent>  (189) 
1

>  <s_lp_Variant>  (189) 
59:0-1

>  <s_i_glide_gridfile>  (189) 
pfpi4k_grid

>  <i_i_glide_lignum>  (189) 
39

>  <i_i_glide_rotatable_bonds>  (189) 
0

>  <r_i_docking_score>  (189) 
-4.80976

>  <r_i_glide_ligand_efficiency>  (189) 
-0.32065

>  <r_i_glide_ligand_efficiency_sa>  (189) 
-0.790792

>  <r_i_glide_ligand_efficiency_ln>  (189) 
-1.29711

>  <r_i_glide_gscore>  (189) 
-4.80976

>  <r_i_glide_lipo>  (189) 
-0.508717

>  <r_i_glide_hbond>  (189) 
-0.220721

>  <r_i_glide_metal>  (189) 
-0

>  <r_i_glide_rewards>  (189) 
-2.13937

>  <r_i_glide_evdw>  (189) 
-18.1008

>  <r_i_glide_ecoul>  (189) 
-6.77904

>  <r_i_glide_erotb>  (189) 
0

>  <r_i_glide_esite>  (189) 
-0.0190525

>  <r_i_glide_emodel>  (189) 
-34.2652

>  <r_i_glide_energy>  (189) 
-24.8798

>  <r_i_glide_einternal>  (189) 
0

>  <r_i_glide_intrahb_reward>  (189) 
-0

>  <i_i_glide_confnum>  (189) 
1

>  <i_i_glide_posenum>  (189) 
12

>  <r_i_glide_eff_state_penalty>  (189) 
0

>  <ligand_id>  (189) 
59

>  <original_smiles>  (189) 
CN1C(=O)N2CCN=C2c2nn(C)nc21

>  <smiles>  (189) 
[H]N1c2c3n[n+](C([H])([H])[H])nc-3n(C([H])([H])[H])c(=O)n2C([H])([H])C1([H])[H]

$$$$
59:0:2
     RDKit          3D

 26 28  0  0  1  0  0  0  0  0999 V2000
    6.1147   -2.6277    1.4263 C   0  0  0  0  0  0  0  0  0  0  0  0
    5.0529   -2.8108    0.4185 N   0  0  0  0  0  0  0  0  0  0  0  0
    5.0111   -1.9677   -0.6739 C   0  0  0  0  0  0  0  0  0  0  0  0
    5.8310   -1.0658   -0.8292 O   0  0  0  0  0  0  0  0  0  0  0  0
    4.0344   -2.2150   -1.5910 N   0  0  0  0  0  0  0  0  0  0  0  0
    3.8547   -1.5589   -2.8779 C   0  0  0  0  0  0  0  0  0  0  0  0
    2.8951   -2.5355   -3.6013 C   0  0  0  0  0  0  0  0  0  0  0  0
    2.2311   -3.2574   -2.5357 N   0  0  0  0  0  0  0  0  0  0  0  0
    3.0516   -3.1934   -1.4367 C   0  0  0  0  0  0  0  0  0  0  0  0
    3.0747   -3.9533   -0.3350 C   0  0  0  0  0  0  0  0  0  0  0  0
    2.2847   -5.0144    0.0383 N   0  0  0  0  0  0  0  0  0  0  0  0
    2.9424   -5.4505    1.1624 N   0  0  0  0  0  0  0  0  0  0  0  0
    2.4139   -6.5328    1.9870 C   0  0  0  0  0  0  0  0  0  0  0  0
    4.0475   -4.7165    1.5543 N   0  0  0  0  0  0  0  0  0  0  0  0
    4.1042   -3.8360    0.6239 C   0  0  0  0  0  0  0  0  0  0  0  0
    7.1025   -2.6984    0.9650 H   0  0  0  0  0  0  0  0  0  0  0  0
    6.0933   -3.3436    2.2526 H   0  0  0  0  0  0  0  0  0  0  0  0
    6.0214   -1.6318    1.8618 H   0  0  0  0  0  0  0  0  0  0  0  0
    3.3668   -0.6002   -2.6974 H   0  0  0  0  0  0  0  0  0  0  0  0
    4.7916   -1.3771   -3.4113 H   0  0  0  0  0  0  0  0  0  0  0  0
    2.2263   -2.0378   -4.3094 H   0  0  0  0  0  0  0  0  0  0  0  0
    3.4959   -3.2726   -4.1355 H   0  0  0  0  0  0  0  0  0  0  0  0
    2.9918   -6.6446    2.9006 H   0  0  0  0  0  0  0  0  0  0  0  0
    2.4559   -7.4640    1.4288 H   0  0  0  0  0  0  0  0  0  0  0  0
    1.3779   -6.3350    2.2514 H   0  0  0  0  0  0  0  0  0  0  0  0
    1.6289   -4.0469   -2.7544 H   0  0  0  0  0  0  0  0  0  0  0  0
  1  2  1  0
  1 16  1  0
  1 17  1  0
  1 18  1  0
  2 15  1  0
  2  3  1  0
  3  4  2  0
  3  5  1  0
  5  9  1  0
  5  6  1  0
  6  7  1  0
  6 19  1  0
  6 20  1  0
  7  8  1  0
  7 21  1  0
  7 22  1  0
  8  9  1  0
  8 26  1  0
  9 10  2  0
 10 15  1  0
 10 11  1  0
 11 12  2  0
 12 13  1  0
 12 14  1  0
 13 23  1  0
 13 24  1  0
 13 25  1  0
 14 15  2  0
M  CHG  1  12   1
M  END
>  <i_m_ct_stereo_status>  (190) 
1

>  <s_m_source_file>  (190) 
/var/tmp/pbs.5076255.sched01/tmprtix0sri/443g93ja_l.sdf

>  <i_m_source_file_index>  (190) 
39

>  <i_lp_mmshare_version>  (190) 
48012

>  <i_f3d_flags>  (190) 
0

>  <s_epik_input>  (190) 
Tz1DMU4oW0NIM10pYyhubihuMilbQ0gzXSljMkMoTjEzKT1OW0NIMl1bQ0gyXTM=

>  <s_epik_cmdline>  (190) 
J2VwaWtfcHl0aG9uJywgJy1waHQnLCAnMi4wJywgJy1waCcsICc3LjAnLCAnLXRuJywgJzgnLCAnLW1hJywgJzIwMCcsICctaW1hZScsICc8aW5maWxlLm1hZT4nLCAnLW9tYWUnLCAnPG91dGZpbGUubWFlPic=

>  <r_epik_Ionization_Penalty>  (190) 
0.210704

>  <r_epik_Ionization_Penalty_Charging>  (190) 
1.31558e-16

>  <r_epik_Ionization_Penalty_Neutral>  (190) 
0.210704

>  <r_epik_State_Penalty>  (190) 
0.0661293

>  <r_epik_Charging_Adjusted_Penalty>  (190) 
0.0661293

>  <i_epik_Tot_Q>  (190) 
1

>  <i_epik_Tot_abs_Q>  (190) 
1

>  <s_lp_Force_Field>  (190) 
OPLS3e

>  <r_lp_Energy>  (190) 
32.6949

>  <b_lp_Chiralities_Consistent>  (190) 
1

>  <s_lp_Variant>  (190) 
59:0-1

>  <s_i_glide_gridfile>  (190) 
pfpi4k_grid

>  <i_i_glide_lignum>  (190) 
39

>  <i_i_glide_rotatable_bonds>  (190) 
0

>  <r_i_docking_score>  (190) 
-4.49398

>  <r_i_glide_ligand_efficiency>  (190) 
-0.299599

>  <r_i_glide_ligand_efficiency_sa>  (190) 
-0.738873

>  <r_i_glide_ligand_efficiency_ln>  (190) 
-1.21195

>  <r_i_glide_gscore>  (190) 
-4.49398

>  <r_i_glide_lipo>  (190) 
-0.42724

>  <r_i_glide_hbond>  (190) 
-0.268132

>  <r_i_glide_metal>  (190) 
-0

>  <r_i_glide_rewards>  (190) 
-2.06097

>  <r_i_glide_evdw>  (190) 
-18.5681

>  <r_i_glide_ecoul>  (190) 
-4.96926

>  <r_i_glide_erotb>  (190) 
0

>  <r_i_glide_esite>  (190) 
-0.063841

>  <r_i_glide_emodel>  (190) 
-32.2931

>  <r_i_glide_energy>  (190) 
-23.5374

>  <r_i_glide_einternal>  (190) 
0

>  <r_i_glide_intrahb_reward>  (190) 
-0

>  <i_i_glide_confnum>  (190) 
1

>  <i_i_glide_posenum>  (190) 
28

>  <r_i_glide_eff_state_penalty>  (190) 
0

>  <ligand_id>  (190) 
59

>  <original_smiles>  (190) 
CN1C(=O)N2CCN=C2c2nn(C)nc21

>  <smiles>  (190) 
[H]N1c2c3n[n+](C([H])([H])[H])nc-3n(C([H])([H])[H])c(=O)n2C([H])([H])C1([H])[H]

$$$$
59:1:0
     RDKit          3D

 25 27  0  0  1  0  0  0  0  0999 V2000
    3.9041   -9.8362    2.3531 C   0  0  0  0  0  0  0  0  0  0  0  0
    2.6401   -9.1003    2.3055 N   0  0  0  0  0  0  0  0  0  0  0  0
    1.4839   -9.6616    2.7883 C   0  0  0  0  0  0  0  0  0  0  0  0
    1.4408  -10.7890    3.2812 O   0  0  0  0  0  0  0  0  0  0  0  0
    0.3578   -8.8990    2.7068 N   0  0  0  0  0  0  0  0  0  0  0  0
   -0.9644   -9.2604    3.1442 C   0  0  0  0  0  0  0  0  0  0  0  0
   -1.7907   -8.0107    2.7834 C   0  0  0  0  0  0  0  0  0  0  0  0
   -0.8728   -7.0594    2.1923 N   0  0  0  0  0  0  0  0  0  0  0  0
    0.2791   -7.6307    2.1791 C   0  0  0  0  0  0  0  0  0  0  0  0
    1.4887   -7.0029    1.6485 C   0  0  0  0  0  0  0  0  0  0  0  0
    1.7496   -5.8516    1.0884 N   0  0  0  0  0  0  0  0  0  0  0  0
    3.0953   -5.9461    0.8718 N   0  0  0  0  0  0  0  0  0  0  0  0
    3.8549   -4.8763    0.2572 C   0  0  0  0  0  0  0  0  0  0  0  0
    3.6811   -7.1136    1.2670 N   0  0  0  0  0  0  0  0  0  0  0  0
    2.6578   -7.7827    1.7469 C   0  0  0  0  0  0  0  0  0  0  0  0
    3.8220  -10.8325    2.7861 H   0  0  0  0  0  0  0  0  0  0  0  0
    4.6350   -9.2851    2.9429 H   0  0  0  0  0  0  0  0  0  0  0  0
    4.2992   -9.9578    1.3453 H   0  0  0  0  0  0  0  0  0  0  0  0
   -1.3145  -10.1454    2.6092 H   0  0  0  0  0  0  0  0  0  0  0  0
   -0.9710   -9.4490    4.2185 H   0  0  0  0  0  0  0  0  0  0  0  0
   -2.5827   -8.2673    2.0789 H   0  0  0  0  0  0  0  0  0  0  0  0
   -2.2670   -7.5887    3.6697 H   0  0  0  0  0  0  0  0  0  0  0  0
    4.9041   -5.1620    0.1521 H   0  0  0  0  0  0  0  0  0  0  0  0
    3.7859   -3.9815    0.8734 H   0  0  0  0  0  0  0  0  0  0  0  0
    3.4388   -4.6555   -0.7241 H   0  0  0  0  0  0  0  0  0  0  0  0
  1  2  1  0
  1 16  1  0
  1 17  1  0
  1 18  1  0
  2 15  1  0
  2  3  1  0
  3  4  2  0
  3  5  1  0
  5  9  1  0
  5  6  1  0
  6  7  1  0
  6 19  1  0
  6 20  1  0
  7  8  1  0
  7 21  1  0
  7 22  1  0
  8  9  2  0
  9 10  1  0
 10 15  1  0
 10 11  2  0
 11 12  1  0
 12 13  1  0
 12 14  1  0
 13 23  1  0
 13 24  1  0
 13 25  1  0
 14 15  2  0
M  END
>  <i_m_ct_stereo_status>  (191) 
1

>  <s_m_source_file>  (191) 
/var/tmp/pbs.5076255.sched01/tmprtix0sri/443g93ja_l.sdf

>  <i_m_source_file_index>  (191) 
40

>  <i_lp_mmshare_version>  (191) 
48012

>  <i_f3d_flags>  (191) 
0

>  <s_epik_input>  (191) 
Tz1DMU4oW0NIM10pYyhubihuMilbQ0gzXSljMkMoTjEzKT1OW0NIMl1bQ0gyXTM=

>  <s_epik_cmdline>  (191) 
J2VwaWtfcHl0aG9uJywgJy1waHQnLCAnMi4wJywgJy1waCcsICc3LjAnLCAnLXRuJywgJzgnLCAnLW1hJywgJzIwMCcsICctaW1hZScsICc8aW5maWxlLm1hZT4nLCAnLW9tYWUnLCAnPG91dGZpbGUubWFlPic=

>  <r_epik_Ionization_Penalty>  (191) 
1.89311

>  <r_epik_Ionization_Penalty_Charging>  (191) 
1.89311

>  <r_epik_Ionization_Penalty_Neutral>  (191) 
2.15679e-08

>  <r_epik_State_Penalty>  (191) 
1.33191

>  <r_epik_Charging_Adjusted_Penalty>  (191) 
3.22502

>  <i_epik_Tot_Q>  (191) 
0

>  <i_epik_Tot_abs_Q>  (191) 
0

>  <s_lp_Force_Field>  (191) 
OPLS3e

>  <r_lp_Energy>  (191) 
11.9236

>  <b_lp_Chiralities_Consistent>  (191) 
1

>  <s_lp_Variant>  (191) 
59:0-2

>  <s_i_glide_gridfile>  (191) 
pfpi4k_grid

>  <i_i_glide_lignum>  (191) 
40

>  <i_i_glide_rotatable_bonds>  (191) 
0

>  <r_i_docking_score>  (191) 
-4.14245

>  <r_i_glide_ligand_efficiency>  (191) 
-0.276163

>  <r_i_glide_ligand_efficiency_sa>  (191) 
-0.681077

>  <r_i_glide_ligand_efficiency_ln>  (191) 
-1.11715

>  <r_i_glide_gscore>  (191) 
-4.14245

>  <r_i_glide_lipo>  (191) 
0

>  <r_i_glide_hbond>  (191) 
-0.234103

>  <r_i_glide_metal>  (191) 
-0

>  <r_i_glide_rewards>  (191) 
-2.09138

>  <r_i_glide_evdw>  (191) 
-21.8612

>  <r_i_glide_ecoul>  (191) 
-4.15591

>  <r_i_glide_erotb>  (191) 
0

>  <r_i_glide_esite>  (191) 
-0.100524

>  <r_i_glide_emodel>  (191) 
-33.0542

>  <r_i_glide_energy>  (191) 
-26.0171

>  <r_i_glide_einternal>  (191) 
0

>  <r_i_glide_intrahb_reward>  (191) 
-0

>  <i_i_glide_confnum>  (191) 
2

>  <i_i_glide_posenum>  (191) 
31

>  <r_i_glide_eff_state_penalty>  (191) 
0

>  <ligand_id>  (191) 
59

>  <original_smiles>  (191) 
CN1C(=O)N2CCN=C2c2nn(C)nc21

>  <smiles>  (191) 
[H]C([H])([H])N1C(=O)N2C(=NC([H])([H])C2([H])[H])c2nn(C([H])([H])[H])nc21

$$$$
59:1:1
     RDKit          3D

 25 27  0  0  1  0  0  0  0  0999 V2000
   -0.6890   -1.8720    5.2451 C   0  0  0  0  0  0  0  0  0  0  0  0
   -0.6152   -0.4396    4.9330 N   0  0  0  0  0  0  0  0  0  0  0  0
   -1.3960    0.4659    5.6009 C   0  0  0  0  0  0  0  0  0  0  0  0
   -2.1897    0.1463    6.4794 O   0  0  0  0  0  0  0  0  0  0  0  0
   -1.2632    1.7717    5.2521 N   0  0  0  0  0  0  0  0  0  0  0  0
   -1.9764    2.8853    5.8280 C   0  0  0  0  0  0  0  0  0  0  0  0
   -1.3939    4.0739    5.0460 C   0  0  0  0  0  0  0  0  0  0  0  0
   -0.4161    3.5330    4.1230 N   0  0  0  0  0  0  0  0  0  0  0  0
   -0.4068    2.2598    4.2934 C   0  0  0  0  0  0  0  0  0  0  0  0
    0.4511    1.3332    3.5569 C   0  0  0  0  0  0  0  0  0  0  0  0
    1.3567    1.4623    2.6224 N   0  0  0  0  0  0  0  0  0  0  0  0
    1.7372    0.1711    2.4237 N   0  0  0  0  0  0  0  0  0  0  0  0
    2.7434   -0.1876    1.4573 C   0  0  0  0  0  0  0  0  0  0  0  0
    1.1184   -0.7584    3.2085 N   0  0  0  0  0  0  0  0  0  0  0  0
    0.3075   -0.0197    3.9179 C   0  0  0  0  0  0  0  0  0  0  0  0
   -1.4078   -2.1306    6.0226 H   0  0  0  0  0  0  0  0  0  0  0  0
    0.2834   -2.2397    5.5757 H   0  0  0  0  0  0  0  0  0  0  0  0
   -0.9707   -2.4308    4.3539 H   0  0  0  0  0  0  0  0  0  0  0  0
   -3.0499    2.7728    5.6571 H   0  0  0  0  0  0  0  0  0  0  0  0
   -1.7742    2.9606    6.9005 H   0  0  0  0  0  0  0  0  0  0  0  0
   -2.1809    4.5816    4.4922 H   0  0  0  0  0  0  0  0  0  0  0  0
   -0.9311    4.7991    5.7168 H   0  0  0  0  0  0  0  0  0  0  0  0
    2.9071   -1.2686    1.4472 H   0  0  0  0  0  0  0  0  0  0  0  0
    3.6722    0.3288    1.6995 H   0  0  0  0  0  0  0  0  0  0  0  0
    2.3999    0.1378    0.4784 H   0  0  0  0  0  0  0  0  0  0  0  0
  1  2  1  0
  1 16  1  0
  1 17  1  0
  1 18  1  0
  2 15  1  0
  2  3  1  0
  3  4  2  0
  3  5  1  0
  5  9  1  0
  5  6  1  0
  6  7  1  0
  6 19  1  0
  6 20  1  0
  7  8  1  0
  7 21  1  0
  7 22  1  0
  8  9  2  0
  9 10  1  0
 10 15  1  0
 10 11  2  0
 11 12  1  0
 12 13  1  0
 12 14  1  0
 13 23  1  0
 13 24  1  0
 13 25  1  0
 14 15  2  0
M  END
>  <i_m_ct_stereo_status>  (192) 
1

>  <s_m_source_file>  (192) 
/var/tmp/pbs.5076255.sched01/tmprtix0sri/443g93ja_l.sdf

>  <i_m_source_file_index>  (192) 
40

>  <i_lp_mmshare_version>  (192) 
48012

>  <i_f3d_flags>  (192) 
0

>  <s_epik_input>  (192) 
Tz1DMU4oW0NIM10pYyhubihuMilbQ0gzXSljMkMoTjEzKT1OW0NIMl1bQ0gyXTM=

>  <s_epik_cmdline>  (192) 
J2VwaWtfcHl0aG9uJywgJy1waHQnLCAnMi4wJywgJy1waCcsICc3LjAnLCAnLXRuJywgJzgnLCAnLW1hJywgJzIwMCcsICctaW1hZScsICc8aW5maWxlLm1hZT4nLCAnLW9tYWUnLCAnPG91dGZpbGUubWFlPic=

>  <r_epik_Ionization_Penalty>  (192) 
1.89311

>  <r_epik_Ionization_Penalty_Charging>  (192) 
1.89311

>  <r_epik_Ionization_Penalty_Neutral>  (192) 
2.15679e-08

>  <r_epik_State_Penalty>  (192) 
1.33191

>  <r_epik_Charging_Adjusted_Penalty>  (192) 
3.22502

>  <i_epik_Tot_Q>  (192) 
0

>  <i_epik_Tot_abs_Q>  (192) 
0

>  <s_lp_Force_Field>  (192) 
OPLS3e

>  <r_lp_Energy>  (192) 
11.9236

>  <b_lp_Chiralities_Consistent>  (192) 
1

>  <s_lp_Variant>  (192) 
59:0-2

>  <s_i_glide_gridfile>  (192) 
pfpi4k_grid

>  <i_i_glide_lignum>  (192) 
40

>  <i_i_glide_rotatable_bonds>  (192) 
0

>  <r_i_docking_score>  (192) 
-3.8994

>  <r_i_glide_ligand_efficiency>  (192) 
-0.25996

>  <r_i_glide_ligand_efficiency_sa>  (192) 
-0.641116

>  <r_i_glide_ligand_efficiency_ln>  (192) 
-1.0516

>  <r_i_glide_gscore>  (192) 
-3.8994

>  <r_i_glide_lipo>  (192) 
-0.0485468

>  <r_i_glide_hbond>  (192) 
-0.16

>  <r_i_glide_metal>  (192) 
-0

>  <r_i_glide_rewards>  (192) 
-2.00315

>  <r_i_glide_evdw>  (192) 
-16.0303

>  <r_i_glide_ecoul>  (192) 
-5.02067

>  <r_i_glide_erotb>  (192) 
0

>  <r_i_glide_esite>  (192) 
-0.133082

>  <r_i_glide_emodel>  (192) 
-27.6692

>  <r_i_glide_energy>  (192) 
-21.051

>  <r_i_glide_einternal>  (192) 
0

>  <r_i_glide_intrahb_reward>  (192) 
-0

>  <i_i_glide_confnum>  (192) 
1

>  <i_i_glide_posenum>  (192) 
6

>  <r_i_glide_eff_state_penalty>  (192) 
0

>  <ligand_id>  (192) 
59

>  <original_smiles>  (192) 
CN1C(=O)N2CCN=C2c2nn(C)nc21

>  <smiles>  (192) 
[H]C([H])([H])N1C(=O)N2C(=NC([H])([H])C2([H])[H])c2nn(C([H])([H])[H])nc21

$$$$
59:1:2
     RDKit          3D

 25 27  0  0  1  0  0  0  0  0999 V2000
   -0.4837    1.5765    2.2513 C   0  0  0  0  0  0  0  0  0  0  0  0
   -0.8784    1.5100    3.6574 N   0  0  0  0  0  0  0  0  0  0  0  0
   -1.4815    2.5844    4.2680 C   0  0  0  0  0  0  0  0  0  0  0  0
   -1.7354    3.6476    3.6957 O   0  0  0  0  0  0  0  0  0  0  0  0
   -1.7992    2.4310    5.5845 N   0  0  0  0  0  0  0  0  0  0  0  0
   -2.4234    3.4060    6.4391 C   0  0  0  0  0  0  0  0  0  0  0  0
   -2.5418    2.6579    7.7809 C   0  0  0  0  0  0  0  0  0  0  0  0
   -1.9652    1.3426    7.5730 N   0  0  0  0  0  0  0  0  0  0  0  0
   -1.5838    1.3037    6.3434 C   0  0  0  0  0  0  0  0  0  0  0  0
   -0.9630    0.1332    5.7218 C   0  0  0  0  0  0  0  0  0  0  0  0
   -0.6502   -1.0684    6.1380 N   0  0  0  0  0  0  0  0  0  0  0  0
   -0.0834   -1.6105    5.0198 N   0  0  0  0  0  0  0  0  0  0  0  0
    0.4402   -2.9607    4.9930 C   0  0  0  0  0  0  0  0  0  0  0  0
   -0.0427   -0.7992    3.9257 N   0  0  0  0  0  0  0  0  0  0  0  0
   -0.6129    0.2944    4.3675 C   0  0  0  0  0  0  0  0  0  0  0  0
   -0.7040    2.5323    1.7838 H   0  0  0  0  0  0  0  0  0  0  0  0
   -1.0019    0.8081    1.6790 H   0  0  0  0  0  0  0  0  0  0  0  0
    0.5891    1.4162    2.1476 H   0  0  0  0  0  0  0  0  0  0  0  0
   -1.7844    4.2844    6.5271 H   0  0  0  0  0  0  0  0  0  0  0  0
   -3.3969    3.6809    6.0381 H   0  0  0  0  0  0  0  0  0  0  0  0
   -2.0083    3.1846    8.5748 H   0  0  0  0  0  0  0  0  0  0  0  0
   -3.5833    2.5725    8.0997 H   0  0  0  0  0  0  0  0  0  0  0  0
    0.8275   -3.2043    4.0007 H   0  0  0  0  0  0  0  0  0  0  0  0
   -0.3526   -3.6620    5.2492 H   0  0  0  0  0  0  0  0  0  0  0  0
    1.2447   -3.0494    5.7223 H   0  0  0  0  0  0  0  0  0  0  0  0
  1  2  1  0
  1 16  1  0
  1 17  1  0
  1 18  1  0
  2 15  1  0
  2  3  1  0
  3  4  2  0
  3  5  1  0
  5  9  1  0
  5  6  1  0
  6  7  1  0
  6 19  1  0
  6 20  1  0
  7  8  1  0
  7 21  1  0
  7 22  1  0
  8  9  2  0
  9 10  1  0
 10 15  1  0
 10 11  2  0
 11 12  1  0
 12 13  1  0
 12 14  1  0
 13 23  1  0
 13 24  1  0
 13 25  1  0
 14 15  2  0
M  END
>  <i_m_ct_stereo_status>  (193) 
1

>  <s_m_source_file>  (193) 
/var/tmp/pbs.5076255.sched01/tmprtix0sri/443g93ja_l.sdf

>  <i_m_source_file_index>  (193) 
40

>  <i_lp_mmshare_version>  (193) 
48012

>  <i_f3d_flags>  (193) 
0

>  <s_epik_input>  (193) 
Tz1DMU4oW0NIM10pYyhubihuMilbQ0gzXSljMkMoTjEzKT1OW0NIMl1bQ0gyXTM=

>  <s_epik_cmdline>  (193) 
J2VwaWtfcHl0aG9uJywgJy1waHQnLCAnMi4wJywgJy1waCcsICc3LjAnLCAnLXRuJywgJzgnLCAnLW1hJywgJzIwMCcsICctaW1hZScsICc8aW5maWxlLm1hZT4nLCAnLW9tYWUnLCAnPG91dGZpbGUubWFlPic=

>  <r_epik_Ionization_Penalty>  (193) 
1.89311

>  <r_epik_Ionization_Penalty_Charging>  (193) 
1.89311

>  <r_epik_Ionization_Penalty_Neutral>  (193) 
2.15679e-08

>  <r_epik_State_Penalty>  (193) 
1.33191

>  <r_epik_Charging_Adjusted_Penalty>  (193) 
3.22502

>  <i_epik_Tot_Q>  (193) 
0

>  <i_epik_Tot_abs_Q>  (193) 
0

>  <s_lp_Force_Field>  (193) 
OPLS3e

>  <r_lp_Energy>  (193) 
11.9236

>  <b_lp_Chiralities_Consistent>  (193) 
1

>  <s_lp_Variant>  (193) 
59:0-2

>  <s_i_glide_gridfile>  (193) 
pfpi4k_grid

>  <i_i_glide_lignum>  (193) 
40

>  <i_i_glide_rotatable_bonds>  (193) 
0

>  <r_i_docking_score>  (193) 
-3.85251

>  <r_i_glide_ligand_efficiency>  (193) 
-0.256834

>  <r_i_glide_ligand_efficiency_sa>  (193) 
-0.633407

>  <r_i_glide_ligand_efficiency_ln>  (193) 
-1.03896

>  <r_i_glide_gscore>  (193) 
-3.85251

>  <r_i_glide_lipo>  (193) 
-0.215459

>  <r_i_glide_hbond>  (193) 
-0.138791

>  <r_i_glide_metal>  (193) 
-0

>  <r_i_glide_rewards>  (193) 
-2.0409

>  <r_i_glide_evdw>  (193) 
-17.839

>  <r_i_glide_ecoul>  (193) 
-3.05979

>  <r_i_glide_erotb>  (193) 
0

>  <r_i_glide_esite>  (193) 
-0.106439

>  <r_i_glide_emodel>  (193) 
-27.4337

>  <r_i_glide_energy>  (193) 
-20.8988

>  <r_i_glide_einternal>  (193) 
0

>  <r_i_glide_intrahb_reward>  (193) 
-0

>  <i_i_glide_confnum>  (193) 
1

>  <i_i_glide_posenum>  (193) 
2

>  <r_i_glide_eff_state_penalty>  (193) 
0

>  <ligand_id>  (193) 
59

>  <original_smiles>  (193) 
CN1C(=O)N2CCN=C2c2nn(C)nc21

>  <smiles>  (193) 
[H]C([H])([H])N1C(=O)N2C(=NC([H])([H])C2([H])[H])c2nn(C([H])([H])[H])nc21

$$$$
60:0:0
     RDKit          3D

 37 40  0  0  1  0  0  0  0  0999 V2000
    3.3091   -6.0654    1.3370 C   0  0  0  0  0  0  0  0  0  0  0  0
    2.8329   -5.1431    0.3335 N   0  0  0  0  0  0  0  0  0  0  0  0
    3.5006   -4.0536   -0.1387 C   0  0  0  0  0  0  0  0  0  0  0  0
    2.7171   -3.4421   -1.0887 C   0  0  0  0  0  0  0  0  0  0  0  0
    2.9825   -2.2272   -1.9589 C   0  0  2  0  0  0  0  0  0  0  0  0
    2.2906   -2.2248   -3.3409 C   0  0  1  0  0  0  0  0  0  0  0  0
    2.8342   -0.9115   -3.9691 C   0  0  0  0  0  0  0  0  0  0  0  0
    4.2808   -0.8728   -3.4455 C   0  0  0  0  0  0  0  0  0  0  0  0
    4.3934   -2.1446   -2.5729 C   0  0  1  0  0  0  0  0  0  0  0  0
    5.5714   -2.0963   -1.5771 C   0  0  0  0  0  0  0  0  0  0  0  0
    5.3986   -1.5133   -0.2927 C   0  0  0  0  0  0  0  0  0  0  0  0
    6.4644   -1.5688    0.6264 C   0  0  0  0  0  0  0  0  0  0  0  0
    7.6791   -2.1483    0.2133 C   0  0  0  0  0  0  0  0  0  0  0  0
    7.8616   -2.6565   -1.0197 N   0  0  0  0  0  0  0  0  0  0  0  0
    6.8262   -2.6587   -1.8819 C   0  0  0  0  0  0  0  0  0  0  0  0
    4.2793   -3.3530   -3.5412 C   0  0  0  0  0  0  0  0  0  0  0  0
    5.1394   -4.1287   -3.9141 O   0  0  0  0  0  0  0  0  0  0  0  0
    2.8740   -3.4241   -4.0495 C   0  0  0  0  0  0  0  0  0  0  0  0
    1.5651   -4.2774   -1.1169 C   0  0  0  0  0  0  0  0  0  0  0  0
    1.6360   -5.3172   -0.2788 N   0  0  0  0  0  0  0  0  0  0  0  0
    4.3086   -5.7705    1.6560 H   0  0  0  0  0  0  0  0  0  0  0  0
    3.3639   -7.0799    0.9411 H   0  0  0  0  0  0  0  0  0  0  0  0
    2.6555   -6.0352    2.2122 H   0  0  0  0  0  0  0  0  0  0  0  0
    4.4777   -3.8559    0.2358 H   0  0  0  0  0  0  0  0  0  0  0  0
    2.7299   -1.2922   -1.4463 H   0  0  0  0  0  0  0  0  0  0  0  0
    1.2264   -2.3558   -3.3301 H   0  0  0  0  0  0  0  0  0  0  0  0
    2.7995   -0.9234   -5.0596 H   0  0  0  0  0  0  0  0  0  0  0  0
    2.2857   -0.0365   -3.6239 H   0  0  0  0  0  0  0  0  0  0  0  0
    5.0056   -0.8812   -4.2640 H   0  0  0  0  0  0  0  0  0  0  0  0
    4.4258    0.0368   -2.8510 H   0  0  0  0  0  0  0  0  0  0  0  0
    4.4538   -1.1040    0.0215 H   0  0  0  0  0  0  0  0  0  0  0  0
    6.3454   -1.2166    1.6396 H   0  0  0  0  0  0  0  0  0  0  0  0
    8.5245   -2.2139    0.8779 H   0  0  0  0  0  0  0  0  0  0  0  0
    7.0302   -3.0500   -2.8551 H   0  0  0  0  0  0  0  0  0  0  0  0
    2.3686   -4.3347   -3.7617 H   0  0  0  0  0  0  0  0  0  0  0  0
    2.8382   -3.3369   -5.1235 H   0  0  0  0  0  0  0  0  0  0  0  0
    0.6803   -4.1989   -1.7500 H   0  0  0  0  0  0  0  0  0  0  0  0
  1  2  1  0
  1 21  1  0
  1 22  1  0
  1 23  1  0
  2 20  1  0
  2  3  1  0
  3  4  2  0
  3 24  1  0
  4  5  1  0
  4 19  1  0
  5  9  1  0
  5  6  1  0
  5 25  1  1
  6 18  1  0
  6  7  1  0
  6 26  1  1
  7  8  1  0
  7 27  1  0
  7 28  1  0
  8  9  1  0
  8 29  1  0
  8 30  1  0
  9 10  1  1
  9 16  1  0
 10 15  1  0
 10 11  2  0
 11 12  1  0
 11 31  1  0
 12 13  2  0
 12 32  1  0
 13 14  1  0
 13 33  1  0
 14 15  2  0
 15 34  1  0
 16 17  2  0
 16 18  1  0
 18 35  1  0
 18 36  1  0
 19 20  2  0
 19 37  1  0
M  END
>  <i_m_ct_stereo_status>  (194) 
1

>  <s_m_source_file>  (194) 
/var/tmp/pbs.5076255.sched01/tmprtix0sri/443g93ja_l.sdf

>  <i_m_source_file_index>  (194) 
41

>  <i_lp_mmshare_version>  (194) 
48012

>  <i_f3d_flags>  (194) 
0

>  <s_epik_input>  (194) 
W0NIM11uMVtjSF1jKFtjSF1uMSlbQ0BIXShbQ0BASF0oW0NIMl1bQ0gyXTIpW0NIMl1DMz1PKVtDQF0yM2M0W2NIXVtjSF1bY0hdbltjSF00

>  <s_epik_cmdline>  (194) 
J2VwaWtfcHl0aG9uJywgJy1waHQnLCAnMi4wJywgJy1waCcsICc3LjAnLCAnLXRuJywgJzgnLCAnLW1hJywgJzIwMCcsICctaW1hZScsICc8aW5maWxlLm1hZT4nLCAnLW9tYWUnLCAnPG91dGZpbGUubWFlPic=

>  <r_lp_tautomer_probability>  (194) 
0.99995

>  <r_epik_Ionization_Penalty>  (194) 
0.015098

>  <r_epik_Ionization_Penalty_Charging>  (194) 
0

>  <r_epik_Ionization_Penalty_Neutral>  (194) 
0.015098

>  <r_epik_State_Penalty>  (194) 
0.011422

>  <r_epik_Charging_Adjusted_Penalty>  (194) 
0.011422

>  <i_epik_Tot_Q>  (194) 
0

>  <i_epik_Tot_abs_Q>  (194) 
0

>  <s_lp_Force_Field>  (194) 
OPLS3e

>  <r_lp_Energy>  (194) 
41.4996

>  <b_lp_Chiralities_Consistent>  (194) 
1

>  <s_lp_Variant>  (194) 
60:0-1

>  <s_i_glide_gridfile>  (194) 
pfpi4k_grid

>  <i_i_glide_lignum>  (194) 
41

>  <i_i_glide_rotatable_bonds>  (194) 
2

>  <r_i_docking_score>  (194) 
-3.71643

>  <r_i_glide_ligand_efficiency>  (194) 
-0.185822

>  <r_i_glide_ligand_efficiency_sa>  (194) 
-0.504398

>  <r_i_glide_ligand_efficiency_ln>  (194) 
-0.930101

>  <r_i_glide_gscore>  (194) 
-3.71643

>  <r_i_glide_lipo>  (194) 
-0.725217

>  <r_i_glide_hbond>  (194) 
-0.195774

>  <r_i_glide_metal>  (194) 
-0

>  <r_i_glide_rewards>  (194) 
-1.87251

>  <r_i_glide_evdw>  (194) 
-15.2531

>  <r_i_glide_ecoul>  (194) 
-4.14086

>  <r_i_glide_erotb>  (194) 
0.499004

>  <r_i_glide_esite>  (194) 
-0.0381561

>  <r_i_glide_emodel>  (194) 
-25.0906

>  <r_i_glide_energy>  (194) 
-19.3939

>  <r_i_glide_einternal>  (194) 
1.34143

>  <r_i_glide_intrahb_reward>  (194) 
-0

>  <i_i_glide_confnum>  (194) 
1

>  <i_i_glide_posenum>  (194) 
7

>  <r_i_glide_eff_state_penalty>  (194) 
0

>  <ligand_id>  (194) 
60

>  <original_smiles>  (194) 
Cn1cc(C2C3CCC2(c2cccnc2)C(=O)C3)cn1

>  <smiles>  (194) 
[H]c1nc([H])c(C23C(=O)C([H])([H])C([H])(C([H])([H])C2([H])[H])C3([H])c2c([H])nn(C([H])([H])[H])c2[H])c([H])c1[H]

$$$$
60:0:1
     RDKit          3D

 37 40  0  0  1  0  0  0  0  0999 V2000
    1.4547   -1.1225    3.8492 C   0  0  0  0  0  0  0  0  0  0  0  0
    1.6870   -2.5465    3.8179 N   0  0  0  0  0  0  0  0  0  0  0  0
    2.7056   -3.2574    3.2091 C   0  0  0  0  0  0  0  0  0  0  0  0
    2.4683   -4.5808    3.4160 C   0  0  0  0  0  0  0  0  0  0  0  0
    3.2471   -5.7890    2.8904 C   0  0  2  0  0  0  0  0  0  0  0  0
    4.2793   -5.4065    1.7982 C   0  0  1  0  0  0  0  0  0  0  0  0
    4.8676   -6.7840    1.4330 C   0  0  0  0  0  0  0  0  0  0  0  0
    3.6381   -7.7073    1.5405 C   0  0  0  0  0  0  0  0  0  0  0  0
    2.4839   -6.7553    1.9623 C   0  0  1  0  0  0  0  0  0  0  0  0
    1.2388   -7.4518    2.5161 C   0  0  0  0  0  0  0  0  0  0  0  0
    1.1179   -8.8609    2.5597 C   0  0  0  0  0  0  0  0  0  0  0  0
   -0.0350   -9.4495    3.1276 C   0  0  0  0  0  0  0  0  0  0  0  0
   -1.0645   -8.5926    3.5794 C   0  0  0  0  0  0  0  0  0  0  0  0
   -1.0091   -7.2483    3.4407 N   0  0  0  0  0  0  0  0  0  0  0  0
    0.0970   -6.7320    2.8866 C   0  0  0  0  0  0  0  0  0  0  0  0
    2.2085   -5.8314    0.7768 C   0  0  0  0  0  0  0  0  0  0  0  0
    1.1987   -5.8696    0.0722 O   0  0  0  0  0  0  0  0  0  0  0  0
    3.4075   -4.9006    0.6177 C   0  0  0  0  0  0  0  0  0  0  0  0
    1.3610   -4.5432    4.3307 C   0  0  0  0  0  0  0  0  0  0  0  0
    0.8301   -3.3459    4.4883 N   0  0  0  0  0  0  0  0  0  0  0  0
    2.2805   -0.5994    3.3623 H   0  0  0  0  0  0  0  0  0  0  0  0
    1.4053   -0.8137    4.9030 H   0  0  0  0  0  0  0  0  0  0  0  0
    0.5034   -0.8653    3.3517 H   0  0  0  0  0  0  0  0  0  0  0  0
    3.4618   -2.7226    2.6428 H   0  0  0  0  0  0  0  0  0  0  0  0
    3.7412   -6.3102    3.7229 H   0  0  0  0  0  0  0  0  0  0  0  0
    5.0447   -4.6891    2.1111 H   0  0  0  0  0  0  0  0  0  0  0  0
    5.3147   -6.7965    0.4386 H   0  0  0  0  0  0  0  0  0  0  0  0
    5.6403   -7.0897    2.1405 H   0  0  0  0  0  0  0  0  0  0  0  0
    3.4381   -8.2298    0.6035 H   0  0  0  0  0  0  0  0  0  0  0  0
    3.8447   -8.4733    2.2947 H   0  0  0  0  0  0  0  0  0  0  0  0
    1.8983   -9.5200    2.2257 H   0  0  0  0  0  0  0  0  0  0  0  0
   -0.1659  -10.5363    3.1623 H   0  0  0  0  0  0  0  0  0  0  0  0
   -1.9629   -8.9995    4.0342 H   0  0  0  0  0  0  0  0  0  0  0  0
    0.0478   -5.6641    2.7243 H   0  0  0  0  0  0  0  0  0  0  0  0
    3.0650   -3.8851    0.7622 H   0  0  0  0  0  0  0  0  0  0  0  0
    3.8871   -4.9808   -0.3532 H   0  0  0  0  0  0  0  0  0  0  0  0
    0.8605   -5.3816    4.8097 H   0  0  0  0  0  0  0  0  0  0  0  0
  1  2  1  0
  1 21  1  0
  1 22  1  0
  1 23  1  0
  2 20  1  0
  2  3  1  0
  3  4  2  0
  3 24  1  0
  4  5  1  0
  4 19  1  0
  5  9  1  0
  5  6  1  0
  5 25  1  1
  6 18  1  0
  6  7  1  0
  6 26  1  1
  7  8  1  0
  7 27  1  0
  7 28  1  0
  8  9  1  0
  8 29  1  0
  8 30  1  0
  9 10  1  1
  9 16  1  0
 10 15  1  0
 10 11  2  0
 11 12  1  0
 11 31  1  0
 12 13  2  0
 12 32  1  0
 13 14  1  0
 13 33  1  0
 14 15  2  0
 15 34  1  0
 16 17  2  0
 16 18  1  0
 18 35  1  0
 18 36  1  0
 19 20  2  0
 19 37  1  0
M  END
>  <i_m_ct_stereo_status>  (195) 
1

>  <s_m_source_file>  (195) 
/var/tmp/pbs.5076255.sched01/tmprtix0sri/443g93ja_l.sdf

>  <i_m_source_file_index>  (195) 
41

>  <i_lp_mmshare_version>  (195) 
48012

>  <i_f3d_flags>  (195) 
0

>  <s_epik_input>  (195) 
W0NIM11uMVtjSF1jKFtjSF1uMSlbQ0BIXShbQ0BASF0oW0NIMl1bQ0gyXTIpW0NIMl1DMz1PKVtDQF0yM2M0W2NIXVtjSF1bY0hdbltjSF00

>  <s_epik_cmdline>  (195) 
J2VwaWtfcHl0aG9uJywgJy1waHQnLCAnMi4wJywgJy1waCcsICc3LjAnLCAnLXRuJywgJzgnLCAnLW1hJywgJzIwMCcsICctaW1hZScsICc8aW5maWxlLm1hZT4nLCAnLW9tYWUnLCAnPG91dGZpbGUubWFlPic=

>  <r_lp_tautomer_probability>  (195) 
0.99995

>  <r_epik_Ionization_Penalty>  (195) 
0.015098

>  <r_epik_Ionization_Penalty_Charging>  (195) 
0

>  <r_epik_Ionization_Penalty_Neutral>  (195) 
0.015098

>  <r_epik_State_Penalty>  (195) 
0.011422

>  <r_epik_Charging_Adjusted_Penalty>  (195) 
0.011422

>  <i_epik_Tot_Q>  (195) 
0

>  <i_epik_Tot_abs_Q>  (195) 
0

>  <s_lp_Force_Field>  (195) 
OPLS3e

>  <r_lp_Energy>  (195) 
41.4996

>  <b_lp_Chiralities_Consistent>  (195) 
1

>  <s_lp_Variant>  (195) 
60:0-1

>  <s_i_glide_gridfile>  (195) 
pfpi4k_grid

>  <i_i_glide_lignum>  (195) 
41

>  <i_i_glide_rotatable_bonds>  (195) 
2

>  <r_i_docking_score>  (195) 
-3.14246

>  <r_i_glide_ligand_efficiency>  (195) 
-0.157123

>  <r_i_glide_ligand_efficiency_sa>  (195) 
-0.426497

>  <r_i_glide_ligand_efficiency_ln>  (195) 
-0.786454

>  <r_i_glide_gscore>  (195) 
-3.14246

>  <r_i_glide_lipo>  (195) 
-0.122031

>  <r_i_glide_hbond>  (195) 
-0.368565

>  <r_i_glide_metal>  (195) 
-0

>  <r_i_glide_rewards>  (195) 
-1.61129

>  <r_i_glide_evdw>  (195) 
-18.8161

>  <r_i_glide_ecoul>  (195) 
-3.72166

>  <r_i_glide_erotb>  (195) 
0.499004

>  <r_i_glide_esite>  (195) 
-0.0405252

>  <r_i_glide_emodel>  (195) 
-26.667

>  <r_i_glide_energy>  (195) 
-22.5378

>  <r_i_glide_einternal>  (195) 
1.0456

>  <r_i_glide_intrahb_reward>  (195) 
-0

>  <i_i_glide_confnum>  (195) 
6

>  <i_i_glide_posenum>  (195) 
1

>  <r_i_glide_eff_state_penalty>  (195) 
0

>  <ligand_id>  (195) 
60

>  <original_smiles>  (195) 
Cn1cc(C2C3CCC2(c2cccnc2)C(=O)C3)cn1

>  <smiles>  (195) 
[H]c1nc([H])c(C23C(=O)C([H])([H])C([H])(C([H])([H])C2([H])[H])C3([H])c2c([H])nn(C([H])([H])[H])c2[H])c([H])c1[H]

$$$$
60:0:2
     RDKit          3D

 37 40  0  0  1  0  0  0  0  0999 V2000
   -2.1890   -7.7124    3.3915 C   0  0  0  0  0  0  0  0  0  0  0  0
   -0.8541   -8.0170    2.9220 N   0  0  0  0  0  0  0  0  0  0  0  0
   -0.1103   -9.1518    3.1237 C   0  0  0  0  0  0  0  0  0  0  0  0
    1.1222   -8.9541    2.5609 C   0  0  0  0  0  0  0  0  0  0  0  0
    2.3170   -9.8938    2.5516 C   0  0  2  0  0  0  0  0  0  0  0  0
    2.1924  -11.0844    3.5444 C   0  0  1  0  0  0  0  0  0  0  0  0
    3.5332  -11.8028    3.3607 C   0  0  0  0  0  0  0  0  0  0  0  0
    4.5157  -10.6347    3.1324 C   0  0  0  0  0  0  0  0  0  0  0  0
    3.6251   -9.3752    3.2077 C   0  0  1  0  0  0  0  0  0  0  0  0
    4.2119   -8.0726    2.6285 C   0  0  0  0  0  0  0  0  0  0  0  0
    3.5777   -6.8346    2.8083 C   0  0  0  0  0  0  0  0  0  0  0  0
    4.0580   -5.7041    2.1355 C   0  0  0  0  0  0  0  0  0  0  0  0
    5.2608   -5.8123    1.3953 C   0  0  0  0  0  0  0  0  0  0  0  0
    5.9208   -6.9721    1.2760 N   0  0  0  0  0  0  0  0  0  0  0  0
    5.4250   -8.0740    1.8730 C   0  0  0  0  0  0  0  0  0  0  0  0
    3.1574   -9.2630    4.6702 C   0  0  0  0  0  0  0  0  0  0  0  0
    3.5086   -8.4183    5.4977 O   0  0  0  0  0  0  0  0  0  0  0  0
    2.1832  -10.4038    4.9391 C   0  0  0  0  0  0  0  0  0  0  0  0
    0.9612   -7.6895    1.9236 C   0  0  0  0  0  0  0  0  0  0  0  0
   -0.2010   -7.1092    2.1621 N   0  0  0  0  0  0  0  0  0  0  0  0
   -2.5927   -8.5923    3.8948 H   0  0  0  0  0  0  0  0  0  0  0  0
   -2.7993   -7.4758    2.5287 H   0  0  0  0  0  0  0  0  0  0  0  0
   -2.1823   -6.8684    4.0895 H   0  0  0  0  0  0  0  0  0  0  0  0
   -0.5329   -9.9817    3.6847 H   0  0  0  0  0  0  0  0  0  0  0  0
    2.5177  -10.2526    1.5357 H   0  0  0  0  0  0  0  0  0  0  0  0
    1.3351  -11.7377    3.3806 H   0  0  0  0  0  0  0  0  0  0  0  0
    3.8047  -12.4173    4.2209 H   0  0  0  0  0  0  0  0  0  0  0  0
    3.5123  -12.4586    2.4914 H   0  0  0  0  0  0  0  0  0  0  0  0
    5.3203  -10.6218    3.8656 H   0  0  0  0  0  0  0  0  0  0  0  0
    4.9732  -10.7724    2.1508 H   0  0  0  0  0  0  0  0  0  0  0  0
    2.6785   -6.7634    3.4147 H   0  0  0  0  0  0  0  0  0  0  0  0
    3.5570   -4.7591    2.1934 H   0  0  0  0  0  0  0  0  0  0  0  0
    5.6535   -4.9709    0.8403 H   0  0  0  0  0  0  0  0  0  0  0  0
    5.9775   -8.9696    1.6690 H   0  0  0  0  0  0  0  0  0  0  0  0
    1.2105   -9.9811    5.1970 H   0  0  0  0  0  0  0  0  0  0  0  0
    2.5081  -11.0609    5.7477 H   0  0  0  0  0  0  0  0  0  0  0  0
    1.6752   -7.1686    1.2817 H   0  0  0  0  0  0  0  0  0  0  0  0
  1  2  1  0
  1 21  1  0
  1 22  1  0
  1 23  1  0
  2 20  1  0
  2  3  1  0
  3  4  2  0
  3 24  1  0
  4  5  1  0
  4 19  1  0
  5  9  1  0
  5  6  1  0
  5 25  1  6
  6 18  1  0
  6  7  1  0
  6 26  1  6
  7  8  1  0
  7 27  1  0
  7 28  1  0
  8  9  1  0
  8 29  1  0
  8 30  1  0
  9 10  1  6
  9 16  1  0
 10 15  1  0
 10 11  2  0
 11 12  1  0
 11 31  1  0
 12 13  2  0
 12 32  1  0
 13 14  1  0
 13 33  1  0
 14 15  2  0
 15 34  1  0
 16 17  2  0
 16 18  1  0
 18 35  1  0
 18 36  1  0
 19 20  2  0
 19 37  1  0
M  END
>  <i_m_ct_stereo_status>  (196) 
1

>  <s_m_source_file>  (196) 
/var/tmp/pbs.5076255.sched01/tmprtix0sri/443g93ja_l.sdf

>  <i_m_source_file_index>  (196) 
41

>  <i_lp_mmshare_version>  (196) 
48012

>  <i_f3d_flags>  (196) 
0

>  <s_epik_input>  (196) 
W0NIM11uMVtjSF1jKFtjSF1uMSlbQ0BIXShbQ0BASF0oW0NIMl1bQ0gyXTIpW0NIMl1DMz1PKVtDQF0yM2M0W2NIXVtjSF1bY0hdbltjSF00

>  <s_epik_cmdline>  (196) 
J2VwaWtfcHl0aG9uJywgJy1waHQnLCAnMi4wJywgJy1waCcsICc3LjAnLCAnLXRuJywgJzgnLCAnLW1hJywgJzIwMCcsICctaW1hZScsICc8aW5maWxlLm1hZT4nLCAnLW9tYWUnLCAnPG91dGZpbGUubWFlPic=

>  <r_lp_tautomer_probability>  (196) 
0.99995

>  <r_epik_Ionization_Penalty>  (196) 
0.015098

>  <r_epik_Ionization_Penalty_Charging>  (196) 
0

>  <r_epik_Ionization_Penalty_Neutral>  (196) 
0.015098

>  <r_epik_State_Penalty>  (196) 
0.011422

>  <r_epik_Charging_Adjusted_Penalty>  (196) 
0.011422

>  <i_epik_Tot_Q>  (196) 
0

>  <i_epik_Tot_abs_Q>  (196) 
0

>  <s_lp_Force_Field>  (196) 
OPLS3e

>  <r_lp_Energy>  (196) 
41.4996

>  <b_lp_Chiralities_Consistent>  (196) 
1

>  <s_lp_Variant>  (196) 
60:0-1

>  <s_i_glide_gridfile>  (196) 
pfpi4k_grid

>  <i_i_glide_lignum>  (196) 
41

>  <i_i_glide_rotatable_bonds>  (196) 
2

>  <r_i_docking_score>  (196) 
-3.01402

>  <r_i_glide_ligand_efficiency>  (196) 
-0.150701

>  <r_i_glide_ligand_efficiency_sa>  (196) 
-0.409065

>  <r_i_glide_ligand_efficiency_ln>  (196) 
-0.75431

>  <r_i_glide_gscore>  (196) 
-3.01402

>  <r_i_glide_lipo>  (196) 
-0.215912

>  <r_i_glide_hbond>  (196) 
-0.0475715

>  <r_i_glide_metal>  (196) 
-0

>  <r_i_glide_rewards>  (196) 
-1.58642

>  <r_i_glide_evdw>  (196) 
-21.8328

>  <r_i_glide_ecoul>  (196) 
-3.34696

>  <r_i_glide_erotb>  (196) 
0.499004

>  <r_i_glide_esite>  (196) 
-0.0694378

>  <r_i_glide_emodel>  (196) 
-29.3571

>  <r_i_glide_energy>  (196) 
-25.1798

>  <r_i_glide_einternal>  (196) 
1.10813

>  <r_i_glide_intrahb_reward>  (196) 
-0

>  <i_i_glide_confnum>  (196) 
5

>  <i_i_glide_posenum>  (196) 
10

>  <r_i_glide_eff_state_penalty>  (196) 
0

>  <ligand_id>  (196) 
60

>  <original_smiles>  (196) 
Cn1cc(C2C3CCC2(c2cccnc2)C(=O)C3)cn1

>  <smiles>  (196) 
[H]c1nc([H])c(C23C(=O)C([H])([H])C([H])(C([H])([H])C2([H])[H])C3([H])c2c([H])nn(C([H])([H])[H])c2[H])c([H])c1[H]

$$$$
60:1:0
     RDKit          3D

 38 41  0  0  1  0  0  0  0  0999 V2000
    2.9903   -0.5499   -3.8622 C   0  0  0  0  0  0  0  0  0  0  0  0
    3.8852   -1.4044   -3.1263 N   0  0  0  0  0  0  0  0  0  0  0  0
    4.1019   -1.3788   -1.7607 C   0  0  0  0  0  0  0  0  0  0  0  0
    5.0472   -2.3127   -1.4542 C   0  0  0  0  0  0  0  0  0  0  0  0
    5.6206   -2.7247   -0.0719 C   0  0  2  0  0  0  0  0  0  0  0  0
    6.2458   -4.1174   -0.0212 C   0  0  1  0  0  0  0  0  0  0  0  0
    6.6397   -4.2458    1.4674 C   0  0  0  0  0  0  0  0  0  0  0  0
    5.4850   -3.5157    2.1822 C   0  0  0  0  0  0  0  0  0  0  0  0
    4.5692   -3.0451    1.0292 C   0  0  1  0  0  0  0  0  0  0  0  0
    3.6308   -1.9060    1.4466 C   0  0  0  0  0  0  0  0  0  0  0  0
    2.4280   -2.1781    2.1617 C   0  0  0  0  0  0  0  0  0  0  0  0
    1.5356   -1.1242    2.4631 C   0  0  0  0  0  0  0  0  0  0  0  0
    1.8503    0.1856    2.0346 C   0  0  0  0  0  0  0  0  0  0  0  0
    3.0437    0.3990    1.4006 N   0  0  0  0  0  0  0  0  0  0  0  0
    3.8976   -0.5652    1.1359 C   0  0  0  0  0  0  0  0  0  0  0  0
    3.9520   -4.3195    0.4232 C   0  0  0  0  0  0  0  0  0  0  0  0
    2.7774   -4.6817    0.4851 O   0  0  0  0  0  0  0  0  0  0  0  0
    5.0600   -5.0715   -0.3048 C   0  0  0  0  0  0  0  0  0  0  0  0
    5.3376   -2.8946   -2.7416 C   0  0  0  0  0  0  0  0  0  0  0  0
    4.6130   -2.3653   -3.7195 N   0  0  0  0  0  0  0  0  0  0  0  0
    2.4902    0.1136   -3.1553 H   0  0  0  0  0  0  0  0  0  0  0  0
    2.2416   -1.1520   -4.3666 H   0  0  0  0  0  0  0  0  0  0  0  0
    3.5553    0.0666   -4.5609 H   0  0  0  0  0  0  0  0  0  0  0  0
    3.5133   -0.6829   -1.1297 H   0  0  0  0  0  0  0  0  0  0  0  0
    6.3494   -1.9894    0.2770 H   0  0  0  0  0  0  0  0  0  0  0  0
    7.1008   -4.2560   -0.6877 H   0  0  0  0  0  0  0  0  0  0  0  0
    6.7399   -5.2772    1.7937 H   0  0  0  0  0  0  0  0  0  0  0  0
    7.5955   -3.7444    1.6836 H   0  0  0  0  0  0  0  0  0  0  0  0
    4.9619   -4.1558    2.8938 H   0  0  0  0  0  0  0  0  0  0  0  0
    5.8731   -2.6552    2.7519 H   0  0  0  0  0  0  0  0  0  0  0  0
    2.1613   -3.1949    2.4342 H   0  0  0  0  0  0  0  0  0  0  0  0
    0.5936   -1.3237    2.9528 H   0  0  0  0  0  0  0  0  0  0  0  0
    1.1982    1.0404    2.1366 H   0  0  0  0  0  0  0  0  0  0  0  0
    4.8297   -0.2259    0.6441 H   0  0  0  0  0  0  0  0  0  0  0  0
    4.8311   -5.1337   -1.3674 H   0  0  0  0  0  0  0  0  0  0  0  0
    5.2090   -6.0920    0.0717 H   0  0  0  0  0  0  0  0  0  0  0  0
    6.0053   -3.6905   -2.9674 H   0  0  0  0  0  0  0  0  0  0  0  0
    3.2271    1.3599    1.0869 H   0  0  0  0  0  0  0  0  0  0  0  0
  1  2  1  0
  1 21  1  0
  1 22  1  0
  1 23  1  0
  2 20  1  0
  2  3  1  0
  3  4  2  0
  3 24  1  0
  4  5  1  0
  4 19  1  0
  5  9  1  0
  5  6  1  0
  5 25  1  1
  6 18  1  0
  6  7  1  0
  6 26  1  6
  7  8  1  0
  7 27  1  0
  7 28  1  0
  8  9  1  0
  8 29  1  0
  8 30  1  0
  9 10  1  1
  9 16  1  0
 10 15  1  0
 10 11  2  0
 11 12  1  0
 11 31  1  0
 12 13  2  0
 12 32  1  0
 13 14  1  0
 13 33  1  0
 14 15  2  0
 14 38  1  0
 15 34  1  0
 16 17  2  0
 16 18  1  0
 18 35  1  0
 18 36  1  0
 19 20  2  0
 19 37  1  0
M  CHG  1  14   1
M  END
>  <i_m_ct_stereo_status>  (197) 
1

>  <s_m_source_file>  (197) 
/var/tmp/pbs.5076255.sched01/tmprtix0sri/443g93ja_l.sdf

>  <i_m_source_file_index>  (197) 
42

>  <i_lp_mmshare_version>  (197) 
48012

>  <i_f3d_flags>  (197) 
0

>  <s_epik_input>  (197) 
W0NIM11uMVtjSF1jKFtjSF1uMSlbQ0BIXShbQ0BASF0oW0NIMl1bQ0gyXTIpW0NIMl1DMz1PKVtDQF0yM2M0W2NIXVtjSF1bY0hdbltjSF00

>  <s_epik_cmdline>  (197) 
J2VwaWtfcHl0aG9uJywgJy1waHQnLCAnMi4wJywgJy1waCcsICc3LjAnLCAnLXRuJywgJzgnLCAnLW1hJywgJzIwMCcsICctaW1hZScsICc8aW5maWxlLm1hZT4nLCAnLW9tYWUnLCAnPG91dGZpbGUubWFlPic=

>  <r_lp_tautomer_probability>  (197) 
0.99995

>  <r_epik_Ionization_Penalty>  (197) 
2.20206

>  <r_epik_Ionization_Penalty_Charging>  (197) 
2.20176

>  <r_epik_Ionization_Penalty_Neutral>  (197) 
0.000305885

>  <r_epik_State_Penalty>  (197) 
2.3453

>  <r_epik_Charging_Adjusted_Penalty>  (197) 
4.54706

>  <i_epik_Tot_Q>  (197) 
1

>  <i_epik_Tot_abs_Q>  (197) 
1

>  <s_lp_Force_Field>  (197) 
OPLS3e

>  <r_lp_Energy>  (197) 
45.0407

>  <b_lp_Chiralities_Consistent>  (197) 
1

>  <s_lp_Variant>  (197) 
60:0-2

>  <s_i_glide_gridfile>  (197) 
pfpi4k_grid

>  <i_i_glide_lignum>  (197) 
42

>  <i_i_glide_rotatable_bonds>  (197) 
2

>  <r_i_docking_score>  (197) 
-3.96753

>  <r_i_glide_ligand_efficiency>  (197) 
-0.198376

>  <r_i_glide_ligand_efficiency_sa>  (197) 
-0.538476

>  <r_i_glide_ligand_efficiency_ln>  (197) 
-0.992941

>  <r_i_glide_gscore>  (197) 
-3.96753

>  <r_i_glide_lipo>  (197) 
-0.658218

>  <r_i_glide_hbond>  (197) 
0

>  <r_i_glide_metal>  (197) 
-0

>  <r_i_glide_rewards>  (197) 
-1.66409

>  <r_i_glide_evdw>  (197) 
-24.6497

>  <r_i_glide_ecoul>  (197) 
-6.05669

>  <r_i_glide_erotb>  (197) 
0.495769

>  <r_i_glide_esite>  (197) 
0

>  <r_i_glide_emodel>  (197) 
-39.3387

>  <r_i_glide_energy>  (197) 
-30.7064

>  <r_i_glide_einternal>  (197) 
0.0858323

>  <r_i_glide_intrahb_reward>  (197) 
-0

>  <i_i_glide_confnum>  (197) 
2

>  <i_i_glide_posenum>  (197) 
30

>  <r_i_glide_eff_state_penalty>  (197) 
0

>  <ligand_id>  (197) 
60

>  <original_smiles>  (197) 
Cn1cc(C2C3CCC2(c2cccnc2)C(=O)C3)cn1

>  <smiles>  (197) 
[H]c1nn(C([H])([H])[H])c([H])c1C1([H])C2(c3c([H])c([H])c([H])[n+]([H])c3[H])C(=O)C([H])([H])C1([H])C([H])([H])C2([H])[H]

$$$$
60:1:1
     RDKit          3D

 38 41  0  0  1  0  0  0  0  0999 V2000
    1.6925   -7.4524    1.5787 C   0  0  0  0  0  0  0  0  0  0  0  0
    2.4730   -6.4012    0.9960 N   0  0  0  0  0  0  0  0  0  0  0  0
    3.8391   -6.2438    0.9119 C   0  0  0  0  0  0  0  0  0  0  0  0
    4.0818   -5.0417    0.2939 C   0  0  0  0  0  0  0  0  0  0  0  0
    5.4307   -4.4115   -0.0261 C   0  0  2  0  0  0  0  0  0  0  0  0
    6.3724   -4.2555    1.1724 C   0  0  1  0  0  0  0  0  0  0  0  0
    7.5919   -3.5594    0.5249 C   0  0  0  0  0  0  0  0  0  0  0  0
    6.9466   -2.6183   -0.5143 C   0  0  0  0  0  0  0  0  0  0  0  0
    5.4351   -2.9015   -0.3713 C   0  0  1  0  0  0  0  0  0  0  0  0
    4.6198   -2.4560   -1.5983 C   0  0  0  0  0  0  0  0  0  0  0  0
    4.3267   -1.0932   -1.8427 C   0  0  0  0  0  0  0  0  0  0  0  0
    3.5435   -0.7406   -2.9604 C   0  0  0  0  0  0  0  0  0  0  0  0
    3.0283   -1.7504   -3.7904 C   0  0  0  0  0  0  0  0  0  0  0  0
    3.3374   -3.0326   -3.5442 N   0  0  0  0  0  0  0  0  0  0  0  0
    4.1380   -3.4114   -2.5222 C   0  0  0  0  0  0  0  0  0  0  0  0
    5.0053   -2.3479    1.0015 C   0  0  0  0  0  0  0  0  0  0  0  0
    4.2963   -1.3672    1.2145 O   0  0  0  0  0  0  0  0  0  0  0  0
    5.6014   -3.2601    2.0696 C   0  0  0  0  0  0  0  0  0  0  0  0
    2.7623   -4.5488    0.0591 C   0  0  0  0  0  0  0  0  0  0  0  0
    1.8146   -5.3806    0.4389 N   0  0  0  0  0  0  0  0  0  0  0  0
    2.3580   -8.2283    1.9583 H   0  0  0  0  0  0  0  0  0  0  0  0
    1.0225   -7.8704    0.8209 H   0  0  0  0  0  0  0  0  0  0  0  0
    1.0888   -7.0459    2.3987 H   0  0  0  0  0  0  0  0  0  0  0  0
    4.5124   -6.9902    1.2992 H   0  0  0  0  0  0  0  0  0  0  0  0
    5.9154   -4.9942   -0.7994 H   0  0  0  0  0  0  0  0  0  0  0  0
    6.6294   -5.1881    1.6707 H   0  0  0  0  0  0  0  0  0  0  0  0
    8.1839   -3.0240    1.2564 H   0  0  0  0  0  0  0  0  0  0  0  0
    8.2446   -4.2772    0.0239 H   0  0  0  0  0  0  0  0  0  0  0  0
    7.1753   -1.5714   -0.3194 H   0  0  0  0  0  0  0  0  0  0  0  0
    7.3039   -2.8564   -1.5189 H   0  0  0  0  0  0  0  0  0  0  0  0
    4.6674   -0.3332   -1.1557 H   0  0  0  0  0  0  0  0  0  0  0  0
    3.2723    0.2897   -3.1248 H   0  0  0  0  0  0  0  0  0  0  0  0
    2.3597   -1.5626   -4.6197 H   0  0  0  0  0  0  0  0  0  0  0  0
    4.2981   -4.4739   -2.4405 H   0  0  0  0  0  0  0  0  0  0  0  0
    4.8001   -3.7604    2.6128 H   0  0  0  0  0  0  0  0  0  0  0  0
    6.2206   -2.7175    2.7862 H   0  0  0  0  0  0  0  0  0  0  0  0
    2.4539   -3.6097   -0.3861 H   0  0  0  0  0  0  0  0  0  0  0  0
    2.9054   -3.7675   -4.1032 H   0  0  0  0  0  0  0  0  0  0  0  0
  1  2  1  0
  1 21  1  0
  1 22  1  0
  1 23  1  0
  2 20  1  0
  2  3  1  0
  3  4  2  0
  3 24  1  0
  4  5  1  0
  4 19  1  0
  5  9  1  0
  5  6  1  0
  5 25  1  6
  6 18  1  0
  6  7  1  0
  6 26  1  1
  7  8  1  0
  7 27  1  0
  7 28  1  0
  8  9  1  0
  8 29  1  0
  8 30  1  0
  9 10  1  6
  9 16  1  0
 10 15  1  0
 10 11  2  0
 11 12  1  0
 11 31  1  0
 12 13  2  0
 12 32  1  0
 13 14  1  0
 13 33  1  0
 14 15  2  0
 14 38  1  0
 15 34  1  0
 16 17  2  0
 16 18  1  0
 18 35  1  0
 18 36  1  0
 19 20  2  0
 19 37  1  0
M  CHG  1  14   1
M  END
>  <i_m_ct_stereo_status>  (198) 
1

>  <s_m_source_file>  (198) 
/var/tmp/pbs.5076255.sched01/tmprtix0sri/443g93ja_l.sdf

>  <i_m_source_file_index>  (198) 
42

>  <i_lp_mmshare_version>  (198) 
48012

>  <i_f3d_flags>  (198) 
0

>  <s_epik_input>  (198) 
W0NIM11uMVtjSF1jKFtjSF1uMSlbQ0BIXShbQ0BASF0oW0NIMl1bQ0gyXTIpW0NIMl1DMz1PKVtDQF0yM2M0W2NIXVtjSF1bY0hdbltjSF00

>  <s_epik_cmdline>  (198) 
J2VwaWtfcHl0aG9uJywgJy1waHQnLCAnMi4wJywgJy1waCcsICc3LjAnLCAnLXRuJywgJzgnLCAnLW1hJywgJzIwMCcsICctaW1hZScsICc8aW5maWxlLm1hZT4nLCAnLW9tYWUnLCAnPG91dGZpbGUubWFlPic=

>  <r_lp_tautomer_probability>  (198) 
0.99995

>  <r_epik_Ionization_Penalty>  (198) 
2.20206

>  <r_epik_Ionization_Penalty_Charging>  (198) 
2.20176

>  <r_epik_Ionization_Penalty_Neutral>  (198) 
0.000305885

>  <r_epik_State_Penalty>  (198) 
2.3453

>  <r_epik_Charging_Adjusted_Penalty>  (198) 
4.54706

>  <i_epik_Tot_Q>  (198) 
1

>  <i_epik_Tot_abs_Q>  (198) 
1

>  <s_lp_Force_Field>  (198) 
OPLS3e

>  <r_lp_Energy>  (198) 
45.0407

>  <b_lp_Chiralities_Consistent>  (198) 
1

>  <s_lp_Variant>  (198) 
60:0-2

>  <s_i_glide_gridfile>  (198) 
pfpi4k_grid

>  <i_i_glide_lignum>  (198) 
42

>  <i_i_glide_rotatable_bonds>  (198) 
2

>  <r_i_docking_score>  (198) 
-3.90962

>  <r_i_glide_ligand_efficiency>  (198) 
-0.195481

>  <r_i_glide_ligand_efficiency_sa>  (198) 
-0.530617

>  <r_i_glide_ligand_efficiency_ln>  (198) 
-0.978449

>  <r_i_glide_gscore>  (198) 
-3.90962

>  <r_i_glide_lipo>  (198) 
-0.65557

>  <r_i_glide_hbond>  (198) 
-0.100597

>  <r_i_glide_metal>  (198) 
-0

>  <r_i_glide_rewards>  (198) 
-1.61944

>  <r_i_glide_evdw>  (198) 
-20.7889

>  <r_i_glide_ecoul>  (198) 
-6.49933

>  <r_i_glide_erotb>  (198) 
0.495769

>  <r_i_glide_esite>  (198) 
-0.015433

>  <r_i_glide_emodel>  (198) 
-36.1516

>  <r_i_glide_energy>  (198) 
-27.2883

>  <r_i_glide_einternal>  (198) 
0.43653

>  <r_i_glide_intrahb_reward>  (198) 
-0

>  <i_i_glide_confnum>  (198) 
2

>  <i_i_glide_posenum>  (198) 
6

>  <r_i_glide_eff_state_penalty>  (198) 
0

>  <ligand_id>  (198) 
60

>  <original_smiles>  (198) 
Cn1cc(C2C3CCC2(c2cccnc2)C(=O)C3)cn1

>  <smiles>  (198) 
[H]c1nn(C([H])([H])[H])c([H])c1C1([H])C2(c3c([H])c([H])c([H])[n+]([H])c3[H])C(=O)C([H])([H])C1([H])C([H])([H])C2([H])[H]

$$$$
60:1:2
     RDKit          3D

 38 41  0  0  1  0  0  0  0  0999 V2000
    1.7797   -5.9250    0.2409 C   0  0  0  0  0  0  0  0  0  0  0  0
    1.1075   -6.7031    1.2503 N   0  0  0  0  0  0  0  0  0  0  0  0
    1.6778   -7.5622    2.1432 C   0  0  0  0  0  0  0  0  0  0  0  0
    0.6904   -8.1159    2.9149 C   0  0  0  0  0  0  0  0  0  0  0  0
    0.8007   -9.0962    4.0910 C   0  0  2  0  0  0  0  0  0  0  0  0
   -0.0408   -8.7377    5.3251 C   0  0  1  0  0  0  0  0  0  0  0  0
    0.3754   -9.8542    6.3123 C   0  0  0  0  0  0  0  0  0  0  0  0
    1.8718  -10.0630    5.9961 C   0  0  0  0  0  0  0  0  0  0  0  0
    2.1453   -9.0529    4.8633 C   0  0  1  0  0  0  0  0  0  0  0  0
    3.4142   -9.3699    4.0594 C   0  0  0  0  0  0  0  0  0  0  0  0
    4.6952   -8.9370    4.4848 C   0  0  0  0  0  0  0  0  0  0  0  0
    5.8232   -9.1773    3.6727 C   0  0  0  0  0  0  0  0  0  0  0  0
    5.6589   -9.8522    2.4458 C   0  0  0  0  0  0  0  0  0  0  0  0
    4.4273  -10.2677    2.0880 N   0  0  0  0  0  0  0  0  0  0  0  0
    3.3334  -10.0886    2.8435 C   0  0  0  0  0  0  0  0  0  0  0  0
    2.0202   -7.6412    5.4867 C   0  0  0  0  0  0  0  0  0  0  0  0
    2.9189   -6.8176    5.6590 O   0  0  0  0  0  0  0  0  0  0  0  0
    0.5566   -7.3911    5.7936 C   0  0  0  0  0  0  0  0  0  0  0  0
   -0.4864   -7.5014    2.3918 C   0  0  0  0  0  0  0  0  0  0  0  0
   -0.2267   -6.6550    1.4026 N   0  0  0  0  0  0  0  0  0  0  0  0
    2.8569   -6.1223    0.2770 H   0  0  0  0  0  0  0  0  0  0  0  0
    1.6312   -4.8592    0.3974 H   0  0  0  0  0  0  0  0  0  0  0  0
    1.4145   -6.2162   -0.7405 H   0  0  0  0  0  0  0  0  0  0  0  0
    2.7561   -7.6664    2.1434 H   0  0  0  0  0  0  0  0  0  0  0  0
    0.5471  -10.1078    3.7658 H   0  0  0  0  0  0  0  0  0  0  0  0
   -1.1173   -8.6998    5.1504 H   0  0  0  0  0  0  0  0  0  0  0  0
    0.2134   -9.5724    7.3525 H   0  0  0  0  0  0  0  0  0  0  0  0
   -0.1810  -10.7733    6.1270 H   0  0  0  0  0  0  0  0  0  0  0  0
    2.5159   -9.8971    6.8629 H   0  0  0  0  0  0  0  0  0  0  0  0
    2.0395  -11.0903    5.6633 H   0  0  0  0  0  0  0  0  0  0  0  0
    4.8161   -8.3969    5.4124 H   0  0  0  0  0  0  0  0  0  0  0  0
    6.7976   -8.8274    3.9845 H   0  0  0  0  0  0  0  0  0  0  0  0
    6.4646  -10.1048    1.7730 H   0  0  0  0  0  0  0  0  0  0  0  0
    2.4279  -10.4903    2.4152 H   0  0  0  0  0  0  0  0  0  0  0  0
    0.1989   -6.5593    5.1919 H   0  0  0  0  0  0  0  0  0  0  0  0
    0.3811   -7.1772    6.8499 H   0  0  0  0  0  0  0  0  0  0  0  0
   -1.5024   -7.6112    2.7304 H   0  0  0  0  0  0  0  0  0  0  0  0
    4.3199  -10.8622    1.2381 H   0  0  0  0  0  0  0  0  0  0  0  0
  1  2  1  0
  1 21  1  0
  1 22  1  0
  1 23  1  0
  2 20  1  0
  2  3  1  0
  3  4  2  0
  3 24  1  0
  4  5  1  0
  4 19  1  0
  5  9  1  0
  5  6  1  0
  5 25  1  6
  6 18  1  0
  6  7  1  0
  6 26  1  6
  7  8  1  0
  7 27  1  0
  7 28  1  0
  8  9  1  0
  8 29  1  0
  8 30  1  0
  9 10  1  6
  9 16  1  0
 10 15  1  0
 10 11  2  0
 11 12  1  0
 11 31  1  0
 12 13  2  0
 12 32  1  0
 13 14  1  0
 13 33  1  0
 14 15  2  0
 14 38  1  0
 15 34  1  0
 16 17  2  0
 16 18  1  0
 18 35  1  0
 18 36  1  0
 19 20  2  0
 19 37  1  0
M  CHG  1  14   1
M  END
>  <i_m_ct_stereo_status>  (199) 
1

>  <s_m_source_file>  (199) 
/var/tmp/pbs.5076255.sched01/tmprtix0sri/443g93ja_l.sdf

>  <i_m_source_file_index>  (199) 
42

>  <i_lp_mmshare_version>  (199) 
48012

>  <i_f3d_flags>  (199) 
0

>  <s_epik_input>  (199) 
W0NIM11uMVtjSF1jKFtjSF1uMSlbQ0BIXShbQ0BASF0oW0NIMl1bQ0gyXTIpW0NIMl1DMz1PKVtDQF0yM2M0W2NIXVtjSF1bY0hdbltjSF00

>  <s_epik_cmdline>  (199) 
J2VwaWtfcHl0aG9uJywgJy1waHQnLCAnMi4wJywgJy1waCcsICc3LjAnLCAnLXRuJywgJzgnLCAnLW1hJywgJzIwMCcsICctaW1hZScsICc8aW5maWxlLm1hZT4nLCAnLW9tYWUnLCAnPG91dGZpbGUubWFlPic=

>  <r_lp_tautomer_probability>  (199) 
0.99995

>  <r_epik_Ionization_Penalty>  (199) 
2.20206

>  <r_epik_Ionization_Penalty_Charging>  (199) 
2.20176

>  <r_epik_Ionization_Penalty_Neutral>  (199) 
0.000305885

>  <r_epik_State_Penalty>  (199) 
2.3453

>  <r_epik_Charging_Adjusted_Penalty>  (199) 
4.54706

>  <i_epik_Tot_Q>  (199) 
1

>  <i_epik_Tot_abs_Q>  (199) 
1

>  <s_lp_Force_Field>  (199) 
OPLS3e

>  <r_lp_Energy>  (199) 
45.0407

>  <b_lp_Chiralities_Consistent>  (199) 
1

>  <s_lp_Variant>  (199) 
60:0-2

>  <s_i_glide_gridfile>  (199) 
pfpi4k_grid

>  <i_i_glide_lignum>  (199) 
42

>  <i_i_glide_rotatable_bonds>  (199) 
2

>  <r_i_docking_score>  (199) 
-3.82458

>  <r_i_glide_ligand_efficiency>  (199) 
-0.191229

>  <r_i_glide_ligand_efficiency_sa>  (199) 
-0.519076

>  <r_i_glide_ligand_efficiency_ln>  (199) 
-0.957167

>  <r_i_glide_gscore>  (199) 
-3.82458

>  <r_i_glide_lipo>  (199) 
0

>  <r_i_glide_hbond>  (199) 
-0.439889

>  <r_i_glide_metal>  (199) 
-0

>  <r_i_glide_rewards>  (199) 
-1.57954

>  <r_i_glide_evdw>  (199) 
-18.0006

>  <r_i_glide_ecoul>  (199) 
-8.16869

>  <r_i_glide_erotb>  (199) 
0.495769

>  <r_i_glide_esite>  (199) 
-0.175585

>  <r_i_glide_emodel>  (199) 
-34.3177

>  <r_i_glide_energy>  (199) 
-26.1693

>  <r_i_glide_einternal>  (199) 
1.11072

>  <r_i_glide_intrahb_reward>  (199) 
-0

>  <i_i_glide_confnum>  (199) 
4

>  <i_i_glide_posenum>  (199) 
29

>  <r_i_glide_eff_state_penalty>  (199) 
0

>  <ligand_id>  (199) 
60

>  <original_smiles>  (199) 
Cn1cc(C2C3CCC2(c2cccnc2)C(=O)C3)cn1

>  <smiles>  (199) 
[H]c1nn(C([H])([H])[H])c([H])c1C1([H])C2(c3c([H])c([H])c([H])[n+]([H])c3[H])C(=O)C([H])([H])C1([H])C([H])([H])C2([H])[H]

$$$$
61:0:0
     RDKit          3D

 45 48  0  0  1  0  0  0  0  0999 V2000
    2.8346   -6.3648    2.6098 C   0  0  0  0  0  0  0  0  0  0  0  0
    3.9186   -5.9225    1.6005 C   0  0  0  0  0  0  0  0  0  0  0  0
    4.5909   -7.1916    1.0476 C   0  0  0  0  0  0  0  0  0  0  0  0
    3.2904   -5.1013    0.4628 C   0  0  0  0  0  0  0  0  0  0  0  0
    4.4394   -4.2824   -0.1695 C   0  0  1  0  0  0  0  0  0  0  0  0
    3.9983   -3.1321   -1.2021 C   0  0  0  0  0  0  0  0  0  0  0  0
    4.7563   -3.2478   -2.5485 C   0  0  0  0  0  0  0  0  0  0  0  0
    2.5049   -3.2191   -1.5852 C   0  0  0  0  0  0  0  0  0  0  0  0
    4.0075   -1.7676   -0.7215 O   0  0  0  0  0  0  0  0  0  0  0  0
    5.2403   -1.0905   -0.4321 C   0  0  0  0  0  0  0  0  0  0  0  0
    6.0075   -1.8523    0.6369 C   0  0  0  0  0  0  0  0  0  0  0  0
    5.2320   -2.5879    1.4364 C   0  0  0  0  0  0  0  0  0  0  0  0
    4.1189   -2.1602    2.3766 C   0  0  1  0  0  0  0  0  0  0  0  0
    2.8625   -2.0648    1.7585 O   0  0  0  0  0  0  0  0  0  0  0  0
    4.0692   -3.1341    3.5734 C   0  0  0  0  0  0  0  0  0  0  0  0
    3.5602   -2.7193    4.6209 O   0  0  0  0  0  0  0  0  0  0  0  0
    4.6004   -4.3654    3.4121 O   0  0  0  0  0  0  0  0  0  0  0  0
    5.0035   -4.9759    2.1906 C   0  0  2  0  0  0  0  0  0  0  0  0
    5.3911   -4.0092    1.0588 C   0  0  1  0  0  0  0  0  0  0  0  0
    6.8837   -4.0679    0.6627 C   0  0  0  0  0  0  0  0  0  0  0  0
    7.1523   -2.6725    0.0690 C   0  0  0  0  0  0  0  0  0  0  0  0
    2.1222   -7.0482    2.1414 H   0  0  0  0  0  0  0  0  0  0  0  0
    2.2643   -5.5229    3.0038 H   0  0  0  0  0  0  0  0  0  0  0  0
    3.2783   -6.8920    3.4626 H   0  0  0  0  0  0  0  0  0  0  0  0
    5.3924   -6.9560    0.3489 H   0  0  0  0  0  0  0  0  0  0  0  0
    3.8744   -7.8358    0.5304 H   0  0  0  0  0  0  0  0  0  0  0  0
    5.0286   -7.7803    1.8536 H   0  0  0  0  0  0  0  0  0  0  0  0
    2.8047   -5.7375   -0.2792 H   0  0  0  0  0  0  0  0  0  0  0  0
    2.5336   -4.4419    0.8852 H   0  0  0  0  0  0  0  0  0  0  0  0
    4.9610   -5.0188   -0.7863 H   0  0  0  0  0  0  0  0  0  0  0  0
    4.5616   -4.2084   -3.0120 H   0  0  0  0  0  0  0  0  0  0  0  0
    5.8351   -3.1696   -2.4598 H   0  0  0  0  0  0  0  0  0  0  0  0
    4.4350   -2.4777   -3.2546 H   0  0  0  0  0  0  0  0  0  0  0  0
    2.2159   -4.1653   -2.0054 H   0  0  0  0  0  0  0  0  0  0  0  0
    2.2393   -2.4865   -2.3547 H   0  0  0  0  0  0  0  0  0  0  0  0
    1.8442   -3.0473   -0.7405 H   0  0  0  0  0  0  0  0  0  0  0  0
    5.8302   -0.9381   -1.3440 H   0  0  0  0  0  0  0  0  0  0  0  0
    4.9778   -0.0996   -0.0536 H   0  0  0  0  0  0  0  0  0  0  0  0
    4.3793   -1.1775    2.7679 H   0  0  0  0  0  0  0  0  0  0  0  0
    2.9348   -1.5298    0.9905 H   0  0  0  0  0  0  0  0  0  0  0  0
    5.8741   -5.5924    2.4304 H   0  0  0  0  0  0  0  0  0  0  0  0
    7.4746   -4.1412    1.5733 H   0  0  0  0  0  0  0  0  0  0  0  0
    7.1675   -4.8988    0.0373 H   0  0  0  0  0  0  0  0  0  0  0  0
    7.1947   -2.6921   -1.0111 H   0  0  0  0  0  0  0  0  0  0  0  0
    8.0995   -2.2500    0.4177 H   0  0  0  0  0  0  0  0  0  0  0  0
  1  2  1  0
  1 22  1  0
  1 23  1  0
  1 24  1  0
  2 18  1  0
  2  3  1  0
  2  4  1  0
  3 25  1  0
  3 26  1  0
  3 27  1  0
  4  5  1  0
  4 28  1  0
  4 29  1  0
  5 19  1  0
  5  6  1  0
  5 30  1  6
  6  7  1  0
  6  8  1  0
  6  9  1  0
  7 31  1  0
  7 32  1  0
  7 33  1  0
  8 34  1  0
  8 35  1  0
  8 36  1  0
  9 10  1  0
 10 11  1  0
 10 37  1  0
 10 38  1  0
 11 21  1  0
 11 12  2  0
 12 19  1  0
 12 13  1  0
 13 14  1  0
 13 15  1  0
 13 39  1  1
 14 40  1  0
 15 16  2  0
 15 17  1  0
 17 18  1  0
 18 19  1  0
 18 41  1  1
 19 20  1  6
 20 21  1  0
 20 42  1  0
 20 43  1  0
 21 44  1  0
 21 45  1  0
M  END
>  <i_m_ct_stereo_status>  (200) 
1

>  <s_m_source_file>  (200) 
/var/tmp/pbs.5076255.sched01/tmprtix0sri/443g93ja_l.sdf

>  <i_m_source_file_index>  (200) 
43

>  <i_lp_mmshare_version>  (200) 
48012

>  <i_f3d_flags>  (200) 
0

>  <s_epik_input>  (200) 
W0NAXTEyM1tDQEhdNFtDSDJdQyhbQ0gzXSkoW0NIM10pW0NAQEhdMk9DKD1PKVtDQEhdKFtPSF0pQzE9QyhbQ0gyXVtDSDJdMylbQ0gyXU9DNChbQ0gzXSlbQ0gzXQ==

>  <s_epik_cmdline>  (200) 
J2VwaWtfcHl0aG9uJywgJy1waHQnLCAnMi4wJywgJy1waCcsICc3LjAnLCAnLXRuJywgJzgnLCAnLW1hJywgJzIwMCcsICctaW1hZScsICc8aW5maWxlLm1hZT4nLCAnLW9tYWUnLCAnPG91dGZpbGUubWFlPic=

>  <r_epik_Ionization_Penalty>  (200) 
0.00115453

>  <r_epik_Ionization_Penalty_Charging>  (200) 
0

>  <r_epik_Ionization_Penalty_Neutral>  (200) 
0.00115453

>  <r_epik_State_Penalty>  (200) 
0.000759926

>  <r_epik_Charging_Adjusted_Penalty>  (200) 
0.000759926

>  <i_epik_Tot_Q>  (200) 
0

>  <i_epik_Tot_abs_Q>  (200) 
0

>  <s_epik_Chemistry_Notes>  (200) 
This compound has an ester and may undergo hydrolysis at high or low pH.

>  <s_lp_Force_Field>  (200) 
OPLS3e

>  <r_lp_Energy>  (200) 
85.2761

>  <b_lp_Chiralities_Consistent>  (200) 
1

>  <s_lp_Variant>  (200) 
61:0-1

>  <s_i_glide_gridfile>  (200) 
pfpi4k_grid

>  <i_i_glide_lignum>  (200) 
43

>  <i_i_glide_rotatable_bonds>  (200) 
1

>  <r_i_docking_score>  (200) 
-3.74276

>  <r_i_glide_ligand_efficiency>  (200) 
-0.178226

>  <r_i_glide_ligand_efficiency_sa>  (200) 
-0.491713

>  <r_i_glide_ligand_efficiency_ln>  (200) 
-0.925389

>  <r_i_glide_gscore>  (200) 
-3.74276

>  <r_i_glide_lipo>  (200) 
-0.719253

>  <r_i_glide_hbond>  (200) 
0

>  <r_i_glide_metal>  (200) 
-0

>  <r_i_glide_rewards>  (200) 
-1.91566

>  <r_i_glide_evdw>  (200) 
-23.1277

>  <r_i_glide_ecoul>  (200) 
0.323617

>  <r_i_glide_erotb>  (200) 
0

>  <r_i_glide_esite>  (200) 
0

>  <r_i_glide_emodel>  (200) 
-32.6552

>  <r_i_glide_energy>  (200) 
-22.8041

>  <r_i_glide_einternal>  (200) 
0.000231614

>  <r_i_glide_intrahb_reward>  (200) 
-0.5

>  <i_i_glide_confnum>  (200) 
2

>  <i_i_glide_posenum>  (200) 
8

>  <r_i_glide_eff_state_penalty>  (200) 
0

>  <ligand_id>  (200) 
61

>  <original_smiles>  (200) 
CC1(C)CC2C(C)(C)OCC3=C4C(O)C(=O)OC1C42CC3

>  <smiles>  (200) 
[H]OC1([H])C(=O)OC2([H])C34C1=C(C([H])([H])OC(C([H])([H])[H])(C([H])([H])[H])C3([H])C([H])([H])C2(C([H])([H])[H])C([H])([H])[H])C([H])([H])C4([H])[H]

$$$$
61:0:1
     RDKit          3D

 45 48  0  0  1  0  0  0  0  0999 V2000
    2.6830   -0.3503    2.4158 C   0  0  0  0  0  0  0  0  0  0  0  0
    3.1304   -1.6537    1.7277 C   0  0  0  0  0  0  0  0  0  0  0  0
    1.9815   -2.6225    1.8314 C   0  0  0  0  0  0  0  0  0  0  0  0
    3.5241   -1.3976    0.2698 C   0  0  0  0  0  0  0  0  0  0  0  0
    4.3742   -2.5902   -0.1958 C   0  0  1  0  0  0  0  0  0  0  0  0
    5.1571   -2.3927   -1.5870 C   0  0  0  0  0  0  0  0  0  0  0  0
    4.9279   -3.5781   -2.5453 C   0  0  0  0  0  0  0  0  0  0  0  0
    4.5806   -1.1778   -2.3664 C   0  0  0  0  0  0  0  0  0  0  0  0
    6.5724   -2.0763   -1.5295 O   0  0  0  0  0  0  0  0  0  0  0  0
    7.5437   -2.9997   -1.0434 C   0  0  0  0  0  0  0  0  0  0  0  0
    7.1793   -3.4263    0.3617 C   0  0  0  0  0  0  0  0  0  0  0  0
    6.4865   -2.5612    1.0809 C   0  0  0  0  0  0  0  0  0  0  0  0
    6.7328   -1.1163    1.4514 C   0  0  1  0  0  0  0  0  0  0  0  0
    6.3785   -0.2413    0.4628 O   0  0  0  0  0  0  0  0  0  0  0  0
    6.0436   -0.7323    2.7996 C   0  0  0  0  0  0  0  0  0  0  0  0
    6.4537    0.1475    3.5533 O   0  0  0  0  0  0  0  0  0  0  0  0
    5.0261   -1.4767    3.1815 O   0  0  0  0  0  0  0  0  0  0  0  0
    4.3340   -2.3728    2.3303 C   0  0  2  0  0  0  0  0  0  0  0  0
    5.0884   -3.0141    1.1394 C   0  0  1  0  0  0  0  0  0  0  0  0
    5.2791   -4.5293    1.2758 C   0  0  0  0  0  0  0  0  0  0  0  0
    6.5339   -4.7904    0.4574 C   0  0  0  0  0  0  0  0  0  0  0  0
    1.7824    0.0378    1.9390 H   0  0  0  0  0  0  0  0  0  0  0  0
    3.4368    0.4351    2.3556 H   0  0  0  0  0  0  0  0  0  0  0  0
    2.4489   -0.5287    3.4650 H   0  0  0  0  0  0  0  0  0  0  0  0
    2.1968   -3.5716    1.3332 H   0  0  0  0  0  0  0  0  0  0  0  0
    1.1519   -2.1291    1.3394 H   0  0  0  0  0  0  0  0  0  0  0  0
    1.6852   -2.8273    2.8625 H   0  0  0  0  0  0  0  0  0  0  0  0
    2.6603   -1.3226   -0.3731 H   0  0  0  0  0  0  0  0  0  0  0  0
    4.0610   -0.4524    0.2064 H   0  0  0  0  0  0  0  0  0  0  0  0
    3.6588   -3.3894   -0.3890 H   0  0  0  0  0  0  0  0  0  0  0  0
    3.8662   -3.6880   -2.7667 H   0  0  0  0  0  0  0  0  0  0  0  0
    5.2416   -4.5330   -2.1476 H   0  0  0  0  0  0  0  0  0  0  0  0
    5.4411   -3.4394   -3.4988 H   0  0  0  0  0  0  0  0  0  0  0  0
    3.4938   -1.2235   -2.4691 H   0  0  0  0  0  0  0  0  0  0  0  0
    4.9510   -1.1200   -3.3887 H   0  0  0  0  0  0  0  0  0  0  0  0
    4.8366   -0.2391   -1.8768 H   0  0  0  0  0  0  0  0  0  0  0  0
    7.6320   -3.8178   -1.7582 H   0  0  0  0  0  0  0  0  0  0  0  0
    8.5094   -2.5177   -1.0898 H   0  0  0  0  0  0  0  0  0  0  0  0
    7.8058   -1.0562    1.5582 H   0  0  0  0  0  0  0  0  0  0  0  0
    6.9092    0.5407    0.6828 H   0  0  0  0  0  0  0  0  0  0  0  0
    3.9885   -3.1737    2.9838 H   0  0  0  0  0  0  0  0  0  0  0  0
    5.5312   -4.7621    2.3071 H   0  0  0  0  0  0  0  0  0  0  0  0
    4.4136   -5.1296    1.0009 H   0  0  0  0  0  0  0  0  0  0  0  0
    6.2251   -5.1867   -0.4850 H   0  0  0  0  0  0  0  0  0  0  0  0
    7.2138   -5.5027    0.9147 H   0  0  0  0  0  0  0  0  0  0  0  0
  1  2  1  0
  1 22  1  0
  1 23  1  0
  1 24  1  0
  2 18  1  0
  2  3  1  0
  2  4  1  0
  3 25  1  0
  3 26  1  0
  3 27  1  0
  4  5  1  0
  4 28  1  0
  4 29  1  0
  5 19  1  0
  5  6  1  0
  5 30  1  6
  6  7  1  0
  6  8  1  0
  6  9  1  0
  7 31  1  0
  7 32  1  0
  7 33  1  0
  8 34  1  0
  8 35  1  0
  8 36  1  0
  9 10  1  0
 10 11  1  0
 10 37  1  0
 10 38  1  0
 11 21  1  0
 11 12  2  0
 12 19  1  0
 12 13  1  0
 13 14  1  0
 13 15  1  0
 13 39  1  1
 14 40  1  0
 15 16  2  0
 15 17  1  0
 17 18  1  0
 18 19  1  0
 18 41  1  1
 19 20  1  1
 20 21  1  0
 20 42  1  0
 20 43  1  0
 21 44  1  0
 21 45  1  0
M  END
>  <i_m_ct_stereo_status>  (201) 
1

>  <s_m_source_file>  (201) 
/var/tmp/pbs.5076255.sched01/tmprtix0sri/443g93ja_l.sdf

>  <i_m_source_file_index>  (201) 
43

>  <i_lp_mmshare_version>  (201) 
48012

>  <i_f3d_flags>  (201) 
0

>  <s_epik_input>  (201) 
W0NAXTEyM1tDQEhdNFtDSDJdQyhbQ0gzXSkoW0NIM10pW0NAQEhdMk9DKD1PKVtDQEhdKFtPSF0pQzE9QyhbQ0gyXVtDSDJdMylbQ0gyXU9DNChbQ0gzXSlbQ0gzXQ==

>  <s_epik_cmdline>  (201) 
J2VwaWtfcHl0aG9uJywgJy1waHQnLCAnMi4wJywgJy1waCcsICc3LjAnLCAnLXRuJywgJzgnLCAnLW1hJywgJzIwMCcsICctaW1hZScsICc8aW5maWxlLm1hZT4nLCAnLW9tYWUnLCAnPG91dGZpbGUubWFlPic=

>  <r_epik_Ionization_Penalty>  (201) 
0.00115453

>  <r_epik_Ionization_Penalty_Charging>  (201) 
0

>  <r_epik_Ionization_Penalty_Neutral>  (201) 
0.00115453

>  <r_epik_State_Penalty>  (201) 
0.000759926

>  <r_epik_Charging_Adjusted_Penalty>  (201) 
0.000759926

>  <i_epik_Tot_Q>  (201) 
0

>  <i_epik_Tot_abs_Q>  (201) 
0

>  <s_epik_Chemistry_Notes>  (201) 
This compound has an ester and may undergo hydrolysis at high or low pH.

>  <s_lp_Force_Field>  (201) 
OPLS3e

>  <r_lp_Energy>  (201) 
85.2761

>  <b_lp_Chiralities_Consistent>  (201) 
1

>  <s_lp_Variant>  (201) 
61:0-1

>  <s_i_glide_gridfile>  (201) 
pfpi4k_grid

>  <i_i_glide_lignum>  (201) 
43

>  <i_i_glide_rotatable_bonds>  (201) 
1

>  <r_i_docking_score>  (201) 
-3.53171

>  <r_i_glide_ligand_efficiency>  (201) 
-0.168177

>  <r_i_glide_ligand_efficiency_sa>  (201) 
-0.463987

>  <r_i_glide_ligand_efficiency_ln>  (201) 
-0.873209

>  <r_i_glide_gscore>  (201) 
-3.53171

>  <r_i_glide_lipo>  (201) 
-0.547259

>  <r_i_glide_hbond>  (201) 
-0.193645

>  <r_i_glide_metal>  (201) 
-0

>  <r_i_glide_rewards>  (201) 
-1.50841

>  <r_i_glide_evdw>  (201) 
-5.6581

>  <r_i_glide_ecoul>  (201) 
-6.6633

>  <r_i_glide_erotb>  (201) 
0

>  <r_i_glide_esite>  (201) 
0

>  <r_i_glide_emodel>  (201) 
-15.4121

>  <r_i_glide_energy>  (201) 
-12.3214

>  <r_i_glide_einternal>  (201) 
1.73343

>  <r_i_glide_intrahb_reward>  (201) 
-0

>  <i_i_glide_confnum>  (201) 
1

>  <i_i_glide_posenum>  (201) 
7

>  <r_i_glide_eff_state_penalty>  (201) 
0

>  <ligand_id>  (201) 
61

>  <original_smiles>  (201) 
CC1(C)CC2C(C)(C)OCC3=C4C(O)C(=O)OC1C42CC3

>  <smiles>  (201) 
[H]OC1([H])C(=O)OC2([H])C34C1=C(C([H])([H])OC(C([H])([H])[H])(C([H])([H])[H])C3([H])C([H])([H])C2(C([H])([H])[H])C([H])([H])[H])C([H])([H])C4([H])[H]

$$$$
61:0:2
     RDKit          3D

 45 48  0  0  1  0  0  0  0  0999 V2000
    1.8347   -3.4549   -1.8361 C   0  0  0  0  0  0  0  0  0  0  0  0
    3.2609   -3.3298   -1.2650 C   0  0  0  0  0  0  0  0  0  0  0  0
    4.1896   -3.0653   -2.4662 C   0  0  0  0  0  0  0  0  0  0  0  0
    3.3581   -2.1810   -0.2593 C   0  0  0  0  0  0  0  0  0  0  0  0
    4.5971   -2.4600    0.6020 C   0  0  1  0  0  0  0  0  0  0  0  0
    4.7298   -1.5521    1.9111 C   0  0  0  0  0  0  0  0  0  0  0  0
    6.1151   -0.8991    1.9699 C   0  0  0  0  0  0  0  0  0  0  0  0
    3.7421   -0.3571    1.9010 C   0  0  0  0  0  0  0  0  0  0  0  0
    4.3846   -2.1508    3.1797 O   0  0  0  0  0  0  0  0  0  0  0  0
    5.1884   -3.2040    3.7517 C   0  0  0  0  0  0  0  0  0  0  0  0
    5.2648   -4.3989    2.8063 C   0  0  0  0  0  0  0  0  0  0  0  0
    4.2107   -4.4578    1.9964 C   0  0  0  0  0  0  0  0  0  0  0  0
    2.7580   -4.6791    2.3342 C   0  0  1  0  0  0  0  0  0  0  0  0
    2.0631   -3.4747    2.5131 O   0  0  0  0  0  0  0  0  0  0  0  0
    2.1245   -5.4795    1.2013 C   0  0  0  0  0  0  0  0  0  0  0  0
    1.0732   -6.0723    1.4406 O   0  0  0  0  0  0  0  0  0  0  0  0
    2.6855   -5.3925    0.0115 O   0  0  0  0  0  0  0  0  0  0  0  0
    3.7483   -4.5558   -0.4383 C   0  0  2  0  0  0  0  0  0  0  0  0
    4.6498   -4.0288    0.6508 C   0  0  1  0  0  0  0  0  0  0  0  0
    6.0877   -4.5702    0.5517 C   0  0  0  0  0  0  0  0  0  0  0  0
    6.5555   -4.4816    2.0004 C   0  0  0  0  0  0  0  0  0  0  0  0
    1.5528   -2.5690   -2.3960 H   0  0  0  0  0  0  0  0  0  0  0  0
    1.0666   -3.6094   -1.0865 H   0  0  0  0  0  0  0  0  0  0  0  0
    1.7616   -4.2645   -2.5525 H   0  0  0  0  0  0  0  0  0  0  0  0
    5.2369   -2.9908   -2.1792 H   0  0  0  0  0  0  0  0  0  0  0  0
    3.9095   -2.1438   -2.9853 H   0  0  0  0  0  0  0  0  0  0  0  0
    4.1045   -3.8725   -3.1935 H   0  0  0  0  0  0  0  0  0  0  0  0
    3.4010   -1.2059   -0.7557 H   0  0  0  0  0  0  0  0  0  0  0  0
    2.4511   -2.1986    0.3469 H   0  0  0  0  0  0  0  0  0  0  0  0
    5.4183   -2.1478   -0.0475 H   0  0  0  0  0  0  0  0  0  0  0  0
    6.2584   -0.2681    1.0991 H   0  0  0  0  0  0  0  0  0  0  0  0
    6.9381   -1.5996    1.9666 H   0  0  0  0  0  0  0  0  0  0  0  0
    6.2254   -0.2686    2.8555 H   0  0  0  0  0  0  0  0  0  0  0  0
    3.8313    0.2492    0.9988 H   0  0  0  0  0  0  0  0  0  0  0  0
    3.9285    0.3129    2.7473 H   0  0  0  0  0  0  0  0  0  0  0  0
    2.7052   -0.6799    1.9934 H   0  0  0  0  0  0  0  0  0  0  0  0
    6.1759   -2.8207    4.0136 H   0  0  0  0  0  0  0  0  0  0  0  0
    4.7217   -3.5111    4.6932 H   0  0  0  0  0  0  0  0  0  0  0  0
    2.7014   -5.2865    3.2420 H   0  0  0  0  0  0  0  0  0  0  0  0
    2.2915   -2.9039    1.8036 H   0  0  0  0  0  0  0  0  0  0  0  0
    4.3615   -5.1629   -1.1032 H   0  0  0  0  0  0  0  0  0  0  0  0
    6.0630   -5.6235    0.2942 H   0  0  0  0  0  0  0  0  0  0  0  0
    6.7362   -4.0760   -0.1613 H   0  0  0  0  0  0  0  0  0  0  0  0
    7.1864   -3.6111    2.0704 H   0  0  0  0  0  0  0  0  0  0  0  0
    7.1335   -5.3500    2.3266 H   0  0  0  0  0  0  0  0  0  0  0  0
  1  2  1  0
  1 22  1  0
  1 23  1  0
  1 24  1  0
  2 18  1  0
  2  3  1  0
  2  4  1  0
  3 25  1  0
  3 26  1  0
  3 27  1  0
  4  5  1  0
  4 28  1  0
  4 29  1  0
  5 19  1  0
  5  6  1  0
  5 30  1  6
  6  7  1  0
  6  8  1  0
  6  9  1  0
  7 31  1  0
  7 32  1  0
  7 33  1  0
  8 34  1  0
  8 35  1  0
  8 36  1  0
  9 10  1  0
 10 11  1  0
 10 37  1  0
 10 38  1  0
 11 21  1  0
 11 12  2  0
 12 19  1  0
 12 13  1  0
 13 14  1  0
 13 15  1  0
 13 39  1  1
 14 40  1  0
 15 16  2  0
 15 17  1  0
 17 18  1  0
 18 19  1  0
 18 41  1  6
 19 20  1  6
 20 21  1  0
 20 42  1  0
 20 43  1  0
 21 44  1  0
 21 45  1  0
M  END
>  <i_m_ct_stereo_status>  (202) 
1

>  <s_m_source_file>  (202) 
/var/tmp/pbs.5076255.sched01/tmprtix0sri/443g93ja_l.sdf

>  <i_m_source_file_index>  (202) 
43

>  <i_lp_mmshare_version>  (202) 
48012

>  <i_f3d_flags>  (202) 
0

>  <s_epik_input>  (202) 
W0NAXTEyM1tDQEhdNFtDSDJdQyhbQ0gzXSkoW0NIM10pW0NAQEhdMk9DKD1PKVtDQEhdKFtPSF0pQzE9QyhbQ0gyXVtDSDJdMylbQ0gyXU9DNChbQ0gzXSlbQ0gzXQ==

>  <s_epik_cmdline>  (202) 
J2VwaWtfcHl0aG9uJywgJy1waHQnLCAnMi4wJywgJy1waCcsICc3LjAnLCAnLXRuJywgJzgnLCAnLW1hJywgJzIwMCcsICctaW1hZScsICc8aW5maWxlLm1hZT4nLCAnLW9tYWUnLCAnPG91dGZpbGUubWFlPic=

>  <r_epik_Ionization_Penalty>  (202) 
0.00115453

>  <r_epik_Ionization_Penalty_Charging>  (202) 
0

>  <r_epik_Ionization_Penalty_Neutral>  (202) 
0.00115453

>  <r_epik_State_Penalty>  (202) 
0.000759926

>  <r_epik_Charging_Adjusted_Penalty>  (202) 
0.000759926

>  <i_epik_Tot_Q>  (202) 
0

>  <i_epik_Tot_abs_Q>  (202) 
0

>  <s_epik_Chemistry_Notes>  (202) 
This compound has an ester and may undergo hydrolysis at high or low pH.

>  <s_lp_Force_Field>  (202) 
OPLS3e

>  <r_lp_Energy>  (202) 
85.2761

>  <b_lp_Chiralities_Consistent>  (202) 
1

>  <s_lp_Variant>  (202) 
61:0-1

>  <s_i_glide_gridfile>  (202) 
pfpi4k_grid

>  <i_i_glide_lignum>  (202) 
43

>  <i_i_glide_rotatable_bonds>  (202) 
1

>  <r_i_docking_score>  (202) 
-2.95193

>  <r_i_glide_ligand_efficiency>  (202) 
-0.140568

>  <r_i_glide_ligand_efficiency_sa>  (202) 
-0.387816

>  <r_i_glide_ligand_efficiency_ln>  (202) 
-0.729858

>  <r_i_glide_gscore>  (202) 
-2.95193

>  <r_i_glide_lipo>  (202) 
-0.545546

>  <r_i_glide_hbond>  (202) 
-0.16

>  <r_i_glide_metal>  (202) 
-0

>  <r_i_glide_rewards>  (202) 
-1.41566

>  <r_i_glide_evdw>  (202) 
-11.1562

>  <r_i_glide_ecoul>  (202) 
-1.5299

>  <r_i_glide_erotb>  (202) 
0

>  <r_i_glide_esite>  (202) 
-0.043427

>  <r_i_glide_emodel>  (202) 
-15.7009

>  <r_i_glide_energy>  (202) 
-12.6861

>  <r_i_glide_einternal>  (202) 
1.29275

>  <r_i_glide_intrahb_reward>  (202) 
-0

>  <i_i_glide_confnum>  (202) 
2

>  <i_i_glide_posenum>  (202) 
9

>  <r_i_glide_eff_state_penalty>  (202) 
0

>  <ligand_id>  (202) 
61

>  <original_smiles>  (202) 
CC1(C)CC2C(C)(C)OCC3=C4C(O)C(=O)OC1C42CC3

>  <smiles>  (202) 
[H]OC1([H])C(=O)OC2([H])C34C1=C(C([H])([H])OC(C([H])([H])[H])(C([H])([H])[H])C3([H])C([H])([H])C2(C([H])([H])[H])C([H])([H])[H])C([H])([H])C4([H])[H]

$$$$
62:0:0
     RDKit          3D

 34 37  0  0  1  0  0  0  0  0999 V2000
    0.2487   -6.2283    2.3608 O   0  0  0  0  0  0  0  0  0  0  0  0
    0.3851   -7.5476    2.4990 C   0  0  0  0  0  0  0  0  0  0  0  0
   -0.9016   -8.2275    2.0785 C   0  0  0  0  0  0  0  0  0  0  0  0
   -0.9776   -9.7068    2.4801 C   0  0  0  0  0  0  0  0  0  0  0  0
    0.3526  -10.3095    2.8828 C   0  0  0  0  0  0  0  0  0  0  0  0
    1.4781   -9.6145    3.1065 C   0  0  0  0  0  0  0  0  0  0  0  0
    2.6057  -10.2852    3.5492 N   0  0  0  0  0  0  0  0  0  0  0  0
    3.7499   -9.6295    3.9686 C   0  0  0  0  0  0  0  0  0  0  0  0
    4.8480  -10.1803    4.4568 N   0  0  0  0  0  0  0  0  0  0  0  0
    5.5672   -9.0461    4.7118 C   0  0  0  0  0  0  0  0  0  0  0  0
    4.9796   -7.8854    4.4091 N   0  0  0  0  0  0  0  0  0  0  0  0
    3.7909   -8.2931    3.8994 N   0  0  0  0  0  0  0  0  0  0  0  0
    2.7626   -7.3797    3.4004 C   0  0  1  0  0  0  0  0  0  0  0  0
    3.3298   -6.4030    2.3437 C   0  0  0  0  0  0  0  0  0  0  0  0
    3.1854   -4.9956    2.4995 C   0  0  0  0  0  0  0  0  0  0  0  0
    2.3596   -4.3011    3.8512 Cl  0  0  0  0  0  0  0  0  0  0  0  0
    3.6969   -4.1076    1.5317 C   0  0  0  0  0  0  0  0  0  0  0  0
    4.3609   -4.5966    0.3973 C   0  0  0  0  0  0  0  0  0  0  0  0
    4.5084   -5.9802    0.2278 C   0  0  0  0  0  0  0  0  0  0  0  0
    4.0008   -6.8823    1.1836 C   0  0  0  0  0  0  0  0  0  0  0  0
    4.2257   -8.5691    0.8798 Cl  0  0  0  0  0  0  0  0  0  0  0  0
    1.5055   -8.1561    2.9542 C   0  0  0  0  0  0  0  0  0  0  0  0
   -0.9574   -8.1510    0.9901 H   0  0  0  0  0  0  0  0  0  0  0  0
   -1.7662   -7.6924    2.4775 H   0  0  0  0  0  0  0  0  0  0  0  0
   -1.6723   -9.8291    3.3033 H   0  0  0  0  0  0  0  0  0  0  0  0
   -1.3885  -10.2996    1.6648 H   0  0  0  0  0  0  0  0  0  0  0  0
    0.3444  -11.3817    3.0219 H   0  0  0  0  0  0  0  0  0  0  0  0
    6.5525   -9.0762    5.1543 H   0  0  0  0  0  0  0  0  0  0  0  0
    2.4525   -6.8376    4.2910 H   0  0  0  0  0  0  0  0  0  0  0  0
    3.5701   -3.0411    1.6582 H   0  0  0  0  0  0  0  0  0  0  0  0
    4.7460   -3.9136   -0.3440 H   0  0  0  0  0  0  0  0  0  0  0  0
    5.0101   -6.3536   -0.6531 H   0  0  0  0  0  0  0  0  0  0  0  0
    2.5807  -11.2898    3.6579 H   0  0  0  0  0  0  0  0  0  0  0  0
    1.0581   -5.8401    2.6543 H   0  0  0  0  0  0  0  0  0  0  0  0
  1  2  1  0
  1 34  1  0
  2  3  1  0
  2 22  2  0
  3  4  1  0
  3 23  1  0
  3 24  1  0
  4  5  1  0
  4 25  1  0
  4 26  1  0
  5 27  1  0
  5  6  2  0
  6 22  1  0
  6  7  1  0
  7  8  1  0
  7 33  1  0
  8 12  1  0
  8  9  2  0
  9 10  1  0
 10 11  2  0
 10 28  1  0
 11 12  1  0
 12 13  1  0
 13 14  1  0
 13 29  1  1
 13 22  1  0
 14 20  1  0
 14 15  2  0
 15 16  1  0
 15 17  1  0
 17 18  2  0
 17 30  1  0
 18 19  1  0
 18 31  1  0
 19 20  2  0
 19 32  1  0
 20 21  1  0
M  END
>  <i_m_ct_stereo_status>  (203) 
1

>  <s_m_source_file>  (203) 
/var/tmp/pbs.5076255.sched01/tmprtix0sri/443g93ja_l.sdf

>  <i_m_source_file_index>  (203) 
44

>  <i_lp_mmshare_version>  (203) 
48012

>  <i_f3d_flags>  (203) 
0

>  <s_epik_input>  (203) 
W0NIMl0xW0NIMl1bQ0gyXUMoPU8pW0NAQEhdKEMxPTIpW0NAQEhdKG4zYyhOMiluW2NIXW4zKWM0YyhDbClbY0hdW2NIXVtjSF1jNENs

>  <s_epik_cmdline>  (203) 
J2VwaWtfcHl0aG9uJywgJy1waHQnLCAnMi4wJywgJy1waCcsICc3LjAnLCAnLXRuJywgJzgnLCAnLW1hJywgJzIwMCcsICctaW1hZScsICc8aW5maWxlLm1hZT4nLCAnLW9tYWUnLCAnPG91dGZpbGUubWFlPic=

>  <r_epik_Ionization_Penalty>  (203) 
0.283614

>  <r_epik_Ionization_Penalty_Charging>  (203) 
3.22367e-10

>  <r_epik_Ionization_Penalty_Neutral>  (203) 
0.283614

>  <r_epik_State_Penalty>  (203) 
0.276274

>  <r_epik_Charging_Adjusted_Penalty>  (203) 
0.276274

>  <i_epik_Tot_Q>  (203) 
0

>  <i_epik_Tot_abs_Q>  (203) 
0

>  <s_epik_Chemistry_Notes>  (203) 
This compound has an imine and may undergo hydrolysis.

>  <s_lp_Force_Field>  (203) 
OPLS3e

>  <r_lp_Energy>  (203) 
37.3772

>  <b_lp_Chiralities_Consistent>  (203) 
1

>  <s_lp_Variant>  (203) 
62:0-1

>  <s_i_glide_gridfile>  (203) 
pfpi4k_grid

>  <i_i_glide_lignum>  (203) 
44

>  <i_i_glide_rotatable_bonds>  (203) 
2

>  <r_i_docking_score>  (203) 
-3.07578

>  <r_i_glide_ligand_efficiency>  (203) 
-0.139808

>  <r_i_glide_ligand_efficiency_sa>  (203) 
-0.391748

>  <r_i_glide_ligand_efficiency_ln>  (203) 
-0.751832

>  <r_i_glide_gscore>  (203) 
-3.07578

>  <r_i_glide_lipo>  (203) 
-0.46534

>  <r_i_glide_hbond>  (203) 
-0.179061

>  <r_i_glide_metal>  (203) 
-0

>  <r_i_glide_rewards>  (203) 
-1.12372

>  <r_i_glide_evdw>  (203) 
-22.253

>  <r_i_glide_ecoul>  (203) 
-2.34506

>  <r_i_glide_erotb>  (203) 
0.167959

>  <r_i_glide_esite>  (203) 
-0.0112041

>  <r_i_glide_emodel>  (203) 
-29.2374

>  <r_i_glide_energy>  (203) 
-24.598

>  <r_i_glide_einternal>  (203) 
0.62467

>  <r_i_glide_intrahb_reward>  (203) 
-0

>  <i_i_glide_confnum>  (203) 
2

>  <i_i_glide_posenum>  (203) 
19

>  <r_i_glide_eff_state_penalty>  (203) 
0

>  <ligand_id>  (203) 
62

>  <original_smiles>  (203) 
O=C1CCCC2=Nc3ncnn3C(c3c(Cl)cccc3Cl)C12

>  <smiles>  (203) 
[H]OC1=C2C(=C([H])C([H])([H])C1([H])[H])N([H])c1nc([H])nn1C2([H])c1c(Cl)c([H])c([H])c([H])c1Cl

$$$$
62:0:1
     RDKit          3D

 34 37  0  0  1  0  0  0  0  0999 V2000
    1.3308   -6.0495    1.0557 O   0  0  0  0  0  0  0  0  0  0  0  0
    2.5669   -6.5207    1.2544 C   0  0  0  0  0  0  0  0  0  0  0  0
    3.5985   -5.6089    0.6075 C   0  0  0  0  0  0  0  0  0  0  0  0
    4.9943   -6.2423    0.4812 C   0  0  0  0  0  0  0  0  0  0  0  0
    5.2059   -7.4623    1.3564 C   0  0  0  0  0  0  0  0  0  0  0  0
    4.2250   -8.1143    2.0090 C   0  0  0  0  0  0  0  0  0  0  0  0
    4.5356   -9.2467    2.7410 N   0  0  0  0  0  0  0  0  0  0  0  0
    3.5708  -10.0494    3.3274 C   0  0  0  0  0  0  0  0  0  0  0  0
    3.7731  -11.1785    3.9809 N   0  0  0  0  0  0  0  0  0  0  0  0
    2.4723  -11.5117    4.2488 C   0  0  0  0  0  0  0  0  0  0  0  0
    1.5383  -10.6588    3.8164 N   0  0  0  0  0  0  0  0  0  0  0  0
    2.2854   -9.6892    3.2302 N   0  0  0  0  0  0  0  0  0  0  0  0
    1.7243   -8.5176    2.5702 C   0  0  1  0  0  0  0  0  0  0  0  0
    0.7894   -7.7482    3.5286 C   0  0  0  0  0  0  0  0  0  0  0  0
   -0.6192   -7.8023    3.3553 C   0  0  0  0  0  0  0  0  0  0  0  0
   -1.3749   -8.7028    2.0914 Cl  0  0  0  0  0  0  0  0  0  0  0  0
   -1.4736   -7.0981    4.2234 C   0  0  0  0  0  0  0  0  0  0  0  0
   -0.9558   -6.3298    5.2766 C   0  0  0  0  0  0  0  0  0  0  0  0
    0.4302   -6.2724    5.4678 C   0  0  0  0  0  0  0  0  0  0  0  0
    1.3006   -6.9750    4.6090 C   0  0  0  0  0  0  0  0  0  0  0  0
    2.9923   -6.8469    4.9511 Cl  0  0  0  0  0  0  0  0  0  0  0  0
    2.8334   -7.6601    1.9260 C   0  0  0  0  0  0  0  0  0  0  0  0
    3.6702   -4.6986    1.2091 H   0  0  0  0  0  0  0  0  0  0  0  0
    3.2513   -5.3110   -0.3823 H   0  0  0  0  0  0  0  0  0  0  0  0
    5.1378   -6.5568   -0.5492 H   0  0  0  0  0  0  0  0  0  0  0  0
    5.7706   -5.5101    0.7149 H   0  0  0  0  0  0  0  0  0  0  0  0
    6.2204   -7.8243    1.4101 H   0  0  0  0  0  0  0  0  0  0  0  0
    2.2049  -12.4251    4.7638 H   0  0  0  0  0  0  0  0  0  0  0  0
    1.1786   -8.9131    1.7176 H   0  0  0  0  0  0  0  0  0  0  0  0
   -2.5445   -7.1583    4.0753 H   0  0  0  0  0  0  0  0  0  0  0  0
   -1.6230   -5.8154    5.9497 H   0  0  0  0  0  0  0  0  0  0  0  0
    0.8297   -5.6954    6.2880 H   0  0  0  0  0  0  0  0  0  0  0  0
    5.4854   -9.5769    2.7845 H   0  0  0  0  0  0  0  0  0  0  0  0
    0.7501   -6.6621    1.4782 H   0  0  0  0  0  0  0  0  0  0  0  0
  1  2  1  0
  1 34  1  0
  2  3  1  0
  2 22  2  0
  3  4  1  0
  3 23  1  0
  3 24  1  0
  4  5  1  0
  4 25  1  0
  4 26  1  0
  5 27  1  0
  5  6  2  0
  6 22  1  0
  6  7  1  0
  7  8  1  0
  7 33  1  0
  8 12  1  0
  8  9  2  0
  9 10  1  0
 10 11  2  0
 10 28  1  0
 11 12  1  0
 12 13  1  0
 13 14  1  0
 13 29  1  6
 13 22  1  0
 14 20  1  0
 14 15  2  0
 15 16  1  0
 15 17  1  0
 17 18  2  0
 17 30  1  0
 18 19  1  0
 18 31  1  0
 19 20  2  0
 19 32  1  0
 20 21  1  0
M  END
>  <i_m_ct_stereo_status>  (204) 
1

>  <s_m_source_file>  (204) 
/var/tmp/pbs.5076255.sched01/tmprtix0sri/443g93ja_l.sdf

>  <i_m_source_file_index>  (204) 
44

>  <i_lp_mmshare_version>  (204) 
48012

>  <i_f3d_flags>  (204) 
0

>  <s_epik_input>  (204) 
W0NIMl0xW0NIMl1bQ0gyXUMoPU8pW0NAQEhdKEMxPTIpW0NAQEhdKG4zYyhOMiluW2NIXW4zKWM0YyhDbClbY0hdW2NIXVtjSF1jNENs

>  <s_epik_cmdline>  (204) 
J2VwaWtfcHl0aG9uJywgJy1waHQnLCAnMi4wJywgJy1waCcsICc3LjAnLCAnLXRuJywgJzgnLCAnLW1hJywgJzIwMCcsICctaW1hZScsICc8aW5maWxlLm1hZT4nLCAnLW9tYWUnLCAnPG91dGZpbGUubWFlPic=

>  <r_epik_Ionization_Penalty>  (204) 
0.283614

>  <r_epik_Ionization_Penalty_Charging>  (204) 
3.22367e-10

>  <r_epik_Ionization_Penalty_Neutral>  (204) 
0.283614

>  <r_epik_State_Penalty>  (204) 
0.276274

>  <r_epik_Charging_Adjusted_Penalty>  (204) 
0.276274

>  <i_epik_Tot_Q>  (204) 
0

>  <i_epik_Tot_abs_Q>  (204) 
0

>  <s_epik_Chemistry_Notes>  (204) 
This compound has an imine and may undergo hydrolysis.

>  <s_lp_Force_Field>  (204) 
OPLS3e

>  <r_lp_Energy>  (204) 
37.3772

>  <b_lp_Chiralities_Consistent>  (204) 
1

>  <s_lp_Variant>  (204) 
62:0-1

>  <s_i_glide_gridfile>  (204) 
pfpi4k_grid

>  <i_i_glide_lignum>  (204) 
44

>  <i_i_glide_rotatable_bonds>  (204) 
2

>  <r_i_docking_score>  (204) 
-2.75975

>  <r_i_glide_ligand_efficiency>  (204) 
-0.125443

>  <r_i_glide_ligand_efficiency_sa>  (204) 
-0.351497

>  <r_i_glide_ligand_efficiency_ln>  (204) 
-0.674585

>  <r_i_glide_gscore>  (204) 
-2.75975

>  <r_i_glide_lipo>  (204) 
-0.295278

>  <r_i_glide_hbond>  (204) 
-0.16

>  <r_i_glide_metal>  (204) 
-0

>  <r_i_glide_rewards>  (204) 
-1.12372

>  <r_i_glide_evdw>  (204) 
-24.1202

>  <r_i_glide_ecoul>  (204) 
-0.541421

>  <r_i_glide_erotb>  (204) 
0.167959

>  <r_i_glide_esite>  (204) 
-0.0614886

>  <r_i_glide_emodel>  (204) 
-29.2038

>  <r_i_glide_energy>  (204) 
-24.6616

>  <r_i_glide_einternal>  (204) 
0.138529

>  <r_i_glide_intrahb_reward>  (204) 
-0

>  <i_i_glide_confnum>  (204) 
4

>  <i_i_glide_posenum>  (204) 
4

>  <r_i_glide_eff_state_penalty>  (204) 
0

>  <ligand_id>  (204) 
62

>  <original_smiles>  (204) 
O=C1CCCC2=Nc3ncnn3C(c3c(Cl)cccc3Cl)C12

>  <smiles>  (204) 
[H]OC1=C2C(=C([H])C([H])([H])C1([H])[H])N([H])c1nc([H])nn1C2([H])c1c(Cl)c([H])c([H])c([H])c1Cl

$$$$
62:0:2
     RDKit          3D

 34 37  0  0  1  0  0  0  0  0999 V2000
    0.9618   -5.5905    4.3111 O   0  0  0  0  0  0  0  0  0  0  0  0
    1.0199   -6.7725    3.6834 C   0  0  0  0  0  0  0  0  0  0  0  0
   -0.3533   -7.4232    3.6695 C   0  0  0  0  0  0  0  0  0  0  0  0
   -0.3468   -8.8965    3.2165 C   0  0  0  0  0  0  0  0  0  0  0  0
    0.9187   -9.3120    2.4960 C   0  0  0  0  0  0  0  0  0  0  0  0
    2.0494   -8.5888    2.4495 C   0  0  0  0  0  0  0  0  0  0  0  0
    3.1494   -9.0981    1.7731 N   0  0  0  0  0  0  0  0  0  0  0  0
    4.3866   -8.4792    1.7872 C   0  0  0  0  0  0  0  0  0  0  0  0
    5.5151   -8.9539    1.2842 N   0  0  0  0  0  0  0  0  0  0  0  0
    6.3667   -7.9600    1.6817 C   0  0  0  0  0  0  0  0  0  0  0  0
    5.8181   -6.9417    2.3538 N   0  0  0  0  0  0  0  0  0  0  0  0
    4.5120   -7.3009    2.4060 N   0  0  0  0  0  0  0  0  0  0  0  0
    3.4864   -6.5305    3.1112 C   0  0  1  0  0  0  0  0  0  0  0  0
    3.4566   -5.0701    2.5974 C   0  0  0  0  0  0  0  0  0  0  0  0
    4.1416   -4.0423    3.3068 C   0  0  0  0  0  0  0  0  0  0  0  0
    5.0196   -4.3624    4.7636 Cl  0  0  0  0  0  0  0  0  0  0  0  0
    4.1211   -2.7102    2.8449 C   0  0  0  0  0  0  0  0  0  0  0  0
    3.4253   -2.3718    1.6750 C   0  0  0  0  0  0  0  0  0  0  0  0
    2.7571   -3.3743    0.9584 C   0  0  0  0  0  0  0  0  0  0  0  0
    2.7655   -4.7080    1.4072 C   0  0  0  0  0  0  0  0  0  0  0  0
    1.8860   -5.8504    0.4563 Cl  0  0  0  0  0  0  0  0  0  0  0  0
    2.1369   -7.2804    3.1090 C   0  0  0  0  0  0  0  0  0  0  0  0
   -0.9801   -6.8472    2.9858 H   0  0  0  0  0  0  0  0  0  0  0  0
   -0.8023   -7.3470    4.6622 H   0  0  0  0  0  0  0  0  0  0  0  0
   -0.4536   -9.5550    4.0794 H   0  0  0  0  0  0  0  0  0  0  0  0
   -1.1967   -9.0914    2.5610 H   0  0  0  0  0  0  0  0  0  0  0  0
    0.8755  -10.2784    2.0153 H   0  0  0  0  0  0  0  0  0  0  0  0
    7.4259   -7.9835    1.4613 H   0  0  0  0  0  0  0  0  0  0  0  0
    3.7778   -6.5534    4.1589 H   0  0  0  0  0  0  0  0  0  0  0  0
    4.6401   -1.9396    3.3947 H   0  0  0  0  0  0  0  0  0  0  0  0
    3.4003   -1.3505    1.3233 H   0  0  0  0  0  0  0  0  0  0  0  0
    2.2193   -3.1113    0.0579 H   0  0  0  0  0  0  0  0  0  0  0  0
    3.1132  -10.0219    1.3588 H   0  0  0  0  0  0  0  0  0  0  0  0
    1.8288   -5.2177    4.2906 H   0  0  0  0  0  0  0  0  0  0  0  0
  1  2  1  0
  1 34  1  0
  2  3  1  0
  2 22  2  0
  3  4  1  0
  3 23  1  0
  3 24  1  0
  4  5  1  0
  4 25  1  0
  4 26  1  0
  5 27  1  0
  5  6  2  0
  6 22  1  0
  6  7  1  0
  7  8  1  0
  7 33  1  0
  8 12  1  0
  8  9  2  0
  9 10  1  0
 10 11  2  0
 10 28  1  0
 11 12  1  0
 12 13  1  0
 13 14  1  0
 13 29  1  1
 13 22  1  0
 14 20  1  0
 14 15  2  0
 15 16  1  0
 15 17  1  0
 17 18  2  0
 17 30  1  0
 18 19  1  0
 18 31  1  0
 19 20  2  0
 19 32  1  0
 20 21  1  0
M  END
>  <i_m_ct_stereo_status>  (205) 
1

>  <s_m_source_file>  (205) 
/var/tmp/pbs.5076255.sched01/tmprtix0sri/443g93ja_l.sdf

>  <i_m_source_file_index>  (205) 
44

>  <i_lp_mmshare_version>  (205) 
48012

>  <i_f3d_flags>  (205) 
0

>  <s_epik_input>  (205) 
W0NIMl0xW0NIMl1bQ0gyXUMoPU8pW0NAQEhdKEMxPTIpW0NAQEhdKG4zYyhOMiluW2NIXW4zKWM0YyhDbClbY0hdW2NIXVtjSF1jNENs

>  <s_epik_cmdline>  (205) 
J2VwaWtfcHl0aG9uJywgJy1waHQnLCAnMi4wJywgJy1waCcsICc3LjAnLCAnLXRuJywgJzgnLCAnLW1hJywgJzIwMCcsICctaW1hZScsICc8aW5maWxlLm1hZT4nLCAnLW9tYWUnLCAnPG91dGZpbGUubWFlPic=

>  <r_epik_Ionization_Penalty>  (205) 
0.283614

>  <r_epik_Ionization_Penalty_Charging>  (205) 
3.22367e-10

>  <r_epik_Ionization_Penalty_Neutral>  (205) 
0.283614

>  <r_epik_State_Penalty>  (205) 
0.276274

>  <r_epik_Charging_Adjusted_Penalty>  (205) 
0.276274

>  <i_epik_Tot_Q>  (205) 
0

>  <i_epik_Tot_abs_Q>  (205) 
0

>  <s_epik_Chemistry_Notes>  (205) 
This compound has an imine and may undergo hydrolysis.

>  <s_lp_Force_Field>  (205) 
OPLS3e

>  <r_lp_Energy>  (205) 
37.3772

>  <b_lp_Chiralities_Consistent>  (205) 
1

>  <s_lp_Variant>  (205) 
62:0-1

>  <s_i_glide_gridfile>  (205) 
pfpi4k_grid

>  <i_i_glide_lignum>  (205) 
44

>  <i_i_glide_rotatable_bonds>  (205) 
2

>  <r_i_docking_score>  (205) 
-2.6009

>  <r_i_glide_ligand_efficiency>  (205) 
-0.118223

>  <r_i_glide_ligand_efficiency_sa>  (205) 
-0.331265

>  <r_i_glide_ligand_efficiency_ln>  (205) 
-0.635754

>  <r_i_glide_gscore>  (205) 
-2.6009

>  <r_i_glide_lipo>  (205) 
-0.0326178

>  <r_i_glide_hbond>  (205) 
0

>  <r_i_glide_metal>  (205) 
-0

>  <r_i_glide_rewards>  (205) 
-1.26346

>  <r_i_glide_evdw>  (205) 
-22.9002

>  <r_i_glide_ecoul>  (205) 
-1.85128

>  <r_i_glide_erotb>  (205) 
0.167959

>  <r_i_glide_esite>  (205) 
-0.0500743

>  <r_i_glide_emodel>  (205) 
-28.614

>  <r_i_glide_energy>  (205) 
-24.7515

>  <r_i_glide_einternal>  (205) 
0.761966

>  <r_i_glide_intrahb_reward>  (205) 
-0

>  <i_i_glide_confnum>  (205) 
1

>  <i_i_glide_posenum>  (205) 
33

>  <r_i_glide_eff_state_penalty>  (205) 
0

>  <ligand_id>  (205) 
62

>  <original_smiles>  (205) 
O=C1CCCC2=Nc3ncnn3C(c3c(Cl)cccc3Cl)C12

>  <smiles>  (205) 
[H]OC1=C2C(=C([H])C([H])([H])C1([H])[H])N([H])c1nc([H])nn1C2([H])c1c(Cl)c([H])c([H])c([H])c1Cl

$$$$
62:1:0
     RDKit          3D

 33 36  0  0  1  0  0  0  0  0999 V2000
   -0.6106   -6.6702    3.2292 O   0  0  0  0  0  0  0  0  0  0  0  0
   -0.2515   -7.7589    3.7585 C   0  0  0  0  0  0  0  0  0  0  0  0
   -0.3882   -8.8666    2.7103 C   0  0  0  0  0  0  0  0  0  0  0  0
    0.5294  -10.0858    2.9330 C   0  0  0  0  0  0  0  0  0  0  0  0
    0.7243  -10.3850    4.3952 C   0  0  0  0  0  0  0  0  0  0  0  0
    0.5589   -9.4682    5.3605 C   0  0  0  0  0  0  0  0  0  0  0  0
    0.7977   -9.8245    6.6866 N   0  0  0  0  0  0  0  0  0  0  0  0
    0.7146   -8.9084    7.7236 C   0  0  0  0  0  0  0  0  0  0  0  0
    0.7913   -9.1630    9.0234 N   0  0  0  0  0  0  0  0  0  0  0  0
    0.6219   -7.8947    9.5113 C   0  0  0  0  0  0  0  0  0  0  0  0
    0.4154   -6.9351    8.6062 N   0  0  0  0  0  0  0  0  0  0  0  0
    0.5122   -7.6148    7.4344 N   0  0  0  0  0  0  0  0  0  0  0  0
    0.3235   -6.9939    6.1252 C   0  0  1  0  0  0  0  0  0  0  0  0
    1.3581   -5.8788    5.8635 C   0  0  0  0  0  0  0  0  0  0  0  0
    2.6907   -6.1708    5.4470 C   0  0  0  0  0  0  0  0  0  0  0  0
    3.3051   -7.7735    5.2375 Cl  0  0  0  0  0  0  0  0  0  0  0  0
    3.6047   -5.1305    5.1944 C   0  0  0  0  0  0  0  0  0  0  0  0
    3.2341   -3.7891    5.3616 C   0  0  0  0  0  0  0  0  0  0  0  0
    1.9313   -3.4826    5.7823 C   0  0  0  0  0  0  0  0  0  0  0  0
    0.9969   -4.5101    6.0340 C   0  0  0  0  0  0  0  0  0  0  0  0
   -0.5815   -4.0183    6.5595 Cl  0  0  0  0  0  0  0  0  0  0  0  0
    0.2129   -8.0646    5.0364 C   0  0  0  0  0  0  0  0  0  0  0  0
   -0.1982   -8.4708    1.7081 H   0  0  0  0  0  0  0  0  0  0  0  0
   -1.4243   -9.2132    2.7143 H   0  0  0  0  0  0  0  0  0  0  0  0
    0.1003  -10.9588    2.4444 H   0  0  0  0  0  0  0  0  0  0  0  0
    1.5065   -9.9231    2.4834 H   0  0  0  0  0  0  0  0  0  0  0  0
    1.0345  -11.3890    4.6370 H   0  0  0  0  0  0  0  0  0  0  0  0
    0.6276   -7.6762   10.5720 H   0  0  0  0  0  0  0  0  0  0  0  0
   -0.6723   -6.5583    6.1367 H   0  0  0  0  0  0  0  0  0  0  0  0
    4.6049   -5.3783    4.8747 H   0  0  0  0  0  0  0  0  0  0  0  0
    3.9506   -3.0055    5.1762 H   0  0  0  0  0  0  0  0  0  0  0  0
    1.6492   -2.4471    5.9128 H   0  0  0  0  0  0  0  0  0  0  0  0
    1.0118  -10.7958    6.9376 H   0  0  0  0  0  0  0  0  0  0  0  0
  1  2  1  0
  2  3  1  0
  2 22  2  0
  3  4  1  0
  3 23  1  0
  3 24  1  0
  4  5  1  0
  4 25  1  0
  4 26  1  0
  5 27  1  0
  5  6  2  0
  6 22  1  0
  6  7  1  0
  7  8  1  0
  7 33  1  0
  8 12  1  0
  8  9  2  0
  9 10  1  0
 10 11  2  0
 10 28  1  0
 11 12  1  0
 12 13  1  0
 13 14  1  0
 13 29  1  1
 13 22  1  0
 14 20  1  0
 14 15  2  0
 15 16  1  0
 15 17  1  0
 17 18  2  0
 17 30  1  0
 18 19  1  0
 18 31  1  0
 19 20  2  0
 19 32  1  0
 20 21  1  0
M  CHG  1   1  -1
M  END
>  <i_m_ct_stereo_status>  (206) 
1

>  <s_m_source_file>  (206) 
/var/tmp/pbs.5076255.sched01/tmpagfdxo7m/88tnrj_5ym.sdf

>  <i_m_source_file_index>  (206) 
1

>  <i_lp_mmshare_version>  (206) 
48012

>  <i_f3d_flags>  (206) 
0

>  <s_epik_input>  (206) 
W0NIMl0xW0NIMl1bQ0gyXUMoPU8pW0NAQEhdKEMxPTIpW0NAQEhdKG4zYyhOMiluW2NIXW4zKWM0YyhDbClbY0hdW2NIXVtjSF1jNENs

>  <s_epik_cmdline>  (206) 
J2VwaWtfcHl0aG9uJywgJy1waHQnLCAnMi4wJywgJy1waCcsICc3LjAnLCAnLXRuJywgJzgnLCAnLW1hJywgJzIwMCcsICctaW1hZScsICc8aW5maWxlLm1hZT4nLCAnLW9tYWUnLCAnPG91dGZpbGUubWFlPic=

>  <r_epik_Ionization_Penalty>  (206) 
0.572714

>  <r_epik_Ionization_Penalty_Charging>  (206) 
0.572714

>  <r_epik_Ionization_Penalty_Neutral>  (206) 
6.11806e-07

>  <r_epik_State_Penalty>  (206) 
0.584806

>  <r_epik_Charging_Adjusted_Penalty>  (206) 
1.15752

>  <i_epik_Tot_Q>  (206) 
-1

>  <i_epik_Tot_abs_Q>  (206) 
1

>  <s_epik_Chemistry_Notes>  (206) 
This compound has an imine and may undergo hydrolysis.

>  <s_lp_Force_Field>  (206) 
OPLS3e

>  <r_lp_Energy>  (206) 
36.9681

>  <b_lp_Chiralities_Consistent>  (206) 
1

>  <s_lp_Variant>  (206) 
62:0-2

>  <s_i_glide_gridfile>  (206) 
pfpi4k_grid

>  <i_i_glide_lignum>  (206) 
1

>  <i_i_glide_rotatable_bonds>  (206) 
1

>  <r_i_docking_score>  (206) 
-3.09504

>  <r_i_glide_ligand_efficiency>  (206) 
-0.140683

>  <r_i_glide_ligand_efficiency_sa>  (206) 
-0.394201

>  <r_i_glide_ligand_efficiency_ln>  (206) 
-0.75654

>  <r_i_glide_gscore>  (206) 
-3.09504

>  <r_i_glide_lipo>  (206) 
-0.0554947

>  <r_i_glide_hbond>  (206) 
-0.355041

>  <r_i_glide_metal>  (206) 
-0

>  <r_i_glide_rewards>  (206) 
-1.13059

>  <r_i_glide_evdw>  (206) 
-19.3628

>  <r_i_glide_ecoul>  (206) 
-3.58165

>  <r_i_glide_erotb>  (206) 
0.168856

>  <r_i_glide_esite>  (206) 
-0.217375

>  <r_i_glide_emodel>  (206) 
-28.9603

>  <r_i_glide_energy>  (206) 
-22.9444

>  <r_i_glide_einternal>  (206) 
0.512856

>  <r_i_glide_intrahb_reward>  (206) 
-0

>  <i_i_glide_confnum>  (206) 
3

>  <i_i_glide_posenum>  (206) 
14

>  <r_i_glide_eff_state_penalty>  (206) 
0

>  <ligand_id>  (206) 
62

>  <original_smiles>  (206) 
O=C1CCCC2=Nc3ncnn3C(c3c(Cl)cccc3Cl)C12

>  <smiles>  (206) 
[H]C1=C2C(=C([O-])C([H])([H])C1([H])[H])C([H])(c1c(Cl)c([H])c([H])c([H])c1Cl)n1nc([H])nc1N2[H]

$$$$
62:1:1
     RDKit          3D

 33 36  0  0  1  0  0  0  0  0999 V2000
    1.4183   -5.8227    0.5607 O   0  0  0  0  0  0  0  0  0  0  0  0
    2.5403   -6.2534    0.9235 C   0  0  0  0  0  0  0  0  0  0  0  0
    3.6615   -5.3863    0.3263 C   0  0  0  0  0  0  0  0  0  0  0  0
    5.0122   -5.4623    1.0630 C   0  0  0  0  0  0  0  0  0  0  0  0
    5.2593   -6.8260    1.6487 C   0  0  0  0  0  0  0  0  0  0  0  0
    4.2683   -7.6920    1.9318 C   0  0  0  0  0  0  0  0  0  0  0  0
    4.5771   -8.9093    2.5210 N   0  0  0  0  0  0  0  0  0  0  0  0
    3.6083   -9.8266    2.8893 C   0  0  0  0  0  0  0  0  0  0  0  0
    3.8130  -11.0465    3.3666 N   0  0  0  0  0  0  0  0  0  0  0  0
    2.5093  -11.4396    3.5195 C   0  0  0  0  0  0  0  0  0  0  0  0
    1.5741  -10.5371    3.2038 N   0  0  0  0  0  0  0  0  0  0  0  0
    2.3196   -9.4831    2.7969 N   0  0  0  0  0  0  0  0  0  0  0  0
    1.7543   -8.2354    2.3052 C   0  0  1  0  0  0  0  0  0  0  0  0
    0.8608   -7.5508    3.3696 C   0  0  0  0  0  0  0  0  0  0  0  0
    1.4018   -6.7634    4.4304 C   0  0  0  0  0  0  0  0  0  0  0  0
    3.0936   -6.5204    4.6971 Cl  0  0  0  0  0  0  0  0  0  0  0  0
    0.5546   -6.1301    5.3597 C   0  0  0  0  0  0  0  0  0  0  0  0
   -0.8339   -6.2753    5.2777 C   0  0  0  0  0  0  0  0  0  0  0  0
   -1.3834   -7.0579    4.2508 C   0  0  0  0  0  0  0  0  0  0  0  0
   -0.5558   -7.6979    3.3076 C   0  0  0  0  0  0  0  0  0  0  0  0
   -1.3588   -8.6436    2.0987 Cl  0  0  0  0  0  0  0  0  0  0  0  0
    2.8571   -7.3491    1.7144 C   0  0  0  0  0  0  0  0  0  0  0  0
    3.3515   -4.3418    0.2470 H   0  0  0  0  0  0  0  0  0  0  0  0
    3.8368   -5.7291   -0.6933 H   0  0  0  0  0  0  0  0  0  0  0  0
    5.8231   -5.2219    0.3742 H   0  0  0  0  0  0  0  0  0  0  0  0
    5.0501   -4.7319    1.8705 H   0  0  0  0  0  0  0  0  0  0  0  0
    6.2878   -7.0639    1.8773 H   0  0  0  0  0  0  0  0  0  0  0  0
    2.2367  -12.4118    3.8977 H   0  0  0  0  0  0  0  0  0  0  0  0
    1.1571   -8.5017    1.4346 H   0  0  0  0  0  0  0  0  0  0  0  0
    0.9824   -5.5435    6.1534 H   0  0  0  0  0  0  0  0  0  0  0  0
   -1.4731   -5.8060    6.0066 H   0  0  0  0  0  0  0  0  0  0  0  0
   -2.4508   -7.1788    4.1876 H   0  0  0  0  0  0  0  0  0  0  0  0
    5.5388   -9.1592    2.7034 H   0  0  0  0  0  0  0  0  0  0  0  0
  1  2  1  0
  2  3  1  0
  2 22  2  0
  3  4  1  0
  3 23  1  0
  3 24  1  0
  4  5  1  0
  4 25  1  0
  4 26  1  0
  5 27  1  0
  5  6  2  0
  6 22  1  0
  6  7  1  0
  7  8  1  0
  7 33  1  0
  8 12  1  0
  8  9  2  0
  9 10  1  0
 10 11  2  0
 10 28  1  0
 11 12  1  0
 12 13  1  0
 13 14  1  0
 13 29  1  6
 13 22  1  0
 14 20  1  0
 14 15  2  0
 15 16  1  0
 15 17  1  0
 17 18  2  0
 17 30  1  0
 18 19  1  0
 18 31  1  0
 19 20  2  0
 19 32  1  0
 20 21  1  0
M  CHG  1   1  -1
M  END
>  <i_m_ct_stereo_status>  (207) 
1

>  <s_m_source_file>  (207) 
/var/tmp/pbs.5076255.sched01/tmpagfdxo7m/88tnrj_5ym.sdf

>  <i_m_source_file_index>  (207) 
1

>  <i_lp_mmshare_version>  (207) 
48012

>  <i_f3d_flags>  (207) 
0

>  <s_epik_input>  (207) 
W0NIMl0xW0NIMl1bQ0gyXUMoPU8pW0NAQEhdKEMxPTIpW0NAQEhdKG4zYyhOMiluW2NIXW4zKWM0YyhDbClbY0hdW2NIXVtjSF1jNENs

>  <s_epik_cmdline>  (207) 
J2VwaWtfcHl0aG9uJywgJy1waHQnLCAnMi4wJywgJy1waCcsICc3LjAnLCAnLXRuJywgJzgnLCAnLW1hJywgJzIwMCcsICctaW1hZScsICc8aW5maWxlLm1hZT4nLCAnLW9tYWUnLCAnPG91dGZpbGUubWFlPic=

>  <r_epik_Ionization_Penalty>  (207) 
0.572714

>  <r_epik_Ionization_Penalty_Charging>  (207) 
0.572714

>  <r_epik_Ionization_Penalty_Neutral>  (207) 
6.11806e-07

>  <r_epik_State_Penalty>  (207) 
0.584806

>  <r_epik_Charging_Adjusted_Penalty>  (207) 
1.15752

>  <i_epik_Tot_Q>  (207) 
-1

>  <i_epik_Tot_abs_Q>  (207) 
1

>  <s_epik_Chemistry_Notes>  (207) 
This compound has an imine and may undergo hydrolysis.

>  <s_lp_Force_Field>  (207) 
OPLS3e

>  <r_lp_Energy>  (207) 
36.9681

>  <b_lp_Chiralities_Consistent>  (207) 
1

>  <s_lp_Variant>  (207) 
62:0-2

>  <s_i_glide_gridfile>  (207) 
pfpi4k_grid

>  <i_i_glide_lignum>  (207) 
1

>  <i_i_glide_rotatable_bonds>  (207) 
1

>  <r_i_docking_score>  (207) 
-2.547

>  <r_i_glide_ligand_efficiency>  (207) 
-0.115773

>  <r_i_glide_ligand_efficiency_sa>  (207) 
-0.324399

>  <r_i_glide_ligand_efficiency_ln>  (207) 
-0.622579

>  <r_i_glide_gscore>  (207) 
-2.547

>  <r_i_glide_lipo>  (207) 
-0.210753

>  <r_i_glide_hbond>  (207) 
-0.192359

>  <r_i_glide_metal>  (207) 
-0

>  <r_i_glide_rewards>  (207) 
-1.14836

>  <r_i_glide_evdw>  (207) 
-23.2411

>  <r_i_glide_ecoul>  (207) 
0.297107

>  <r_i_glide_erotb>  (207) 
0.168856

>  <r_i_glide_esite>  (207) 
-0.0468967

>  <r_i_glide_emodel>  (207) 
-27.7275

>  <r_i_glide_energy>  (207) 
-22.944

>  <r_i_glide_einternal>  (207) 
0.607009

>  <r_i_glide_intrahb_reward>  (207) 
-0

>  <i_i_glide_confnum>  (207) 
1

>  <i_i_glide_posenum>  (207) 
23

>  <r_i_glide_eff_state_penalty>  (207) 
0

>  <ligand_id>  (207) 
62

>  <original_smiles>  (207) 
O=C1CCCC2=Nc3ncnn3C(c3c(Cl)cccc3Cl)C12

>  <smiles>  (207) 
[H]C1=C2C(=C([O-])C([H])([H])C1([H])[H])C([H])(c1c(Cl)c([H])c([H])c([H])c1Cl)n1nc([H])nc1N2[H]

$$$$
62:1:2
     RDKit          3D

 33 36  0  0  1  0  0  0  0  0999 V2000
    0.2345   -5.5144    5.3180 O   0  0  0  0  0  0  0  0  0  0  0  0
    0.2233   -6.3909    4.4262 C   0  0  0  0  0  0  0  0  0  0  0  0
   -1.1579   -7.0508    4.4658 C   0  0  0  0  0  0  0  0  0  0  0  0
   -1.6059   -7.7074    3.1537 C   0  0  0  0  0  0  0  0  0  0  0  0
   -0.4476   -8.3140    2.4182 C   0  0  0  0  0  0  0  0  0  0  0  0
    0.8231   -7.9188    2.5871 C   0  0  0  0  0  0  0  0  0  0  0  0
    1.8349   -8.5334    1.8622 N   0  0  0  0  0  0  0  0  0  0  0  0
    3.1707   -8.1790    1.9770 C   0  0  0  0  0  0  0  0  0  0  0  0
    4.2034   -8.7594    1.3784 N   0  0  0  0  0  0  0  0  0  0  0  0
    5.2106   -7.9604    1.8667 C   0  0  0  0  0  0  0  0  0  0  0  0
    4.8374   -6.9607    2.6775 N   0  0  0  0  0  0  0  0  0  0  0  0
    3.4916   -7.1249    2.7336 N   0  0  0  0  0  0  0  0  0  0  0  0
    2.6068   -6.2613    3.5051 C   0  0  1  0  0  0  0  0  0  0  0  0
    2.7149   -4.7739    3.0963 C   0  0  0  0  0  0  0  0  0  0  0  0
    2.5519   -4.3571    1.7434 C   0  0  0  0  0  0  0  0  0  0  0  0
    2.2070   -5.4609    0.4662 Cl  0  0  0  0  0  0  0  0  0  0  0  0
    2.6266   -2.9935    1.3864 C   0  0  0  0  0  0  0  0  0  0  0  0
    2.8680   -2.0119    2.3589 C   0  0  0  0  0  0  0  0  0  0  0  0
    3.0377   -2.4012    3.6981 C   0  0  0  0  0  0  0  0  0  0  0  0
    2.9698   -3.7627    4.0706 C   0  0  0  0  0  0  0  0  0  0  0  0
    3.2159   -4.1203    5.7459 Cl  0  0  0  0  0  0  0  0  0  0  0  0
    1.1745   -6.8106    3.4868 C   0  0  0  0  0  0  0  0  0  0  0  0
   -1.9182   -6.3244    4.7684 H   0  0  0  0  0  0  0  0  0  0  0  0
   -1.1441   -7.8129    5.2487 H   0  0  0  0  0  0  0  0  0  0  0  0
   -2.3464   -8.4791    3.3643 H   0  0  0  0  0  0  0  0  0  0  0  0
   -2.0732   -6.9828    2.4931 H   0  0  0  0  0  0  0  0  0  0  0  0
   -0.6936   -9.0915    1.7138 H   0  0  0  0  0  0  0  0  0  0  0  0
    6.2538   -8.1139    1.6112 H   0  0  0  0  0  0  0  0  0  0  0  0
    2.9470   -6.3819    4.5330 H   0  0  0  0  0  0  0  0  0  0  0  0
    2.4844   -2.6971    0.3561 H   0  0  0  0  0  0  0  0  0  0  0  0
    2.9230   -0.9723    2.0777 H   0  0  0  0  0  0  0  0  0  0  0  0
    3.2281   -1.6487    4.4498 H   0  0  0  0  0  0  0  0  0  0  0  0
    1.5993   -9.2813    1.2215 H   0  0  0  0  0  0  0  0  0  0  0  0
  1  2  1  0
  2  3  1  0
  2 22  2  0
  3  4  1  0
  3 23  1  0
  3 24  1  0
  4  5  1  0
  4 25  1  0
  4 26  1  0
  5 27  1  0
  5  6  2  0
  6 22  1  0
  6  7  1  0
  7  8  1  0
  7 33  1  0
  8 12  1  0
  8  9  2  0
  9 10  1  0
 10 11  2  0
 10 28  1  0
 11 12  1  0
 12 13  1  0
 13 14  1  0
 13 29  1  1
 13 22  1  0
 14 20  1  0
 14 15  2  0
 15 16  1  0
 15 17  1  0
 17 18  2  0
 17 30  1  0
 18 19  1  0
 18 31  1  0
 19 20  2  0
 19 32  1  0
 20 21  1  0
M  CHG  1   1  -1
M  END
>  <i_m_ct_stereo_status>  (208) 
1

>  <s_m_source_file>  (208) 
/var/tmp/pbs.5076255.sched01/tmpagfdxo7m/88tnrj_5ym.sdf

>  <i_m_source_file_index>  (208) 
1

>  <i_lp_mmshare_version>  (208) 
48012

>  <i_f3d_flags>  (208) 
0

>  <s_epik_input>  (208) 
W0NIMl0xW0NIMl1bQ0gyXUMoPU8pW0NAQEhdKEMxPTIpW0NAQEhdKG4zYyhOMiluW2NIXW4zKWM0YyhDbClbY0hdW2NIXVtjSF1jNENs

>  <s_epik_cmdline>  (208) 
J2VwaWtfcHl0aG9uJywgJy1waHQnLCAnMi4wJywgJy1waCcsICc3LjAnLCAnLXRuJywgJzgnLCAnLW1hJywgJzIwMCcsICctaW1hZScsICc8aW5maWxlLm1hZT4nLCAnLW9tYWUnLCAnPG91dGZpbGUubWFlPic=

>  <r_epik_Ionization_Penalty>  (208) 
0.572714

>  <r_epik_Ionization_Penalty_Charging>  (208) 
0.572714

>  <r_epik_Ionization_Penalty_Neutral>  (208) 
6.11806e-07

>  <r_epik_State_Penalty>  (208) 
0.584806

>  <r_epik_Charging_Adjusted_Penalty>  (208) 
1.15752

>  <i_epik_Tot_Q>  (208) 
-1

>  <i_epik_Tot_abs_Q>  (208) 
1

>  <s_epik_Chemistry_Notes>  (208) 
This compound has an imine and may undergo hydrolysis.

>  <s_lp_Force_Field>  (208) 
OPLS3e

>  <r_lp_Energy>  (208) 
36.9681

>  <b_lp_Chiralities_Consistent>  (208) 
1

>  <s_lp_Variant>  (208) 
62:0-2

>  <s_i_glide_gridfile>  (208) 
pfpi4k_grid

>  <i_i_glide_lignum>  (208) 
1

>  <i_i_glide_rotatable_bonds>  (208) 
1

>  <r_i_docking_score>  (208) 
-2.35832

>  <r_i_glide_ligand_efficiency>  (208) 
-0.107196

>  <r_i_glide_ligand_efficiency_sa>  (208) 
-0.300368

>  <r_i_glide_ligand_efficiency_ln>  (208) 
-0.576459

>  <r_i_glide_gscore>  (208) 
-2.35832

>  <r_i_glide_lipo>  (208) 
-0.00012122

>  <r_i_glide_hbond>  (208) 
-0.105933

>  <r_i_glide_metal>  (208) 
-0

>  <r_i_glide_rewards>  (208) 
-1.19112

>  <r_i_glide_evdw>  (208) 
-22.0342

>  <r_i_glide_ecoul>  (208) 
-0.682126

>  <r_i_glide_erotb>  (208) 
0.168856

>  <r_i_glide_esite>  (208) 
-0.0259713

>  <r_i_glide_emodel>  (208) 
-27.1719

>  <r_i_glide_energy>  (208) 
-22.7164

>  <r_i_glide_einternal>  (208) 
0.396174

>  <r_i_glide_intrahb_reward>  (208) 
-0

>  <i_i_glide_confnum>  (208) 
1

>  <i_i_glide_posenum>  (208) 
13

>  <r_i_glide_eff_state_penalty>  (208) 
0

>  <ligand_id>  (208) 
62

>  <original_smiles>  (208) 
O=C1CCCC2=Nc3ncnn3C(c3c(Cl)cccc3Cl)C12

>  <smiles>  (208) 
[H]C1=C2C(=C([O-])C([H])([H])C1([H])[H])C([H])(c1c(Cl)c([H])c([H])c([H])c1Cl)n1nc([H])nc1N2[H]

$$$$
63:0:0
     RDKit          3D

 20 22  0  0  1  0  0  0  0  0999 V2000
    0.8900  -11.3622    3.7784 C   0  0  0  0  0  0  0  0  0  0  0  0
    1.7129  -10.3373    3.2358 O   0  0  0  0  0  0  0  0  0  0  0  0
    1.1181   -9.1934    2.7448 C   0  0  0  0  0  0  0  0  0  0  0  0
   -0.2198   -9.0031    2.8544 N   0  0  0  0  0  0  0  0  0  0  0  0
   -0.7178   -7.8658    2.3456 C   0  0  0  0  0  0  0  0  0  0  0  0
   -0.0834   -6.8358    1.7480 N   0  0  0  0  0  0  0  0  0  0  0  0
    1.2374   -7.0674    1.6650 C   0  0  0  0  0  0  0  0  0  0  0  0
    1.8926   -8.1986    2.1326 C   0  0  0  0  0  0  0  0  0  0  0  0
    3.2180   -8.1792    1.9295 N   0  0  0  0  0  0  0  0  0  0  0  0
    3.3873   -6.9657    1.2961 N   0  0  0  0  0  0  0  0  0  0  0  0
    4.6035   -6.4875    0.8778 C   0  0  0  0  0  0  0  0  0  0  0  0
    4.5906   -5.2755    0.2716 N   0  0  0  0  0  0  0  0  0  0  0  0
    3.4404   -4.5964    0.0909 N   0  0  0  0  0  0  0  0  0  0  0  0
    2.2342   -5.0428    0.4837 N   0  0  0  0  0  0  0  0  0  0  0  0
    2.2394   -6.2538    1.1044 C   0  0  0  0  0  0  0  0  0  0  0  0
    1.5274  -12.1825    4.1115 H   0  0  0  0  0  0  0  0  0  0  0  0
    0.2177  -11.7672    3.0235 H   0  0  0  0  0  0  0  0  0  0  0  0
    0.3128  -11.0250    4.6422 H   0  0  0  0  0  0  0  0  0  0  0  0
   -1.7870   -7.7497    2.4457 H   0  0  0  0  0  0  0  0  0  0  0  0
    5.5097   -7.0483    1.0300 H   0  0  0  0  0  0  0  0  0  0  0  0
  1  2  1  0
  1 16  1  0
  1 17  1  0
  1 18  1  0
  2  3  1  0
  3  8  1  0
  3  4  2  0
  4  5  1  0
  5  6  2  0
  5 19  1  0
  6  7  1  0
  7 15  2  0
  7  8  1  0
  8  9  2  0
  9 10  1  0
 10 15  1  0
 10 11  1  0
 11 12  2  0
 11 20  1  0
 12 13  1  0
 13 14  2  0
 14 15  1  0
M  END
>  <i_m_ct_stereo_status>  (209) 
1

>  <s_m_source_file>  (209) 
/var/tmp/pbs.5076255.sched01/tmpagfdxo7m/88tnrj_5ym.sdf

>  <i_m_source_file_index>  (209) 
2

>  <i_lp_mmshare_version>  (209) 
48012

>  <i_f3d_flags>  (209) 
0

>  <s_epik_input>  (209) 
bjFbY0hdbmMoT1tDSDNdKWMoYzEyKW5uM2Mybm5uW2NIXTM=

>  <s_epik_cmdline>  (209) 
J2VwaWtfcHl0aG9uJywgJy1waHQnLCAnMi4wJywgJy1waCcsICc3LjAnLCAnLXRuJywgJzgnLCAnLW1hJywgJzIwMCcsICctaW1hZScsICc8aW5maWxlLm1hZT4nLCAnLW9tYWUnLCAnPG91dGZpbGUubWFlPic=

>  <r_lp_tautomer_probability>  (209) 
1

>  <r_epik_Ionization_Penalty>  (209) 
3.25313e-11

>  <r_epik_Ionization_Penalty_Charging>  (209) 
0

>  <r_epik_Ionization_Penalty_Neutral>  (209) 
3.25313e-11

>  <r_epik_State_Penalty>  (209) 
-0

>  <r_epik_Charging_Adjusted_Penalty>  (209) 
0

>  <i_epik_Tot_Q>  (209) 
0

>  <i_epik_Tot_abs_Q>  (209) 
0

>  <s_lp_Force_Field>  (209) 
OPLS3e

>  <r_lp_Energy>  (209) 
31.6819

>  <b_lp_Chiralities_Consistent>  (209) 
1

>  <s_lp_Variant>  (209) 
63:0-1

>  <s_i_glide_gridfile>  (209) 
pfpi4k_grid

>  <i_i_glide_lignum>  (209) 
2

>  <i_i_glide_rotatable_bonds>  (209) 
1

>  <r_i_docking_score>  (209) 
-4.09497

>  <r_i_glide_ligand_efficiency>  (209) 
-0.272998

>  <r_i_glide_ligand_efficiency_sa>  (209) 
-0.67327

>  <r_i_glide_ligand_efficiency_ln>  (209) 
-1.10434

>  <r_i_glide_gscore>  (209) 
-4.09497

>  <r_i_glide_lipo>  (209) 
-0.170804

>  <r_i_glide_hbond>  (209) 
-0.0869033

>  <r_i_glide_metal>  (209) 
-0

>  <r_i_glide_rewards>  (209) 
-2.26854

>  <r_i_glide_evdw>  (209) 
-21.5466

>  <r_i_glide_ecoul>  (209) 
-2.133

>  <r_i_glide_erotb>  (209) 
0

>  <r_i_glide_esite>  (209) 
-0.171437

>  <r_i_glide_emodel>  (209) 
-30.0443

>  <r_i_glide_energy>  (209) 
-23.6796

>  <r_i_glide_einternal>  (209) 
0.0406565

>  <r_i_glide_intrahb_reward>  (209) 
-0

>  <i_i_glide_confnum>  (209) 
1

>  <i_i_glide_posenum>  (209) 
2

>  <r_i_glide_eff_state_penalty>  (209) 
0

>  <ligand_id>  (209) 
63

>  <original_smiles>  (209) 
COc1ncnc2c1nn1cnnnc21

>  <smiles>  (209) 
[H]c1nc(OC([H])([H])[H])c2nn3c([H])nnnc3c2n1

$$$$
63:0:1
     RDKit          3D

 20 22  0  0  1  0  0  0  0  0999 V2000
   -0.5189    4.5343    3.7301 C   0  0  0  0  0  0  0  0  0  0  0  0
   -1.8095    4.1266    4.1730 O   0  0  0  0  0  0  0  0  0  0  0  0
   -1.8425    3.0331    5.0059 C   0  0  0  0  0  0  0  0  0  0  0  0
   -2.5450    3.1914    6.1486 N   0  0  0  0  0  0  0  0  0  0  0  0
   -2.5810    2.1523    6.9946 C   0  0  0  0  0  0  0  0  0  0  0  0
   -2.0284    0.9331    6.8749 N   0  0  0  0  0  0  0  0  0  0  0  0
   -1.3532    0.8100    5.7212 C   0  0  0  0  0  0  0  0  0  0  0  0
   -1.2249    1.7975    4.7542 C   0  0  0  0  0  0  0  0  0  0  0  0
   -0.5164    1.4083    3.6881 N   0  0  0  0  0  0  0  0  0  0  0  0
   -0.1610    0.1255    4.0296 N   0  0  0  0  0  0  0  0  0  0  0  0
    0.6144   -0.6768    3.2352 C   0  0  0  0  0  0  0  0  0  0  0  0
    0.8590   -1.9237    3.7106 N   0  0  0  0  0  0  0  0  0  0  0  0
    0.3634   -2.3304    4.8992 N   0  0  0  0  0  0  0  0  0  0  0  0
   -0.3913   -1.5580    5.7050 N   0  0  0  0  0  0  0  0  0  0  0  0
   -0.6403   -0.3053    5.2334 C   0  0  0  0  0  0  0  0  0  0  0  0
   -0.6175    5.3247    2.9844 H   0  0  0  0  0  0  0  0  0  0  0  0
    0.0802    3.7524    3.2661 H   0  0  0  0  0  0  0  0  0  0  0  0
    0.0450    4.9286    4.5757 H   0  0  0  0  0  0  0  0  0  0  0  0
   -3.1410    2.3208    7.9010 H   0  0  0  0  0  0  0  0  0  0  0  0
    0.9806   -0.3263    2.2795 H   0  0  0  0  0  0  0  0  0  0  0  0
  1  2  1  0
  1 16  1  0
  1 17  1  0
  1 18  1  0
  2  3  1  0
  3  8  1  0
  3  4  2  0
  4  5  1  0
  5  6  2  0
  5 19  1  0
  6  7  1  0
  7 15  2  0
  7  8  1  0
  8  9  2  0
  9 10  1  0
 10 15  1  0
 10 11  1  0
 11 12  2  0
 11 20  1  0
 12 13  1  0
 13 14  2  0
 14 15  1  0
M  END
>  <i_m_ct_stereo_status>  (210) 
1

>  <s_m_source_file>  (210) 
/var/tmp/pbs.5076255.sched01/tmpagfdxo7m/88tnrj_5ym.sdf

>  <i_m_source_file_index>  (210) 
2

>  <i_lp_mmshare_version>  (210) 
48012

>  <i_f3d_flags>  (210) 
0

>  <s_epik_input>  (210) 
bjFbY0hdbmMoT1tDSDNdKWMoYzEyKW5uM2Mybm5uW2NIXTM=

>  <s_epik_cmdline>  (210) 
J2VwaWtfcHl0aG9uJywgJy1waHQnLCAnMi4wJywgJy1waCcsICc3LjAnLCAnLXRuJywgJzgnLCAnLW1hJywgJzIwMCcsICctaW1hZScsICc8aW5maWxlLm1hZT4nLCAnLW9tYWUnLCAnPG91dGZpbGUubWFlPic=

>  <r_lp_tautomer_probability>  (210) 
1

>  <r_epik_Ionization_Penalty>  (210) 
3.25313e-11

>  <r_epik_Ionization_Penalty_Charging>  (210) 
0

>  <r_epik_Ionization_Penalty_Neutral>  (210) 
3.25313e-11

>  <r_epik_State_Penalty>  (210) 
-0

>  <r_epik_Charging_Adjusted_Penalty>  (210) 
0

>  <i_epik_Tot_Q>  (210) 
0

>  <i_epik_Tot_abs_Q>  (210) 
0

>  <s_lp_Force_Field>  (210) 
OPLS3e

>  <r_lp_Energy>  (210) 
31.6819

>  <b_lp_Chiralities_Consistent>  (210) 
1

>  <s_lp_Variant>  (210) 
63:0-1

>  <s_i_glide_gridfile>  (210) 
pfpi4k_grid

>  <i_i_glide_lignum>  (210) 
2

>  <i_i_glide_rotatable_bonds>  (210) 
1

>  <r_i_docking_score>  (210) 
-3.98578

>  <r_i_glide_ligand_efficiency>  (210) 
-0.265718

>  <r_i_glide_ligand_efficiency_sa>  (210) 
-0.655318

>  <r_i_glide_ligand_efficiency_ln>  (210) 
-1.0749

>  <r_i_glide_gscore>  (210) 
-3.98578

>  <r_i_glide_lipo>  (210) 
0

>  <r_i_glide_hbond>  (210) 
-0.20145

>  <r_i_glide_metal>  (210) 
-0

>  <r_i_glide_rewards>  (210) 
-2.05625

>  <r_i_glide_evdw>  (210) 
-17.1777

>  <r_i_glide_ecoul>  (210) 
-5.17938

>  <r_i_glide_erotb>  (210) 
0

>  <r_i_glide_esite>  (210) 
-0.092282

>  <r_i_glide_emodel>  (210) 
-24.3935

>  <r_i_glide_energy>  (210) 
-22.3571

>  <r_i_glide_einternal>  (210) 
8.19429

>  <r_i_glide_intrahb_reward>  (210) 
-0

>  <i_i_glide_confnum>  (210) 
2

>  <i_i_glide_posenum>  (210) 
7

>  <r_i_glide_eff_state_penalty>  (210) 
0

>  <ligand_id>  (210) 
63

>  <original_smiles>  (210) 
COc1ncnc2c1nn1cnnnc21

>  <smiles>  (210) 
[H]c1nc(OC([H])([H])[H])c2nn3c([H])nnnc3c2n1

$$$$
63:0:2
     RDKit          3D

 20 22  0  0  1  0  0  0  0  0999 V2000
    0.4955    1.7467    2.1233 C   0  0  0  0  0  0  0  0  0  0  0  0
    0.6424    0.4874    2.7638 O   0  0  0  0  0  0  0  0  0  0  0  0
   -0.1490    0.2026    3.8556 C   0  0  0  0  0  0  0  0  0  0  0  0
   -0.9756    1.1421    4.3738 N   0  0  0  0  0  0  0  0  0  0  0  0
   -1.7197    0.7880    5.4300 C   0  0  0  0  0  0  0  0  0  0  0  0
   -1.7822   -0.3930    6.0701 N   0  0  0  0  0  0  0  0  0  0  0  0
   -0.9433   -1.2927    5.5348 C   0  0  0  0  0  0  0  0  0  0  0  0
   -0.1155   -1.0660    4.4455 C   0  0  0  0  0  0  0  0  0  0  0  0
    0.6164   -2.1307    4.0951 N   0  0  0  0  0  0  0  0  0  0  0  0
    0.2173   -3.0690    5.0244 N   0  0  0  0  0  0  0  0  0  0  0  0
    0.6952   -4.3544    5.0695 C   0  0  0  0  0  0  0  0  0  0  0  0
    0.1863   -5.1517    6.0399 N   0  0  0  0  0  0  0  0  0  0  0  0
   -0.7366   -4.6928    6.9080 N   0  0  0  0  0  0  0  0  0  0  0  0
   -1.2304   -3.4431    6.8840 N   0  0  0  0  0  0  0  0  0  0  0  0
   -0.7185   -2.6305    5.9179 C   0  0  0  0  0  0  0  0  0  0  0  0
    1.1992    1.7943    1.2921 H   0  0  0  0  0  0  0  0  0  0  0  0
    0.7219    2.5825    2.7896 H   0  0  0  0  0  0  0  0  0  0  0  0
   -0.5059    1.8762    1.7093 H   0  0  0  0  0  0  0  0  0  0  0  0
   -2.3578    1.5629    5.8304 H   0  0  0  0  0  0  0  0  0  0  0  0
    1.4286   -4.7034    4.3604 H   0  0  0  0  0  0  0  0  0  0  0  0
  1  2  1  0
  1 16  1  0
  1 17  1  0
  1 18  1  0
  2  3  1  0
  3  8  1  0
  3  4  2  0
  4  5  1  0
  5  6  2  0
  5 19  1  0
  6  7  1  0
  7 15  2  0
  7  8  1  0
  8  9  2  0
  9 10  1  0
 10 15  1  0
 10 11  1  0
 11 12  2  0
 11 20  1  0
 12 13  1  0
 13 14  2  0
 14 15  1  0
M  END
>  <i_m_ct_stereo_status>  (211) 
1

>  <s_m_source_file>  (211) 
/var/tmp/pbs.5076255.sched01/tmpagfdxo7m/88tnrj_5ym.sdf

>  <i_m_source_file_index>  (211) 
2

>  <i_lp_mmshare_version>  (211) 
48012

>  <i_f3d_flags>  (211) 
0

>  <s_epik_input>  (211) 
bjFbY0hdbmMoT1tDSDNdKWMoYzEyKW5uM2Mybm5uW2NIXTM=

>  <s_epik_cmdline>  (211) 
J2VwaWtfcHl0aG9uJywgJy1waHQnLCAnMi4wJywgJy1waCcsICc3LjAnLCAnLXRuJywgJzgnLCAnLW1hJywgJzIwMCcsICctaW1hZScsICc8aW5maWxlLm1hZT4nLCAnLW9tYWUnLCAnPG91dGZpbGUubWFlPic=

>  <r_lp_tautomer_probability>  (211) 
1

>  <r_epik_Ionization_Penalty>  (211) 
3.25313e-11

>  <r_epik_Ionization_Penalty_Charging>  (211) 
0

>  <r_epik_Ionization_Penalty_Neutral>  (211) 
3.25313e-11

>  <r_epik_State_Penalty>  (211) 
-0

>  <r_epik_Charging_Adjusted_Penalty>  (211) 
0

>  <i_epik_Tot_Q>  (211) 
0

>  <i_epik_Tot_abs_Q>  (211) 
0

>  <s_lp_Force_Field>  (211) 
OPLS3e

>  <r_lp_Energy>  (211) 
31.6819

>  <b_lp_Chiralities_Consistent>  (211) 
1

>  <s_lp_Variant>  (211) 
63:0-1

>  <s_i_glide_gridfile>  (211) 
pfpi4k_grid

>  <i_i_glide_lignum>  (211) 
2

>  <i_i_glide_rotatable_bonds>  (211) 
1

>  <r_i_docking_score>  (211) 
-3.532

>  <r_i_glide_ligand_efficiency>  (211) 
-0.235466

>  <r_i_glide_ligand_efficiency_sa>  (211) 
-0.58071

>  <r_i_glide_ligand_efficiency_ln>  (211) 
-0.952521

>  <r_i_glide_gscore>  (211) 
-3.532

>  <r_i_glide_lipo>  (211) 
0

>  <r_i_glide_hbond>  (211) 
-0.130425

>  <r_i_glide_metal>  (211) 
-0

>  <r_i_glide_rewards>  (211) 
-2.0239

>  <r_i_glide_evdw>  (211) 
-15.7365

>  <r_i_glide_ecoul>  (211) 
-3.08815

>  <r_i_glide_erotb>  (211) 
0

>  <r_i_glide_esite>  (211) 
-0.127621

>  <r_i_glide_emodel>  (211) 
-24.301

>  <r_i_glide_energy>  (211) 
-18.8246

>  <r_i_glide_einternal>  (211) 
0.0853503

>  <r_i_glide_intrahb_reward>  (211) 
-0

>  <i_i_glide_confnum>  (211) 
2

>  <i_i_glide_posenum>  (211) 
4

>  <r_i_glide_eff_state_penalty>  (211) 
0

>  <ligand_id>  (211) 
63

>  <original_smiles>  (211) 
COc1ncnc2c1nn1cnnnc21

>  <smiles>  (211) 
[H]c1nc(OC([H])([H])[H])c2nn3c([H])nnnc3c2n1

$$$$
64:0:0
     RDKit          3D

 27 30  0  0  1  0  0  0  0  0999 V2000
    6.3667   -5.2977    0.8767 C   0  0  0  0  0  0  0  0  0  0  0  0
    6.1273   -4.1646    0.0685 C   0  0  0  0  0  0  0  0  0  0  0  0
    4.9096   -3.7899   -0.3744 N   0  0  0  0  0  0  0  0  0  0  0  0
    3.8953   -4.6020    0.0296 C   0  0  0  0  0  0  0  0  0  0  0  0
    2.5479   -4.4720   -0.2432 N   0  0  0  0  0  0  0  0  0  0  0  0
    1.7894   -5.4533    0.3067 N   0  0  0  0  0  0  0  0  0  0  0  0
    2.6324   -6.2273    0.9473 C   0  0  0  0  0  0  0  0  0  0  0  0
    2.1904   -7.4108    1.6817 C   0  0  0  0  0  0  0  0  0  0  0  0
    2.9025   -8.5550    1.7795 N   0  0  0  0  0  0  0  0  0  0  0  0
    2.1601   -9.4445    2.5411 C   0  0  0  0  0  0  0  0  0  0  0  0
    2.3277  -10.7716    2.9791 C   0  0  0  0  0  0  0  0  0  0  0  0
    1.3133  -11.3501    3.7708 C   0  0  0  0  0  0  0  0  0  0  0  0
    0.2166  -10.6229    4.0790 N   0  0  0  0  0  0  0  0  0  0  0  0
    0.0179   -9.3479    3.6756 C   0  0  0  0  0  0  0  0  0  0  0  0
    0.9930   -8.7057    2.8792 C   0  0  0  0  0  0  0  0  0  0  0  0
    1.0259   -7.4336    2.3375 N   0  0  0  0  0  0  0  0  0  0  0  0
    3.9865   -5.7713    0.8320 C   0  0  0  0  0  0  0  0  0  0  0  0
    5.2828   -6.1123    1.2637 C   0  0  0  0  0  0  0  0  0  0  0  0
    2.1353   -3.7581   -0.8276 H   0  0  0  0  0  0  0  0  0  0  0  0
    3.7949   -8.7239    1.3336 H   0  0  0  0  0  0  0  0  0  0  0  0
    7.3721   -5.5385    1.1899 H   0  0  0  0  0  0  0  0  0  0  0  0
    6.9490   -3.5380   -0.2458 H   0  0  0  0  0  0  0  0  0  0  0  0
    3.2028  -11.3414    2.7013 H   0  0  0  0  0  0  0  0  0  0  0  0
    1.3416  -12.3607    4.1556 H   0  0  0  0  0  0  0  0  0  0  0  0
   -0.9063   -8.8910    3.9961 H   0  0  0  0  0  0  0  0  0  0  0  0
    5.4427   -6.9764    1.8875 H   0  0  0  0  0  0  0  0  0  0  0  0
   -0.5274  -11.0472    4.6513 H   0  0  0  0  0  0  0  0  0  0  0  0
  1  2  2  0
  1 21  1  0
  1 18  1  0
  2  3  1  0
  2 22  1  0
  3  4  2  0
  4  5  1  0
  4 17  1  0
  5  6  1  0
  5 19  1  0
  6  7  2  0
  7 17  1  0
  7  8  1  0
  8 16  2  0
  8  9  1  0
  9 20  1  0
  9 10  1  0
 10 15  2  0
 10 11  1  0
 11 23  1  0
 11 12  2  0
 12 24  1  0
 12 13  1  0
 13 27  1  0
 13 14  2  0
 14 25  1  0
 14 15  1  0
 15 16  1  0
 17 18  2  0
 18 26  1  0
M  CHG  1  13   1
M  END
>  <i_m_ct_stereo_status>  (212) 
1

>  <s_m_source_file>  (212) 
/var/tmp/pbs.5076255.sched01/tmpagfdxo7m/88tnrj_5ym.sdf

>  <i_m_source_file_index>  (212) 
3

>  <i_lp_mmshare_version>  (212) 
48012

>  <i_f3d_flags>  (212) 
0

>  <s_epik_input>  (212) 
bjFbY0hdW2NIXVtjSF1jKGMxMiljKFtuSF1uMiktYyhuMylbbkhdYyhjMzQpW2NIXW5bY0hdW2NIXTQ=

>  <s_epik_cmdline>  (212) 
J2VwaWtfcHl0aG9uJywgJy1waHQnLCAnMi4wJywgJy1waCcsICc3LjAnLCAnLXRuJywgJzgnLCAnLW1hJywgJzIwMCcsICctaW1hZScsICc8aW5maWxlLm1hZT4nLCAnLW9tYWUnLCAnPG91dGZpbGUubWFlPic=

>  <r_lp_tautomer_probability>  (212) 
0.856936

>  <r_epik_Ionization_Penalty>  (212) 
1.10107

>  <r_epik_Ionization_Penalty_Charging>  (212) 
1.84573e-05

>  <r_epik_Ionization_Penalty_Neutral>  (212) 
1.10105

>  <r_epik_State_Penalty>  (212) 
0.270118

>  <r_epik_Charging_Adjusted_Penalty>  (212) 
0.270136

>  <i_epik_Tot_Q>  (212) 
1

>  <i_epik_Tot_abs_Q>  (212) 
1

>  <s_lp_Force_Field>  (212) 
OPLS3e

>  <r_lp_Energy>  (212) 
26.3677

>  <b_lp_Chiralities_Consistent>  (212) 
1

>  <s_lp_Variant>  (212) 
64:0-1

>  <s_i_glide_gridfile>  (212) 
pfpi4k_grid

>  <i_i_glide_lignum>  (212) 
3

>  <i_i_glide_rotatable_bonds>  (212) 
1

>  <r_i_docking_score>  (212) 
-4.69119

>  <r_i_glide_ligand_efficiency>  (212) 
-0.260622

>  <r_i_glide_ligand_efficiency_sa>  (212) 
-0.683022

>  <r_i_glide_ligand_efficiency_ln>  (212) 
-1.20585

>  <r_i_glide_gscore>  (212) 
-4.69119

>  <r_i_glide_lipo>  (212) 
-0.576413

>  <r_i_glide_hbond>  (212) 
-0.295828

>  <r_i_glide_metal>  (212) 
-0

>  <r_i_glide_rewards>  (212) 
-1.79155

>  <r_i_glide_evdw>  (212) 
-19.4641

>  <r_i_glide_ecoul>  (212) 
-7.92965

>  <r_i_glide_erotb>  (212) 
0.306224

>  <r_i_glide_esite>  (212) 
-0.170978

>  <r_i_glide_emodel>  (212) 
-38.0561

>  <r_i_glide_energy>  (212) 
-27.3937

>  <r_i_glide_einternal>  (212) 
3.61762

>  <r_i_glide_intrahb_reward>  (212) 
-0

>  <i_i_glide_confnum>  (212) 
2

>  <i_i_glide_posenum>  (212) 
1

>  <r_i_glide_eff_state_penalty>  (212) 
0

>  <ligand_id>  (212) 
64

>  <original_smiles>  (212) 
c1cnc2n[nH]c(-c3nc4ccncc4[nH]3)c2c1

>  <smiles>  (212) 
[H]c1nc2c(c(-c3nc4c([H])[n+]([H])c([H])c([H])c4n3[H])nn2[H])c([H])c1[H]

$$$$
64:0:1
     RDKit          3D

 27 30  0  0  1  0  0  0  0  0999 V2000
    5.8248   -5.2398    2.8287 C   0  0  0  0  0  0  0  0  0  0  0  0
    5.6658   -6.1889    1.7953 C   0  0  0  0  0  0  0  0  0  0  0  0
    4.8692   -6.0049    0.7178 N   0  0  0  0  0  0  0  0  0  0  0  0
    4.2132   -4.8078    0.6930 C   0  0  0  0  0  0  0  0  0  0  0  0
    3.3304   -4.3391   -0.2649 N   0  0  0  0  0  0  0  0  0  0  0  0
    2.8339   -3.1066    0.0050 N   0  0  0  0  0  0  0  0  0  0  0  0
    3.4046   -2.7509    1.1311 C   0  0  0  0  0  0  0  0  0  0  0  0
    3.1247   -1.4645    1.7663 C   0  0  0  0  0  0  0  0  0  0  0  0
    2.2155   -0.5904    1.2814 N   0  0  0  0  0  0  0  0  0  0  0  0
    2.2149    0.5223    2.0962 C   0  0  0  0  0  0  0  0  0  0  0  0
    1.5195    1.7456    2.1067 C   0  0  0  0  0  0  0  0  0  0  0  0
    1.8086    2.6697    3.1312 C   0  0  0  0  0  0  0  0  0  0  0  0
    2.7312    2.3571    4.0727 N   0  0  0  0  0  0  0  0  0  0  0  0
    3.4187    1.1854    4.0909 C   0  0  0  0  0  0  0  0  0  0  0  0
    3.1835    0.2148    3.0870 C   0  0  0  0  0  0  0  0  0  0  0  0
    3.7415   -1.0372    2.8712 N   0  0  0  0  0  0  0  0  0  0  0  0
    4.2808   -3.7656    1.6521 C   0  0  0  0  0  0  0  0  0  0  0  0
    5.1255   -4.0138    2.7580 C   0  0  0  0  0  0  0  0  0  0  0  0
    3.0630   -4.8417   -1.1040 H   0  0  0  0  0  0  0  0  0  0  0  0
    1.6651   -0.7506    0.4192 H   0  0  0  0  0  0  0  0  0  0  0  0
    6.4837   -5.4562    3.6593 H   0  0  0  0  0  0  0  0  0  0  0  0
    6.1981   -7.1318    1.8338 H   0  0  0  0  0  0  0  0  0  0  0  0
    0.7855    1.9803    1.3481 H   0  0  0  0  0  0  0  0  0  0  0  0
    1.3280    3.6364    3.2124 H   0  0  0  0  0  0  0  0  0  0  0  0
    4.1352    1.0554    4.8880 H   0  0  0  0  0  0  0  0  0  0  0  0
    5.2421   -3.2796    3.5411 H   0  0  0  0  0  0  0  0  0  0  0  0
    2.9270    3.0420    4.8042 H   0  0  0  0  0  0  0  0  0  0  0  0
  1  2  2  0
  1 21  1  0
  1 18  1  0
  2  3  1  0
  2 22  1  0
  3  4  2  0
  4  5  1  0
  4 17  1  0
  5  6  1  0
  5 19  1  0
  6  7  2  0
  7 17  1  0
  7  8  1  0
  8 16  2  0
  8  9  1  0
  9 20  1  0
  9 10  1  0
 10 15  2  0
 10 11  1  0
 11 23  1  0
 11 12  2  0
 12 24  1  0
 12 13  1  0
 13 27  1  0
 13 14  2  0
 14 25  1  0
 14 15  1  0
 15 16  1  0
 17 18  2  0
 18 26  1  0
M  CHG  1  13   1
M  END
>  <i_m_ct_stereo_status>  (213) 
1

>  <s_m_source_file>  (213) 
/var/tmp/pbs.5076255.sched01/tmpagfdxo7m/88tnrj_5ym.sdf

>  <i_m_source_file_index>  (213) 
3

>  <i_lp_mmshare_version>  (213) 
48012

>  <i_f3d_flags>  (213) 
0

>  <s_epik_input>  (213) 
bjFbY0hdW2NIXVtjSF1jKGMxMiljKFtuSF1uMiktYyhuMylbbkhdYyhjMzQpW2NIXW5bY0hdW2NIXTQ=

>  <s_epik_cmdline>  (213) 
J2VwaWtfcHl0aG9uJywgJy1waHQnLCAnMi4wJywgJy1waCcsICc3LjAnLCAnLXRuJywgJzgnLCAnLW1hJywgJzIwMCcsICctaW1hZScsICc8aW5maWxlLm1hZT4nLCAnLW9tYWUnLCAnPG91dGZpbGUubWFlPic=

>  <r_lp_tautomer_probability>  (213) 
0.856936

>  <r_epik_Ionization_Penalty>  (213) 
1.10107

>  <r_epik_Ionization_Penalty_Charging>  (213) 
1.84573e-05

>  <r_epik_Ionization_Penalty_Neutral>  (213) 
1.10105

>  <r_epik_State_Penalty>  (213) 
0.270118

>  <r_epik_Charging_Adjusted_Penalty>  (213) 
0.270136

>  <i_epik_Tot_Q>  (213) 
1

>  <i_epik_Tot_abs_Q>  (213) 
1

>  <s_lp_Force_Field>  (213) 
OPLS3e

>  <r_lp_Energy>  (213) 
26.3677

>  <b_lp_Chiralities_Consistent>  (213) 
1

>  <s_lp_Variant>  (213) 
64:0-1

>  <s_i_glide_gridfile>  (213) 
pfpi4k_grid

>  <i_i_glide_lignum>  (213) 
3

>  <i_i_glide_rotatable_bonds>  (213) 
1

>  <r_i_docking_score>  (213) 
-4.51658

>  <r_i_glide_ligand_efficiency>  (213) 
-0.250921

>  <r_i_glide_ligand_efficiency_sa>  (213) 
-0.657599

>  <r_i_glide_ligand_efficiency_ln>  (213) 
-1.16096

>  <r_i_glide_gscore>  (213) 
-4.51658

>  <r_i_glide_lipo>  (213) 
-0.124918

>  <r_i_glide_hbond>  (213) 
-0.456

>  <r_i_glide_metal>  (213) 
-0

>  <r_i_glide_rewards>  (213) 
-1.83875

>  <r_i_glide_evdw>  (213) 
-14.8681

>  <r_i_glide_ecoul>  (213) 
-10.0294

>  <r_i_glide_erotb>  (213) 
0.306224

>  <r_i_glide_esite>  (213) 
-0.155324

>  <r_i_glide_emodel>  (213) 
-36.9407

>  <r_i_glide_energy>  (213) 
-24.8975

>  <r_i_glide_einternal>  (213) 
0.0741844

>  <r_i_glide_intrahb_reward>  (213) 
-0

>  <i_i_glide_confnum>  (213) 
1

>  <i_i_glide_posenum>  (213) 
4

>  <r_i_glide_eff_state_penalty>  (213) 
0

>  <ligand_id>  (213) 
64

>  <original_smiles>  (213) 
c1cnc2n[nH]c(-c3nc4ccncc4[nH]3)c2c1

>  <smiles>  (213) 
[H]c1nc2c(c(-c3nc4c([H])[n+]([H])c([H])c([H])c4n3[H])nn2[H])c([H])c1[H]

$$$$
64:0:2
     RDKit          3D

 27 30  0  0  1  0  0  0  0  0999 V2000
    1.2372   -0.4457    3.8443 C   0  0  0  0  0  0  0  0  0  0  0  0
    1.2228    0.0024    2.5054 C   0  0  0  0  0  0  0  0  0  0  0  0
    0.5401    1.0824    2.0778 N   0  0  0  0  0  0  0  0  0  0  0  0
   -0.1578    1.7383    3.0422 C   0  0  0  0  0  0  0  0  0  0  0  0
   -0.9558    2.8562    2.9046 N   0  0  0  0  0  0  0  0  0  0  0  0
   -1.5386    3.2599    4.0687 N   0  0  0  0  0  0  0  0  0  0  0  0
   -1.0816    2.4287    4.9798 C   0  0  0  0  0  0  0  0  0  0  0  0
   -1.4806    2.5187    6.3859 C   0  0  0  0  0  0  0  0  0  0  0  0
   -2.5261    3.2619    6.7926 N   0  0  0  0  0  0  0  0  0  0  0  0
   -2.5976    3.1656    8.1720 C   0  0  0  0  0  0  0  0  0  0  0  0
   -3.4464    3.6890    9.1594 C   0  0  0  0  0  0  0  0  0  0  0  0
   -3.1918    3.3440   10.4979 C   0  0  0  0  0  0  0  0  0  0  0  0
   -2.1451    2.5581   10.8129 N   0  0  0  0  0  0  0  0  0  0  0  0
   -1.2941    2.0448    9.8891 C   0  0  0  0  0  0  0  0  0  0  0  0
   -1.5120    2.3165    8.5135 C   0  0  0  0  0  0  0  0  0  0  0  0
   -0.8545    1.8751    7.3787 N   0  0  0  0  0  0  0  0  0  0  0  0
   -0.2254    1.4150    4.4230 C   0  0  0  0  0  0  0  0  0  0  0  0
    0.5096    0.2727    4.8164 C   0  0  0  0  0  0  0  0  0  0  0  0
   -1.0427    3.3945    2.0440 H   0  0  0  0  0  0  0  0  0  0  0  0
   -3.1220    3.7698    6.1542 H   0  0  0  0  0  0  0  0  0  0  0  0
    1.8097   -1.3211    4.1147 H   0  0  0  0  0  0  0  0  0  0  0  0
    1.7769   -0.5311    1.7466 H   0  0  0  0  0  0  0  0  0  0  0  0
   -4.2807    4.3213    8.8991 H   0  0  0  0  0  0  0  0  0  0  0  0
   -3.7867    3.6663   11.3415 H   0  0  0  0  0  0  0  0  0  0  0  0
   -0.5191    1.3895   10.2619 H   0  0  0  0  0  0  0  0  0  0  0  0
    0.5120   -0.0505    5.8451 H   0  0  0  0  0  0  0  0  0  0  0  0
   -2.0768    2.2818   11.8099 H   0  0  0  0  0  0  0  0  0  0  0  0
  1  2  2  0
  1 21  1  0
  1 18  1  0
  2  3  1  0
  2 22  1  0
  3  4  2  0
  4  5  1  0
  4 17  1  0
  5  6  1  0
  5 19  1  0
  6  7  2  0
  7 17  1  0
  7  8  1  0
  8 16  2  0
  8  9  1  0
  9 20  1  0
  9 10  1  0
 10 15  2  0
 10 11  1  0
 11 23  1  0
 11 12  2  0
 12 24  1  0
 12 13  1  0
 13 27  1  0
 13 14  2  0
 14 25  1  0
 14 15  1  0
 15 16  1  0
 17 18  2  0
 18 26  1  0
M  CHG  1  13   1
M  END
>  <i_m_ct_stereo_status>  (214) 
1

>  <s_m_source_file>  (214) 
/var/tmp/pbs.5076255.sched01/tmpagfdxo7m/88tnrj_5ym.sdf

>  <i_m_source_file_index>  (214) 
3

>  <i_lp_mmshare_version>  (214) 
48012

>  <i_f3d_flags>  (214) 
0

>  <s_epik_input>  (214) 
bjFbY0hdW2NIXVtjSF1jKGMxMiljKFtuSF1uMiktYyhuMylbbkhdYyhjMzQpW2NIXW5bY0hdW2NIXTQ=

>  <s_epik_cmdline>  (214) 
J2VwaWtfcHl0aG9uJywgJy1waHQnLCAnMi4wJywgJy1waCcsICc3LjAnLCAnLXRuJywgJzgnLCAnLW1hJywgJzIwMCcsICctaW1hZScsICc8aW5maWxlLm1hZT4nLCAnLW9tYWUnLCAnPG91dGZpbGUubWFlPic=

>  <r_lp_tautomer_probability>  (214) 
0.856936

>  <r_epik_Ionization_Penalty>  (214) 
1.10107

>  <r_epik_Ionization_Penalty_Charging>  (214) 
1.84573e-05

>  <r_epik_Ionization_Penalty_Neutral>  (214) 
1.10105

>  <r_epik_State_Penalty>  (214) 
0.270118

>  <r_epik_Charging_Adjusted_Penalty>  (214) 
0.270136

>  <i_epik_Tot_Q>  (214) 
1

>  <i_epik_Tot_abs_Q>  (214) 
1

>  <s_lp_Force_Field>  (214) 
OPLS3e

>  <r_lp_Energy>  (214) 
26.3677

>  <b_lp_Chiralities_Consistent>  (214) 
1

>  <s_lp_Variant>  (214) 
64:0-1

>  <s_i_glide_gridfile>  (214) 
pfpi4k_grid

>  <i_i_glide_lignum>  (214) 
3

>  <i_i_glide_rotatable_bonds>  (214) 
1

>  <r_i_docking_score>  (214) 
-4.15353

>  <r_i_glide_ligand_efficiency>  (214) 
-0.230752

>  <r_i_glide_ligand_efficiency_sa>  (214) 
-0.604741

>  <r_i_glide_ligand_efficiency_ln>  (214) 
-1.06764

>  <r_i_glide_gscore>  (214) 
-4.15353

>  <r_i_glide_lipo>  (214) 
-0.178472

>  <r_i_glide_hbond>  (214) 
-0.300315

>  <r_i_glide_metal>  (214) 
-0

>  <r_i_glide_rewards>  (214) 
-1.83003

>  <r_i_glide_evdw>  (214) 
-19.1429

>  <r_i_glide_ecoul>  (214) 
-6.36628

>  <r_i_glide_erotb>  (214) 
0.306224

>  <r_i_glide_esite>  (214) 
-0.238849

>  <r_i_glide_emodel>  (214) 
-36.0141

>  <r_i_glide_energy>  (214) 
-25.5092

>  <r_i_glide_einternal>  (214) 
1.00074

>  <r_i_glide_intrahb_reward>  (214) 
-0

>  <i_i_glide_confnum>  (214) 
3

>  <i_i_glide_posenum>  (214) 
3

>  <r_i_glide_eff_state_penalty>  (214) 
0

>  <ligand_id>  (214) 
64

>  <original_smiles>  (214) 
c1cnc2n[nH]c(-c3nc4ccncc4[nH]3)c2c1

>  <smiles>  (214) 
[H]c1nc2c(c(-c3nc4c([H])[n+]([H])c([H])c([H])c4n3[H])nn2[H])c([H])c1[H]

$$$$
64:1:0
     RDKit          3D

 26 29  0  0  1  0  0  0  0  0999 V2000
    3.3950   -2.4183   -3.9168 C   0  0  0  0  0  0  0  0  0  0  0  0
    3.5269   -1.0141   -3.9093 C   0  0  0  0  0  0  0  0  0  0  0  0
    4.1605   -0.3255   -2.9374 N   0  0  0  0  0  0  0  0  0  0  0  0
    4.6180   -1.0925   -1.9087 C   0  0  0  0  0  0  0  0  0  0  0  0
    5.2652   -0.6701   -0.7676 N   0  0  0  0  0  0  0  0  0  0  0  0
    5.6565   -1.6891    0.0442 N   0  0  0  0  0  0  0  0  0  0  0  0
    5.2115   -2.7818   -0.5368 C   0  0  0  0  0  0  0  0  0  0  0  0
    5.4026   -4.1151    0.0389 C   0  0  0  0  0  0  0  0  0  0  0  0
    4.5257   -5.1377   -0.0924 N   0  0  0  0  0  0  0  0  0  0  0  0
    5.0458   -6.2215    0.5962 C   0  0  0  0  0  0  0  0  0  0  0  0
    4.6302   -7.5369    0.8603 C   0  0  0  0  0  0  0  0  0  0  0  0
    5.4969   -8.3492    1.6124 C   0  0  0  0  0  0  0  0  0  0  0  0
    6.6890   -7.9178    2.0765 N   0  0  0  0  0  0  0  0  0  0  0  0
    7.0969   -6.6473    1.8324 C   0  0  0  0  0  0  0  0  0  0  0  0
    6.2919   -5.7512    1.0870 C   0  0  0  0  0  0  0  0  0  0  0  0
    6.5042   -4.4326    0.7260 N   0  0  0  0  0  0  0  0  0  0  0  0
    4.5547   -2.5023   -1.7839 C   0  0  0  0  0  0  0  0  0  0  0  0
    3.9233   -3.1696   -2.8498 C   0  0  0  0  0  0  0  0  0  0  0  0
    5.4333    0.3033   -0.5282 H   0  0  0  0  0  0  0  0  0  0  0  0
    3.6513   -5.0824   -0.5996 H   0  0  0  0  0  0  0  0  0  0  0  0
    2.8682   -2.9219   -4.7123 H   0  0  0  0  0  0  0  0  0  0  0  0
    3.1154   -0.4227   -4.7167 H   0  0  0  0  0  0  0  0  0  0  0  0
    3.6961   -7.9235    0.4915 H   0  0  0  0  0  0  0  0  0  0  0  0
    5.2367   -9.3742    1.8322 H   0  0  0  0  0  0  0  0  0  0  0  0
    8.0512   -6.3468    2.2369 H   0  0  0  0  0  0  0  0  0  0  0  0
    3.8434   -4.2445   -2.8529 H   0  0  0  0  0  0  0  0  0  0  0  0
  1  2  2  0
  1 21  1  0
  1 18  1  0
  2  3  1  0
  2 22  1  0
  3  4  2  0
  4  5  1  0
  4 17  1  0
  5  6  1  0
  5 19  1  0
  6  7  2  0
  7 17  1  0
  7  8  1  0
  8 16  2  0
  8  9  1  0
  9 20  1  0
  9 10  1  0
 10 15  2  0
 10 11  1  0
 11 23  1  0
 11 12  2  0
 12 24  1  0
 12 13  1  0
 13 14  2  0
 14 25  1  0
 14 15  1  0
 15 16  1  0
 17 18  2  0
 18 26  1  0
M  END
>  <i_m_ct_stereo_status>  (215) 
1

>  <s_m_source_file>  (215) 
/var/tmp/pbs.5076255.sched01/tmpagfdxo7m/88tnrj_5ym.sdf

>  <i_m_source_file_index>  (215) 
4

>  <i_lp_mmshare_version>  (215) 
48012

>  <i_f3d_flags>  (215) 
0

>  <s_epik_input>  (215) 
bjFbY0hdW2NIXVtjSF1jKGMxMiljKFtuSF1uMiktYyhuMylbbkhdYyhjMzQpW2NIXW5bY0hdW2NIXTQ=

>  <s_epik_cmdline>  (215) 
J2VwaWtfcHl0aG9uJywgJy1waHQnLCAnMi4wJywgJy1waCcsICc3LjAnLCAnLXRuJywgJzgnLCAnLW1hJywgJzIwMCcsICctaW1hZScsICc8aW5maWxlLm1hZT4nLCAnLW9tYWUnLCAnPG91dGZpbGUubWFlPic=

>  <r_lp_tautomer_probability>  (215) 
0.720826

>  <r_epik_Ionization_Penalty>  (215) 
0.101201

>  <r_epik_Ionization_Penalty_Charging>  (215) 
0.100823

>  <r_epik_Ionization_Penalty_Neutral>  (215) 
0.000377897

>  <r_epik_State_Penalty>  (215) 
0.889475

>  <r_epik_Charging_Adjusted_Penalty>  (215) 
0.990298

>  <i_epik_Tot_Q>  (215) 
0

>  <i_epik_Tot_abs_Q>  (215) 
0

>  <s_lp_Force_Field>  (215) 
OPLS3e

>  <r_lp_Energy>  (215) 
21.9759

>  <b_lp_Chiralities_Consistent>  (215) 
1

>  <s_lp_Variant>  (215) 
64:0-2

>  <s_i_glide_gridfile>  (215) 
pfpi4k_grid

>  <i_i_glide_lignum>  (215) 
4

>  <i_i_glide_rotatable_bonds>  (215) 
1

>  <r_i_docking_score>  (215) 
-4.95887

>  <r_i_glide_ligand_efficiency>  (215) 
-0.275493

>  <r_i_glide_ligand_efficiency_sa>  (215) 
-0.721996

>  <r_i_glide_ligand_efficiency_ln>  (215) 
-1.27465

>  <r_i_glide_gscore>  (215) 
-4.95887

>  <r_i_glide_lipo>  (215) 
-0.686271

>  <r_i_glide_hbond>  (215) 
-0.339453

>  <r_i_glide_metal>  (215) 
-0

>  <r_i_glide_rewards>  (215) 
-1.87896

>  <r_i_glide_evdw>  (215) 
-24.9662

>  <r_i_glide_ecoul>  (215) 
-6.7563

>  <r_i_glide_erotb>  (215) 
0.308452

>  <r_i_glide_esite>  (215) 
-0.100886

>  <r_i_glide_emodel>  (215) 
-40.1614

>  <r_i_glide_energy>  (215) 
-31.7225

>  <r_i_glide_einternal>  (215) 
3.50063

>  <r_i_glide_intrahb_reward>  (215) 
-0

>  <i_i_glide_confnum>  (215) 
4

>  <i_i_glide_posenum>  (215) 
10

>  <r_i_glide_eff_state_penalty>  (215) 
0

>  <ligand_id>  (215) 
64

>  <original_smiles>  (215) 
c1cnc2n[nH]c(-c3nc4ccncc4[nH]3)c2c1

>  <smiles>  (215) 
[H]c1nc2c(c(-c3nc4c([H])nc([H])c([H])c4n3[H])nn2[H])c([H])c1[H]

$$$$
64:1:1
     RDKit          3D

 26 29  0  0  1  0  0  0  0  0999 V2000
    4.9482   -7.8998    1.3749 C   0  0  0  0  0  0  0  0  0  0  0  0
    6.0477   -8.1326    2.2313 C   0  0  0  0  0  0  0  0  0  0  0  0
    7.0698   -7.2669    2.4033 N   0  0  0  0  0  0  0  0  0  0  0  0
    6.9696   -6.1213    1.6715 C   0  0  0  0  0  0  0  0  0  0  0  0
    7.8545   -5.0599    1.6207 N   0  0  0  0  0  0  0  0  0  0  0  0
    7.4656   -4.0580    0.7904 N   0  0  0  0  0  0  0  0  0  0  0  0
    6.3180   -4.4593    0.2906 C   0  0  0  0  0  0  0  0  0  0  0  0
    5.5724   -3.6666   -0.6896 C   0  0  0  0  0  0  0  0  0  0  0  0
    4.6295   -4.1641   -1.5194 N   0  0  0  0  0  0  0  0  0  0  0  0
    4.1525   -3.1161   -2.2866 C   0  0  0  0  0  0  0  0  0  0  0  0
    3.2083   -2.9773   -3.3164 C   0  0  0  0  0  0  0  0  0  0  0  0
    3.0169   -1.6856   -3.8372 C   0  0  0  0  0  0  0  0  0  0  0  0
    3.7110   -0.6106   -3.4118 N   0  0  0  0  0  0  0  0  0  0  0  0
    4.5985   -0.7376   -2.3962 C   0  0  0  0  0  0  0  0  0  0  0  0
    4.8715   -1.9937   -1.8114 C   0  0  0  0  0  0  0  0  0  0  0  0
    5.7693   -2.3504   -0.8221 N   0  0  0  0  0  0  0  0  0  0  0  0
    5.9265   -5.7513    0.7829 C   0  0  0  0  0  0  0  0  0  0  0  0
    4.8816   -6.6942    0.6467 C   0  0  0  0  0  0  0  0  0  0  0  0
    8.7056   -4.9830    2.1602 H   0  0  0  0  0  0  0  0  0  0  0  0
    4.3427   -5.1361   -1.5954 H   0  0  0  0  0  0  0  0  0  0  0  0
    4.1684   -8.6440    1.2872 H   0  0  0  0  0  0  0  0  0  0  0  0
    6.1069   -9.0492    2.8035 H   0  0  0  0  0  0  0  0  0  0  0  0
    2.6383   -3.8156   -3.6809 H   0  0  0  0  0  0  0  0  0  0  0  0
    2.2938   -1.4942   -4.6155 H   0  0  0  0  0  0  0  0  0  0  0  0
    5.1304    0.1361   -2.0866 H   0  0  0  0  0  0  0  0  0  0  0  0
    4.0510   -6.5065   -0.0159 H   0  0  0  0  0  0  0  0  0  0  0  0
  1  2  2  0
  1 21  1  0
  1 18  1  0
  2  3  1  0
  2 22  1  0
  3  4  2  0
  4  5  1  0
  4 17  1  0
  5  6  1  0
  5 19  1  0
  6  7  2  0
  7 17  1  0
  7  8  1  0
  8 16  2  0
  8  9  1  0
  9 20  1  0
  9 10  1  0
 10 15  2  0
 10 11  1  0
 11 23  1  0
 11 12  2  0
 12 24  1  0
 12 13  1  0
 13 14  2  0
 14 25  1  0
 14 15  1  0
 15 16  1  0
 17 18  2  0
 18 26  1  0
M  END
>  <i_m_ct_stereo_status>  (216) 
1

>  <s_m_source_file>  (216) 
/var/tmp/pbs.5076255.sched01/tmpagfdxo7m/88tnrj_5ym.sdf

>  <i_m_source_file_index>  (216) 
4

>  <i_lp_mmshare_version>  (216) 
48012

>  <i_f3d_flags>  (216) 
0

>  <s_epik_input>  (216) 
bjFbY0hdW2NIXVtjSF1jKGMxMiljKFtuSF1uMiktYyhuMylbbkhdYyhjMzQpW2NIXW5bY0hdW2NIXTQ=

>  <s_epik_cmdline>  (216) 
J2VwaWtfcHl0aG9uJywgJy1waHQnLCAnMi4wJywgJy1waCcsICc3LjAnLCAnLXRuJywgJzgnLCAnLW1hJywgJzIwMCcsICctaW1hZScsICc8aW5maWxlLm1hZT4nLCAnLW9tYWUnLCAnPG91dGZpbGUubWFlPic=

>  <r_lp_tautomer_probability>  (216) 
0.720826

>  <r_epik_Ionization_Penalty>  (216) 
0.101201

>  <r_epik_Ionization_Penalty_Charging>  (216) 
0.100823

>  <r_epik_Ionization_Penalty_Neutral>  (216) 
0.000377897

>  <r_epik_State_Penalty>  (216) 
0.889475

>  <r_epik_Charging_Adjusted_Penalty>  (216) 
0.990298

>  <i_epik_Tot_Q>  (216) 
0

>  <i_epik_Tot_abs_Q>  (216) 
0

>  <s_lp_Force_Field>  (216) 
OPLS3e

>  <r_lp_Energy>  (216) 
21.9759

>  <b_lp_Chiralities_Consistent>  (216) 
1

>  <s_lp_Variant>  (216) 
64:0-2

>  <s_i_glide_gridfile>  (216) 
pfpi4k_grid

>  <i_i_glide_lignum>  (216) 
4

>  <i_i_glide_rotatable_bonds>  (216) 
1

>  <r_i_docking_score>  (216) 
-4.60127

>  <r_i_glide_ligand_efficiency>  (216) 
-0.255626

>  <r_i_glide_ligand_efficiency_sa>  (216) 
-0.669929

>  <r_i_glide_ligand_efficiency_ln>  (216) 
-1.18273

>  <r_i_glide_gscore>  (216) 
-4.60127

>  <r_i_glide_lipo>  (216) 
-0.680209

>  <r_i_glide_hbond>  (216) 
-0.22982

>  <r_i_glide_metal>  (216) 
-0

>  <r_i_glide_rewards>  (216) 
-1.98181

>  <r_i_glide_evdw>  (216) 
-24.645

>  <r_i_glide_ecoul>  (216) 
-4.98477

>  <r_i_glide_erotb>  (216) 
0.308452

>  <r_i_glide_esite>  (216) 
-0.0379119

>  <r_i_glide_emodel>  (216) 
-37.7463

>  <r_i_glide_energy>  (216) 
-29.6298

>  <r_i_glide_einternal>  (216) 
2.72598

>  <r_i_glide_intrahb_reward>  (216) 
-0

>  <i_i_glide_confnum>  (216) 
2

>  <i_i_glide_posenum>  (216) 
15

>  <r_i_glide_eff_state_penalty>  (216) 
0

>  <ligand_id>  (216) 
64

>  <original_smiles>  (216) 
c1cnc2n[nH]c(-c3nc4ccncc4[nH]3)c2c1

>  <smiles>  (216) 
[H]c1nc2c(c(-c3nc4c([H])nc([H])c([H])c4n3[H])nn2[H])c([H])c1[H]

$$$$
64:1:2
     RDKit          3D

 26 29  0  0  1  0  0  0  0  0999 V2000
    1.3269    1.3316    2.7435 C   0  0  0  0  0  0  0  0  0  0  0  0
    1.8927    1.6687    3.9908 C   0  0  0  0  0  0  0  0  0  0  0  0
    3.1196    1.2686    4.3982 N   0  0  0  0  0  0  0  0  0  0  0  0
    3.7986    0.5123    3.4933 C   0  0  0  0  0  0  0  0  0  0  0  0
    5.0632   -0.0313    3.6141 N   0  0  0  0  0  0  0  0  0  0  0  0
    5.4576   -0.7329    2.5234 N   0  0  0  0  0  0  0  0  0  0  0  0
    4.4507   -0.6579    1.6808 C   0  0  0  0  0  0  0  0  0  0  0  0
    4.4800   -1.3094    0.3661 C   0  0  0  0  0  0  0  0  0  0  0  0
    3.4156   -1.4138   -0.4649 N   0  0  0  0  0  0  0  0  0  0  0  0
    3.8369   -2.0885   -1.5933 C   0  0  0  0  0  0  0  0  0  0  0  0
    3.2298   -2.5037   -2.7838 C   0  0  0  0  0  0  0  0  0  0  0  0
    4.0325   -3.1988   -3.7031 C   0  0  0  0  0  0  0  0  0  0  0  0
    5.3385   -3.4597   -3.4857 N   0  0  0  0  0  0  0  0  0  0  0  0
    5.9330   -3.0575   -2.3379 C   0  0  0  0  0  0  0  0  0  0  0  0
    5.2079   -2.3537   -1.3462 C   0  0  0  0  0  0  0  0  0  0  0  0
    5.6035   -1.8478   -0.1240 N   0  0  0  0  0  0  0  0  0  0  0  0
    3.3577    0.1067    2.2095 C   0  0  0  0  0  0  0  0  0  0  0  0
    2.0661    0.5402    1.8427 C   0  0  0  0  0  0  0  0  0  0  0  0
    5.6711    0.0703    4.4112 H   0  0  0  0  0  0  0  0  0  0  0  0
    2.4698   -1.0656   -0.3079 H   0  0  0  0  0  0  0  0  0  0  0  0
    0.3419    1.6828    2.4689 H   0  0  0  0  0  0  0  0  0  0  0  0
    1.3319    2.2765    4.6916 H   0  0  0  0  0  0  0  0  0  0  0  0
    2.1897   -2.3042   -2.9885 H   0  0  0  0  0  0  0  0  0  0  0  0
    3.6282   -3.5366   -4.6464 H   0  0  0  0  0  0  0  0  0  0  0  0
    6.9778   -3.2931   -2.2068 H   0  0  0  0  0  0  0  0  0  0  0  0
    1.6395    0.2813    0.8857 H   0  0  0  0  0  0  0  0  0  0  0  0
  1  2  2  0
  1 21  1  0
  1 18  1  0
  2  3  1  0
  2 22  1  0
  3  4  2  0
  4  5  1  0
  4 17  1  0
  5  6  1  0
  5 19  1  0
  6  7  2  0
  7 17  1  0
  7  8  1  0
  8 16  2  0
  8  9  1  0
  9 20  1  0
  9 10  1  0
 10 15  2  0
 10 11  1  0
 11 23  1  0
 11 12  2  0
 12 24  1  0
 12 13  1  0
 13 14  2  0
 14 25  1  0
 14 15  1  0
 15 16  1  0
 17 18  2  0
 18 26  1  0
M  END
>  <i_m_ct_stereo_status>  (217) 
1

>  <s_m_source_file>  (217) 
/var/tmp/pbs.5076255.sched01/tmpagfdxo7m/88tnrj_5ym.sdf

>  <i_m_source_file_index>  (217) 
4

>  <i_lp_mmshare_version>  (217) 
48012

>  <i_f3d_flags>  (217) 
0

>  <s_epik_input>  (217) 
bjFbY0hdW2NIXVtjSF1jKGMxMiljKFtuSF1uMiktYyhuMylbbkhdYyhjMzQpW2NIXW5bY0hdW2NIXTQ=

>  <s_epik_cmdline>  (217) 
J2VwaWtfcHl0aG9uJywgJy1waHQnLCAnMi4wJywgJy1waCcsICc3LjAnLCAnLXRuJywgJzgnLCAnLW1hJywgJzIwMCcsICctaW1hZScsICc8aW5maWxlLm1hZT4nLCAnLW9tYWUnLCAnPG91dGZpbGUubWFlPic=

>  <r_lp_tautomer_probability>  (217) 
0.720826

>  <r_epik_Ionization_Penalty>  (217) 
0.101201

>  <r_epik_Ionization_Penalty_Charging>  (217) 
0.100823

>  <r_epik_Ionization_Penalty_Neutral>  (217) 
0.000377897

>  <r_epik_State_Penalty>  (217) 
0.889475

>  <r_epik_Charging_Adjusted_Penalty>  (217) 
0.990298

>  <i_epik_Tot_Q>  (217) 
0

>  <i_epik_Tot_abs_Q>  (217) 
0

>  <s_lp_Force_Field>  (217) 
OPLS3e

>  <r_lp_Energy>  (217) 
21.9759

>  <b_lp_Chiralities_Consistent>  (217) 
1

>  <s_lp_Variant>  (217) 
64:0-2

>  <s_i_glide_gridfile>  (217) 
pfpi4k_grid

>  <i_i_glide_lignum>  (217) 
4

>  <i_i_glide_rotatable_bonds>  (217) 
1

>  <r_i_docking_score>  (217) 
-4.20361

>  <r_i_glide_ligand_efficiency>  (217) 
-0.233534

>  <r_i_glide_ligand_efficiency_sa>  (217) 
-0.612032

>  <r_i_glide_ligand_efficiency_ln>  (217) 
-1.08052

>  <r_i_glide_gscore>  (217) 
-4.20361

>  <r_i_glide_lipo>  (217) 
-0.474377

>  <r_i_glide_hbond>  (217) 
-0.159323

>  <r_i_glide_metal>  (217) 
-0

>  <r_i_glide_rewards>  (217) 
-1.79842

>  <r_i_glide_evdw>  (217) 
-24.8454

>  <r_i_glide_ecoul>  (217) 
-4.83188

>  <r_i_glide_erotb>  (217) 
0.308452

>  <r_i_glide_esite>  (217) 
-0.112893

>  <r_i_glide_emodel>  (217) 
-37.1245

>  <r_i_glide_energy>  (217) 
-29.6773

>  <r_i_glide_einternal>  (217) 
2.43722

>  <r_i_glide_intrahb_reward>  (217) 
-0

>  <i_i_glide_confnum>  (217) 
2

>  <i_i_glide_posenum>  (217) 
1

>  <r_i_glide_eff_state_penalty>  (217) 
0

>  <ligand_id>  (217) 
64

>  <original_smiles>  (217) 
c1cnc2n[nH]c(-c3nc4ccncc4[nH]3)c2c1

>  <smiles>  (217) 
[H]c1nc2c(c(-c3nc4c([H])nc([H])c([H])c4n3[H])nn2[H])c([H])c1[H]

$$$$
64:2:0
     RDKit          3D

 27 30  0  0  1  0  0  0  0  0999 V2000
    4.7390   -7.8312    1.2466 C   0  0  0  0  0  0  0  0  0  0  0  0
    5.2098   -7.8283    2.5776 C   0  0  0  0  0  0  0  0  0  0  0  0
    5.4773   -6.7085    3.2831 N   0  0  0  0  0  0  0  0  0  0  0  0
    5.2546   -5.5497    2.6089 C   0  0  0  0  0  0  0  0  0  0  0  0
    5.4233   -4.2580    3.0657 N   0  0  0  0  0  0  0  0  0  0  0  0
    5.1367   -3.3118    2.1389 N   0  0  0  0  0  0  0  0  0  0  0  0
    4.7509   -3.9757    1.0754 C   0  0  0  0  0  0  0  0  0  0  0  0
    4.3172   -3.2933   -0.1444 C   0  0  0  0  0  0  0  0  0  0  0  0
    4.7154   -2.0515   -0.4397 N   0  0  0  0  0  0  0  0  0  0  0  0
    4.1014   -1.8046   -1.6499 C   0  0  0  0  0  0  0  0  0  0  0  0
    4.1255   -0.6703   -2.4827 C   0  0  0  0  0  0  0  0  0  0  0  0
    3.4064   -0.6653   -3.6945 C   0  0  0  0  0  0  0  0  0  0  0  0
    2.7116   -1.7669   -4.0659 N   0  0  0  0  0  0  0  0  0  0  0  0
    2.6563   -2.8829   -3.3088 C   0  0  0  0  0  0  0  0  0  0  0  0
    3.3446   -2.9216   -2.0861 C   0  0  0  0  0  0  0  0  0  0  0  0
    3.5260   -3.8548   -1.0819 N   0  0  0  0  0  0  0  0  0  0  0  0
    4.7907   -5.4000    1.2748 C   0  0  0  0  0  0  0  0  0  0  0  0
    4.5331   -6.6044    0.5853 C   0  0  0  0  0  0  0  0  0  0  0  0
    5.7654   -3.9917    3.9786 H   0  0  0  0  0  0  0  0  0  0  0  0
    3.1698   -4.8009   -1.0750 H   0  0  0  0  0  0  0  0  0  0  0  0
    4.5457   -8.7698    0.7465 H   0  0  0  0  0  0  0  0  0  0  0  0
    5.3747   -8.7644    3.0950 H   0  0  0  0  0  0  0  0  0  0  0  0
    4.6669    0.1958   -2.1537 H   0  0  0  0  0  0  0  0  0  0  0  0
    3.3503    0.1882   -4.3517 H   0  0  0  0  0  0  0  0  0  0  0  0
    2.0633   -3.6997   -3.6956 H   0  0  0  0  0  0  0  0  0  0  0  0
    4.1883   -6.5913   -0.4350 H   0  0  0  0  0  0  0  0  0  0  0  0
    2.1894   -1.7520   -4.9531 H   0  0  0  0  0  0  0  0  0  0  0  0
  1  2  2  0
  1 21  1  0
  1 18  1  0
  2  3  1  0
  2 22  1  0
  3  4  2  0
  4  5  1  0
  4 17  1  0
  5  6  1  0
  5 19  1  0
  6  7  2  0
  7 17  1  0
  7  8  1  0
  8 16  1  0
  8  9  2  0
  9 10  1  0
 10 15  2  0
 10 11  1  0
 11 12  2  0
 11 23  1  0
 12 13  1  0
 12 24  1  0
 13 14  2  0
 13 27  1  0
 14 15  1  0
 14 25  1  0
 15 16  1  0
 16 20  1  0
 17 18  2  0
 18 26  1  0
M  CHG  1  13   1
M  END
>  <i_m_ct_stereo_status>  (218) 
1

>  <s_m_source_file>  (218) 
/var/tmp/pbs.5076255.sched01/tmpagfdxo7m/88tnrj_5ym.sdf

>  <i_m_source_file_index>  (218) 
5

>  <i_lp_mmshare_version>  (218) 
48012

>  <i_f3d_flags>  (218) 
0

>  <s_epik_input>  (218) 
bjFbY0hdW2NIXVtjSF1jKGMxMiljKFtuSF1uMiktYyhuMylbbkhdYyhjMzQpW2NIXW5bY0hdW2NIXTQ=

>  <s_epik_cmdline>  (218) 
J2VwaWtfcHl0aG9uJywgJy1waHQnLCAnMi4wJywgJy1waCcsICc3LjAnLCAnLXRuJywgJzgnLCAnLW1hJywgJzIwMCcsICctaW1hZScsICc8aW5maWxlLm1hZT4nLCAnLW9tYWUnLCAnPG91dGZpbGUubWFlPic=

>  <r_lp_tautomer_probability>  (218) 
0.108191

>  <r_epik_Ionization_Penalty>  (218) 
1.84625

>  <r_epik_Ionization_Penalty_Charging>  (218) 
0.000194306

>  <r_epik_Ionization_Penalty_Neutral>  (218) 
1.84605

>  <r_epik_State_Penalty>  (218) 
1.54184

>  <r_epik_Charging_Adjusted_Penalty>  (218) 
1.54204

>  <i_epik_Tot_Q>  (218) 
1

>  <i_epik_Tot_abs_Q>  (218) 
1

>  <s_lp_Force_Field>  (218) 
OPLS3e

>  <r_lp_Energy>  (218) 
26.7581

>  <b_lp_Chiralities_Consistent>  (218) 
1

>  <s_lp_Variant>  (218) 
64:0-3

>  <s_i_glide_gridfile>  (218) 
pfpi4k_grid

>  <i_i_glide_lignum>  (218) 
5

>  <i_i_glide_rotatable_bonds>  (218) 
1

>  <r_i_docking_score>  (218) 
-5.1283

>  <r_i_glide_ligand_efficiency>  (218) 
-0.284906

>  <r_i_glide_ligand_efficiency_sa>  (218) 
-0.746664

>  <r_i_glide_ligand_efficiency_ln>  (218) 
-1.3182

>  <r_i_glide_gscore>  (218) 
-5.1283

>  <r_i_glide_lipo>  (218) 
-0.745525

>  <r_i_glide_hbond>  (218) 
-0.192207

>  <r_i_glide_metal>  (218) 
-0

>  <r_i_glide_rewards>  (218) 
-1.84059

>  <r_i_glide_evdw>  (218) 
-20.375

>  <r_i_glide_ecoul>  (218) 
-10.8367

>  <r_i_glide_erotb>  (218) 
0.306224

>  <r_i_glide_esite>  (218) 
-0.0119479

>  <r_i_glide_emodel>  (218) 
-42.6687

>  <r_i_glide_energy>  (218) 
-31.2117

>  <r_i_glide_einternal>  (218) 
2.80798

>  <r_i_glide_intrahb_reward>  (218) 
-0

>  <i_i_glide_confnum>  (218) 
2

>  <i_i_glide_posenum>  (218) 
10

>  <r_i_glide_eff_state_penalty>  (218) 
0

>  <ligand_id>  (218) 
64

>  <original_smiles>  (218) 
c1cnc2n[nH]c(-c3nc4ccncc4[nH]3)c2c1

>  <smiles>  (218) 
[H]c1nc2c(c(-c3nc4c([H])c([H])[n+]([H])c([H])c4n3[H])nn2[H])c([H])c1[H]

$$$$
64:2:1
     RDKit          3D

 27 30  0  0  1  0  0  0  0  0999 V2000
    3.9474   -4.5731    0.4136 C   0  0  0  0  0  0  0  0  0  0  0  0
    5.3235   -4.6489    0.1096 C   0  0  0  0  0  0  0  0  0  0  0  0
    6.1929   -3.6256    0.2628 N   0  0  0  0  0  0  0  0  0  0  0  0
    5.6359   -2.4812    0.7484 C   0  0  0  0  0  0  0  0  0  0  0  0
    6.2568   -1.2723    0.9997 N   0  0  0  0  0  0  0  0  0  0  0  0
    5.4113   -0.3082    1.4459 N   0  0  0  0  0  0  0  0  0  0  0  0
    4.2436   -0.8979    1.5415 C   0  0  0  0  0  0  0  0  0  0  0  0
    3.0524   -0.1762    1.9894 C   0  0  0  0  0  0  0  0  0  0  0  0
    1.9199   -0.7864    2.3484 N   0  0  0  0  0  0  0  0  0  0  0  0
    1.1044    0.2692    2.7197 C   0  0  0  0  0  0  0  0  0  0  0  0
   -0.2157    0.2955    3.2204 C   0  0  0  0  0  0  0  0  0  0  0  0
   -0.8350    1.5311    3.5200 C   0  0  0  0  0  0  0  0  0  0  0  0
   -0.1528    2.6877    3.3557 N   0  0  0  0  0  0  0  0  0  0  0  0
    1.1176    2.7133    2.8994 C   0  0  0  0  0  0  0  0  0  0  0  0
    1.7666    1.5132    2.5695 C   0  0  0  0  0  0  0  0  0  0  0  0
    3.0141    1.1664    2.0940 N   0  0  0  0  0  0  0  0  0  0  0  0
    4.2791   -2.2641    1.0984 C   0  0  0  0  0  0  0  0  0  0  0  0
    3.4173   -3.3640    0.9128 C   0  0  0  0  0  0  0  0  0  0  0  0
    7.2422   -1.0805    0.8896 H   0  0  0  0  0  0  0  0  0  0  0  0
    3.7984    1.7754    1.8898 H   0  0  0  0  0  0  0  0  0  0  0  0
    3.3138   -5.4327    0.2561 H   0  0  0  0  0  0  0  0  0  0  0  0
    5.7390   -5.5714   -0.2759 H   0  0  0  0  0  0  0  0  0  0  0  0
   -0.7388   -0.6351    3.3497 H   0  0  0  0  0  0  0  0  0  0  0  0
   -1.8530    1.6198    3.8704 H   0  0  0  0  0  0  0  0  0  0  0  0
    1.5558    3.6907    2.7711 H   0  0  0  0  0  0  0  0  0  0  0  0
    2.3677   -3.2774    1.1419 H   0  0  0  0  0  0  0  0  0  0  0  0
   -0.6123    3.5800    3.5416 H   0  0  0  0  0  0  0  0  0  0  0  0
  1  2  2  0
  1 21  1  0
  1 18  1  0
  2  3  1  0
  2 22  1  0
  3  4  2  0
  4  5  1  0
  4 17  1  0
  5  6  1  0
  5 19  1  0
  6  7  2  0
  7 17  1  0
  7  8  1  0
  8 16  1  0
  8  9  2  0
  9 10  1  0
 10 15  2  0
 10 11  1  0
 11 12  2  0
 11 23  1  0
 12 13  1  0
 12 24  1  0
 13 14  2  0
 13 27  1  0
 14 15  1  0
 14 25  1  0
 15 16  1  0
 16 20  1  0
 17 18  2  0
 18 26  1  0
M  CHG  1  13   1
M  END
>  <i_m_ct_stereo_status>  (219) 
1

>  <s_m_source_file>  (219) 
/var/tmp/pbs.5076255.sched01/tmpagfdxo7m/88tnrj_5ym.sdf

>  <i_m_source_file_index>  (219) 
5

>  <i_lp_mmshare_version>  (219) 
48012

>  <i_f3d_flags>  (219) 
0

>  <s_epik_input>  (219) 
bjFbY0hdW2NIXVtjSF1jKGMxMiljKFtuSF1uMiktYyhuMylbbkhdYyhjMzQpW2NIXW5bY0hdW2NIXTQ=

>  <s_epik_cmdline>  (219) 
J2VwaWtfcHl0aG9uJywgJy1waHQnLCAnMi4wJywgJy1waCcsICc3LjAnLCAnLXRuJywgJzgnLCAnLW1hJywgJzIwMCcsICctaW1hZScsICc8aW5maWxlLm1hZT4nLCAnLW9tYWUnLCAnPG91dGZpbGUubWFlPic=

>  <r_lp_tautomer_probability>  (219) 
0.108191

>  <r_epik_Ionization_Penalty>  (219) 
1.84625

>  <r_epik_Ionization_Penalty_Charging>  (219) 
0.000194306

>  <r_epik_Ionization_Penalty_Neutral>  (219) 
1.84605

>  <r_epik_State_Penalty>  (219) 
1.54184

>  <r_epik_Charging_Adjusted_Penalty>  (219) 
1.54204

>  <i_epik_Tot_Q>  (219) 
1

>  <i_epik_Tot_abs_Q>  (219) 
1

>  <s_lp_Force_Field>  (219) 
OPLS3e

>  <r_lp_Energy>  (219) 
26.7581

>  <b_lp_Chiralities_Consistent>  (219) 
1

>  <s_lp_Variant>  (219) 
64:0-3

>  <s_i_glide_gridfile>  (219) 
pfpi4k_grid

>  <i_i_glide_lignum>  (219) 
5

>  <i_i_glide_rotatable_bonds>  (219) 
1

>  <r_i_docking_score>  (219) 
-4.23028

>  <r_i_glide_ligand_efficiency>  (219) 
-0.235015

>  <r_i_glide_ligand_efficiency_sa>  (219) 
-0.615914

>  <r_i_glide_ligand_efficiency_ln>  (219) 
-1.08737

>  <r_i_glide_gscore>  (219) 
-4.23028

>  <r_i_glide_lipo>  (219) 
-0.126993

>  <r_i_glide_hbond>  (219) 
-0.47832

>  <r_i_glide_metal>  (219) 
-0

>  <r_i_glide_rewards>  (219) 
-1.87029

>  <r_i_glide_evdw>  (219) 
-19.276

>  <r_i_glide_ecoul>  (219) 
-6.78417

>  <r_i_glide_erotb>  (219) 
0.306224

>  <r_i_glide_esite>  (219) 
-0.0794706

>  <r_i_glide_emodel>  (219) 
-36.2548

>  <r_i_glide_energy>  (219) 
-26.0601

>  <r_i_glide_einternal>  (219) 
0.771482

>  <r_i_glide_intrahb_reward>  (219) 
-0

>  <i_i_glide_confnum>  (219) 
3

>  <i_i_glide_posenum>  (219) 
24

>  <r_i_glide_eff_state_penalty>  (219) 
0

>  <ligand_id>  (219) 
64

>  <original_smiles>  (219) 
c1cnc2n[nH]c(-c3nc4ccncc4[nH]3)c2c1

>  <smiles>  (219) 
[H]c1nc2c(c(-c3nc4c([H])c([H])[n+]([H])c([H])c4n3[H])nn2[H])c([H])c1[H]

$$$$
64:2:2
     RDKit          3D

 27 30  0  0  1  0  0  0  0  0999 V2000
    6.6186   -5.4585    0.8812 C   0  0  0  0  0  0  0  0  0  0  0  0
    6.2922   -4.2704    0.1925 C   0  0  0  0  0  0  0  0  0  0  0  0
    5.0349   -3.8991   -0.1291 N   0  0  0  0  0  0  0  0  0  0  0  0
    4.0714   -4.7731    0.2727 C   0  0  0  0  0  0  0  0  0  0  0  0
    2.7037   -4.6642    0.1038 N   0  0  0  0  0  0  0  0  0  0  0  0
    2.0045   -5.7030    0.6363 N   0  0  0  0  0  0  0  0  0  0  0  0
    2.9165   -6.5005    1.1492 C   0  0  0  0  0  0  0  0  0  0  0  0
    2.5652   -7.7589    1.8075 C   0  0  0  0  0  0  0  0  0  0  0  0
    1.4190   -7.8993    2.4802 N   0  0  0  0  0  0  0  0  0  0  0  0
    1.4765   -9.1986    2.9410 C   0  0  0  0  0  0  0  0  0  0  0  0
    0.5669   -9.9513    3.7158 C   0  0  0  0  0  0  0  0  0  0  0  0
    0.8705  -11.2873    4.0584 C   0  0  0  0  0  0  0  0  0  0  0  0
    2.0213  -11.8549    3.6305 N   0  0  0  0  0  0  0  0  0  0  0  0
    2.9303  -11.1726    2.8958 C   0  0  0  0  0  0  0  0  0  0  0  0
    2.6813   -9.8358    2.5408 C   0  0  0  0  0  0  0  0  0  0  0  0
    3.3491   -8.8591    1.8180 N   0  0  0  0  0  0  0  0  0  0  0  0
    4.2489   -5.9983    0.9702 C   0  0  0  0  0  0  0  0  0  0  0  0
    5.5877   -6.3312    1.2772 C   0  0  0  0  0  0  0  0  0  0  0  0
    2.2306   -3.9117   -0.3806 H   0  0  0  0  0  0  0  0  0  0  0  0
    4.2334   -8.9458    1.3393 H   0  0  0  0  0  0  0  0  0  0  0  0
    7.6487   -5.6925    1.1049 H   0  0  0  0  0  0  0  0  0  0  0  0
    7.0738   -3.5943   -0.1189 H   0  0  0  0  0  0  0  0  0  0  0  0
   -0.3628   -9.5106    4.0422 H   0  0  0  0  0  0  0  0  0  0  0  0
    0.2115  -11.9125    4.6464 H   0  0  0  0  0  0  0  0  0  0  0  0
    3.8033  -11.7266    2.5847 H   0  0  0  0  0  0  0  0  0  0  0  0
    5.8178   -7.2355    1.8170 H   0  0  0  0  0  0  0  0  0  0  0  0
    2.1917  -12.8450    3.8411 H   0  0  0  0  0  0  0  0  0  0  0  0
  1  2  2  0
  1 21  1  0
  1 18  1  0
  2  3  1  0
  2 22  1  0
  3  4  2  0
  4  5  1  0
  4 17  1  0
  5  6  1  0
  5 19  1  0
  6  7  2  0
  7 17  1  0
  7  8  1  0
  8 16  1  0
  8  9  2  0
  9 10  1  0
 10 15  2  0
 10 11  1  0
 11 12  2  0
 11 23  1  0
 12 13  1  0
 12 24  1  0
 13 14  2  0
 13 27  1  0
 14 15  1  0
 14 25  1  0
 15 16  1  0
 16 20  1  0
 17 18  2  0
 18 26  1  0
M  CHG  1  13   1
M  END
>  <i_m_ct_stereo_status>  (220) 
1

>  <s_m_source_file>  (220) 
/var/tmp/pbs.5076255.sched01/tmpagfdxo7m/88tnrj_5ym.sdf

>  <i_m_source_file_index>  (220) 
5

>  <i_lp_mmshare_version>  (220) 
48012

>  <i_f3d_flags>  (220) 
0

>  <s_epik_input>  (220) 
bjFbY0hdW2NIXVtjSF1jKGMxMiljKFtuSF1uMiktYyhuMylbbkhdYyhjMzQpW2NIXW5bY0hdW2NIXTQ=

>  <s_epik_cmdline>  (220) 
J2VwaWtfcHl0aG9uJywgJy1waHQnLCAnMi4wJywgJy1waCcsICc3LjAnLCAnLXRuJywgJzgnLCAnLW1hJywgJzIwMCcsICctaW1hZScsICc8aW5maWxlLm1hZT4nLCAnLW9tYWUnLCAnPG91dGZpbGUubWFlPic=

>  <r_lp_tautomer_probability>  (220) 
0.108191

>  <r_epik_Ionization_Penalty>  (220) 
1.84625

>  <r_epik_Ionization_Penalty_Charging>  (220) 
0.000194306

>  <r_epik_Ionization_Penalty_Neutral>  (220) 
1.84605

>  <r_epik_State_Penalty>  (220) 
1.54184

>  <r_epik_Charging_Adjusted_Penalty>  (220) 
1.54204

>  <i_epik_Tot_Q>  (220) 
1

>  <i_epik_Tot_abs_Q>  (220) 
1

>  <s_lp_Force_Field>  (220) 
OPLS3e

>  <r_lp_Energy>  (220) 
26.7581

>  <b_lp_Chiralities_Consistent>  (220) 
1

>  <s_lp_Variant>  (220) 
64:0-3

>  <s_i_glide_gridfile>  (220) 
pfpi4k_grid

>  <i_i_glide_lignum>  (220) 
5

>  <i_i_glide_rotatable_bonds>  (220) 
1

>  <r_i_docking_score>  (220) 
-4.07377

>  <r_i_glide_ligand_efficiency>  (220) 
-0.226321

>  <r_i_glide_ligand_efficiency_sa>  (220) 
-0.593128

>  <r_i_glide_ligand_efficiency_ln>  (220) 
-1.04714

>  <r_i_glide_gscore>  (220) 
-4.07377

>  <r_i_glide_lipo>  (220) 
-0.457827

>  <r_i_glide_hbond>  (220) 
-0.032066

>  <r_i_glide_metal>  (220) 
-0

>  <r_i_glide_rewards>  (220) 
-1.80765

>  <r_i_glide_evdw>  (220) 
-20.5729

>  <r_i_glide_ecoul>  (220) 
-6.33383

>  <r_i_glide_erotb>  (220) 
0.306224

>  <r_i_glide_esite>  (220) 
-0.103729

>  <r_i_glide_emodel>  (220) 
-35.4317

>  <r_i_glide_energy>  (220) 
-26.9067

>  <r_i_glide_einternal>  (220) 
3.33124

>  <r_i_glide_intrahb_reward>  (220) 
-0

>  <i_i_glide_confnum>  (220) 
2

>  <i_i_glide_posenum>  (220) 
40

>  <r_i_glide_eff_state_penalty>  (220) 
0

>  <ligand_id>  (220) 
64

>  <original_smiles>  (220) 
c1cnc2n[nH]c(-c3nc4ccncc4[nH]3)c2c1

>  <smiles>  (220) 
[H]c1nc2c(c(-c3nc4c([H])c([H])[n+]([H])c([H])c4n3[H])nn2[H])c([H])c1[H]

$$$$
64:3:0
     RDKit          3D

 26 29  0  0  1  0  0  0  0  0999 V2000
    3.0001   -3.0574   -3.2971 C   0  0  0  0  0  0  0  0  0  0  0  0
    4.1579   -3.5530   -3.9206 C   0  0  0  0  0  0  0  0  0  0  0  0
    5.4062   -3.4564   -3.4236 N   0  0  0  0  0  0  0  0  0  0  0  0
    5.4799   -2.8438   -2.2175 C   0  0  0  0  0  0  0  0  0  0  0  0
    6.6088   -2.6059   -1.4640 N   0  0  0  0  0  0  0  0  0  0  0  0
    6.3519   -1.9463   -0.3045 N   0  0  0  0  0  0  0  0  0  0  0  0
    5.0440   -1.7755   -0.2849 C   0  0  0  0  0  0  0  0  0  0  0  0
    4.3517   -1.1105    0.8256 C   0  0  0  0  0  0  0  0  0  0  0  0
    5.0072   -0.7517    1.9345 N   0  0  0  0  0  0  0  0  0  0  0  0
    4.0246   -0.1822    2.7175 C   0  0  0  0  0  0  0  0  0  0  0  0
    4.0816    0.3861    4.0012 C   0  0  0  0  0  0  0  0  0  0  0  0
    2.9032    0.9179    4.5583 C   0  0  0  0  0  0  0  0  0  0  0  0
    1.7106    0.8997    3.9233 N   0  0  0  0  0  0  0  0  0  0  0  0
    1.6396    0.3595    2.6861 C   0  0  0  0  0  0  0  0  0  0  0  0
    2.7705   -0.1927    2.0616 C   0  0  0  0  0  0  0  0  0  0  0  0
    3.0298   -0.8119    0.8537 N   0  0  0  0  0  0  0  0  0  0  0  0
    4.4133   -2.3001   -1.4627 C   0  0  0  0  0  0  0  0  0  0  0  0
    3.1322   -2.4372   -2.0422 C   0  0  0  0  0  0  0  0  0  0  0  0
    7.5472   -2.8975   -1.7100 H   0  0  0  0  0  0  0  0  0  0  0  0
    2.3492   -0.9807    0.1093 H   0  0  0  0  0  0  0  0  0  0  0  0
    2.0241   -3.1718   -3.7516 H   0  0  0  0  0  0  0  0  0  0  0  0
    4.0929   -4.0441   -4.8742 H   0  0  0  0  0  0  0  0  0  0  0  0
    5.0164    0.4219    4.5317 H   0  0  0  0  0  0  0  0  0  0  0  0
    2.9209    1.3671    5.5388 H   0  0  0  0  0  0  0  0  0  0  0  0
    0.6769    0.3674    2.2006 H   0  0  0  0  0  0  0  0  0  0  0  0
    2.2501   -2.0922   -1.5427 H   0  0  0  0  0  0  0  0  0  0  0  0
  1  2  2  0
  1 21  1  0
  1 18  1  0
  2  3  1  0
  2 22  1  0
  3  4  2  0
  4  5  1  0
  4 17  1  0
  5  6  1  0
  5 19  1  0
  6  7  2  0
  7 17  1  0
  7  8  1  0
  8 16  1  0
  8  9  2  0
  9 10  1  0
 10 15  2  0
 10 11  1  0
 11 12  2  0
 11 23  1  0
 12 13  1  0
 12 24  1  0
 13 14  2  0
 14 15  1  0
 14 25  1  0
 15 16  1  0
 16 20  1  0
 17 18  2  0
 18 26  1  0
M  END
>  <i_m_ct_stereo_status>  (221) 
1

>  <s_m_source_file>  (221) 
/var/tmp/pbs.5076255.sched01/tmpagfdxo7m/88tnrj_5ym.sdf

>  <i_m_source_file_index>  (221) 
6

>  <i_lp_mmshare_version>  (221) 
48012

>  <i_f3d_flags>  (221) 
0

>  <s_epik_input>  (221) 
bjFbY0hdW2NIXVtjSF1jKGMxMiljKFtuSF1uMiktYyhuMylbbkhdYyhjMzQpW2NIXW5bY0hdW2NIXTQ=

>  <s_epik_cmdline>  (221) 
J2VwaWtfcHl0aG9uJywgJy1waHQnLCAnMi4wJywgJy1waCcsICc3LjAnLCAnLXRuJywgJzgnLCAnLW1hJywgJzIwMCcsICctaW1hZScsICc8aW5maWxlLm1hZT4nLCAnLW9tYWUnLCAnPG91dGZpbGUubWFlPic=

>  <r_lp_tautomer_probability>  (221) 
0.1796

>  <r_epik_Ionization_Penalty>  (221) 
0.0299724

>  <r_epik_Ionization_Penalty_Charging>  (221) 
0.028716

>  <r_epik_Ionization_Penalty_Neutral>  (221) 
0.00125642

>  <r_epik_State_Penalty>  (221) 
1.70402

>  <r_epik_Charging_Adjusted_Penalty>  (221) 
1.73274

>  <i_epik_Tot_Q>  (221) 
0

>  <i_epik_Tot_abs_Q>  (221) 
0

>  <s_lp_Force_Field>  (221) 
OPLS3e

>  <r_lp_Energy>  (221) 
21.906

>  <b_lp_Chiralities_Consistent>  (221) 
1

>  <s_lp_Variant>  (221) 
64:0-4

>  <s_i_glide_gridfile>  (221) 
pfpi4k_grid

>  <i_i_glide_lignum>  (221) 
6

>  <i_i_glide_rotatable_bonds>  (221) 
1

>  <r_i_docking_score>  (221) 
-4.12488

>  <r_i_glide_ligand_efficiency>  (221) 
-0.22916

>  <r_i_glide_ligand_efficiency_sa>  (221) 
-0.60057

>  <r_i_glide_ligand_efficiency_ln>  (221) 
-1.06028

>  <r_i_glide_gscore>  (221) 
-4.12488

>  <r_i_glide_lipo>  (221) 
-0.168002

>  <r_i_glide_hbond>  (221) 
-0.179125

>  <r_i_glide_metal>  (221) 
-0

>  <r_i_glide_rewards>  (221) 
-1.96353

>  <r_i_glide_evdw>  (221) 
-23.4297

>  <r_i_glide_ecoul>  (221) 
-5.65367

>  <r_i_glide_erotb>  (221) 
0.308452

>  <r_i_glide_esite>  (221) 
-0.103141

>  <r_i_glide_emodel>  (221) 
-36.1195

>  <r_i_glide_energy>  (221) 
-29.0834

>  <r_i_glide_einternal>  (221) 
2.41842

>  <r_i_glide_intrahb_reward>  (221) 
-0

>  <i_i_glide_confnum>  (221) 
4

>  <i_i_glide_posenum>  (221) 
20

>  <r_i_glide_eff_state_penalty>  (221) 
0

>  <ligand_id>  (221) 
64

>  <original_smiles>  (221) 
c1cnc2n[nH]c(-c3nc4ccncc4[nH]3)c2c1

>  <smiles>  (221) 
[H]c1nc2c(c(-c3nc4c([H])c([H])nc([H])c4n3[H])nn2[H])c([H])c1[H]

$$$$
64:3:1
     RDKit          3D

 26 29  0  0  1  0  0  0  0  0999 V2000
    2.7352   -2.4124   -3.8873 C   0  0  0  0  0  0  0  0  0  0  0  0
    3.4799   -1.2250   -4.0357 C   0  0  0  0  0  0  0  0  0  0  0  0
    4.2141   -0.6579   -3.0522 N   0  0  0  0  0  0  0  0  0  0  0  0
    4.1539   -1.3206   -1.8638 C   0  0  0  0  0  0  0  0  0  0  0  0
    4.7813   -0.9857   -0.6798 N   0  0  0  0  0  0  0  0  0  0  0  0
    4.5245   -1.8511    0.3329 N   0  0  0  0  0  0  0  0  0  0  0  0
    3.7186   -2.7561   -0.1783 C   0  0  0  0  0  0  0  0  0  0  0  0
    3.2051   -3.8780    0.6110 C   0  0  0  0  0  0  0  0  0  0  0  0
    3.4277   -3.9752    1.9250 N   0  0  0  0  0  0  0  0  0  0  0  0
    2.8015   -5.1500    2.2729 C   0  0  0  0  0  0  0  0  0  0  0  0
    2.6820   -5.7979    3.5133 C   0  0  0  0  0  0  0  0  0  0  0  0
    1.9644   -7.0059    3.5817 C   0  0  0  0  0  0  0  0  0  0  0  0
    1.3754   -7.5714    2.5083 N   0  0  0  0  0  0  0  0  0  0  0  0
    1.4896   -6.9724    1.3048 C   0  0  0  0  0  0  0  0  0  0  0  0
    2.1856   -5.7605    1.1523 C   0  0  0  0  0  0  0  0  0  0  0  0
    2.4793   -4.9004    0.1042 N   0  0  0  0  0  0  0  0  0  0  0  0
    3.4365   -2.5076   -1.5641 C   0  0  0  0  0  0  0  0  0  0  0  0
    2.6962   -3.0517   -2.6372 C   0  0  0  0  0  0  0  0  0  0  0  0
    5.3386   -0.1556   -0.5227 H   0  0  0  0  0  0  0  0  0  0  0  0
    2.2685   -5.0171   -0.8807 H   0  0  0  0  0  0  0  0  0  0  0  0
    2.1715   -2.8280   -4.7073 H   0  0  0  0  0  0  0  0  0  0  0  0
    3.4999   -0.7170   -4.9885 H   0  0  0  0  0  0  0  0  0  0  0  0
    3.1337   -5.3682    4.3907 H   0  0  0  0  0  0  0  0  0  0  0  0
    1.8613   -7.5321    4.5204 H   0  0  0  0  0  0  0  0  0  0  0  0
    1.0093   -7.4700    0.4804 H   0  0  0  0  0  0  0  0  0  0  0  0
    2.0974   -3.9380   -2.5086 H   0  0  0  0  0  0  0  0  0  0  0  0
  1  2  2  0
  1 21  1  0
  1 18  1  0
  2  3  1  0
  2 22  1  0
  3  4  2  0
  4  5  1  0
  4 17  1  0
  5  6  1  0
  5 19  1  0
  6  7  2  0
  7 17  1  0
  7  8  1  0
  8 16  1  0
  8  9  2  0
  9 10  1  0
 10 15  2  0
 10 11  1  0
 11 12  2  0
 11 23  1  0
 12 13  1  0
 12 24  1  0
 13 14  2  0
 14 15  1  0
 14 25  1  0
 15 16  1  0
 16 20  1  0
 17 18  2  0
 18 26  1  0
M  END
>  <i_m_ct_stereo_status>  (222) 
1

>  <s_m_source_file>  (222) 
/var/tmp/pbs.5076255.sched01/tmpagfdxo7m/88tnrj_5ym.sdf

>  <i_m_source_file_index>  (222) 
6

>  <i_lp_mmshare_version>  (222) 
48012

>  <i_f3d_flags>  (222) 
0

>  <s_epik_input>  (222) 
bjFbY0hdW2NIXVtjSF1jKGMxMiljKFtuSF1uMiktYyhuMylbbkhdYyhjMzQpW2NIXW5bY0hdW2NIXTQ=

>  <s_epik_cmdline>  (222) 
J2VwaWtfcHl0aG9uJywgJy1waHQnLCAnMi4wJywgJy1waCcsICc3LjAnLCAnLXRuJywgJzgnLCAnLW1hJywgJzIwMCcsICctaW1hZScsICc8aW5maWxlLm1hZT4nLCAnLW9tYWUnLCAnPG91dGZpbGUubWFlPic=

>  <r_lp_tautomer_probability>  (222) 
0.1796

>  <r_epik_Ionization_Penalty>  (222) 
0.0299724

>  <r_epik_Ionization_Penalty_Charging>  (222) 
0.028716

>  <r_epik_Ionization_Penalty_Neutral>  (222) 
0.00125642

>  <r_epik_State_Penalty>  (222) 
1.70402

>  <r_epik_Charging_Adjusted_Penalty>  (222) 
1.73274

>  <i_epik_Tot_Q>  (222) 
0

>  <i_epik_Tot_abs_Q>  (222) 
0

>  <s_lp_Force_Field>  (222) 
OPLS3e

>  <r_lp_Energy>  (222) 
21.906

>  <b_lp_Chiralities_Consistent>  (222) 
1

>  <s_lp_Variant>  (222) 
64:0-4

>  <s_i_glide_gridfile>  (222) 
pfpi4k_grid

>  <i_i_glide_lignum>  (222) 
6

>  <i_i_glide_rotatable_bonds>  (222) 
1

>  <r_i_docking_score>  (222) 
-4.09842

>  <r_i_glide_ligand_efficiency>  (222) 
-0.22769

>  <r_i_glide_ligand_efficiency_sa>  (222) 
-0.596716

>  <r_i_glide_ligand_efficiency_ln>  (222) 
-1.05348

>  <r_i_glide_gscore>  (222) 
-4.09842

>  <r_i_glide_lipo>  (222) 
-0.242497

>  <r_i_glide_hbond>  (222) 
-0.327463

>  <r_i_glide_metal>  (222) 
-0

>  <r_i_glide_rewards>  (222) 
-1.79842

>  <r_i_glide_evdw>  (222) 
-24.2481

>  <r_i_glide_ecoul>  (222) 
-4.51804

>  <r_i_glide_erotb>  (222) 
0.308452

>  <r_i_glide_esite>  (222) 
-0.148383

>  <r_i_glide_emodel>  (222) 
-35.7477

>  <r_i_glide_energy>  (222) 
-28.7661

>  <r_i_glide_einternal>  (222) 
2.43063

>  <r_i_glide_intrahb_reward>  (222) 
-0

>  <i_i_glide_confnum>  (222) 
4

>  <i_i_glide_posenum>  (222) 
12

>  <r_i_glide_eff_state_penalty>  (222) 
0

>  <ligand_id>  (222) 
64

>  <original_smiles>  (222) 
c1cnc2n[nH]c(-c3nc4ccncc4[nH]3)c2c1

>  <smiles>  (222) 
[H]c1nc2c(c(-c3nc4c([H])c([H])nc([H])c4n3[H])nn2[H])c([H])c1[H]

$$$$
64:3:2
     RDKit          3D

 26 29  0  0  1  0  0  0  0  0999 V2000
    3.8403   -2.7385   -2.9150 C   0  0  0  0  0  0  0  0  0  0  0  0
    5.1193   -3.2887   -3.1419 C   0  0  0  0  0  0  0  0  0  0  0  0
    6.1644   -3.1688   -2.2964 N   0  0  0  0  0  0  0  0  0  0  0  0
    5.8730   -2.5090   -1.1391 C   0  0  0  0  0  0  0  0  0  0  0  0
    6.7178   -2.2467   -0.0773 N   0  0  0  0  0  0  0  0  0  0  0  0
    6.1363   -1.5396    0.9258 N   0  0  0  0  0  0  0  0  0  0  0  0
    4.8966   -1.3478    0.5286 C   0  0  0  0  0  0  0  0  0  0  0  0
    3.9130   -0.6255    1.3406 C   0  0  0  0  0  0  0  0  0  0  0  0
    4.2367   -0.1667    2.5556 N   0  0  0  0  0  0  0  0  0  0  0  0
    3.0757    0.4509    2.9800 C   0  0  0  0  0  0  0  0  0  0  0  0
    2.7636    1.1277    4.1725 C   0  0  0  0  0  0  0  0  0  0  0  0
    1.4624    1.6458    4.3396 C   0  0  0  0  0  0  0  0  0  0  0  0
    0.4841    1.5159    3.4169 N   0  0  0  0  0  0  0  0  0  0  0  0
    0.7737    0.8853    2.2560 C   0  0  0  0  0  0  0  0  0  0  0  0
    2.0466    0.3373    2.0157 C   0  0  0  0  0  0  0  0  0  0  0  0
    2.6359   -0.3664    0.9815 N   0  0  0  0  0  0  0  0  0  0  0  0
    4.6376   -1.9143   -0.7679 C   0  0  0  0  0  0  0  0  0  0  0  0
    3.5932   -2.0455   -1.7120 C   0  0  0  0  0  0  0  0  0  0  0  0
    7.6799   -2.5499   -0.0000 H   0  0  0  0  0  0  0  0  0  0  0  0
    2.1382   -0.6559    0.1277 H   0  0  0  0  0  0  0  0  0  0  0  0
    3.0489   -2.8616   -3.6409 H   0  0  0  0  0  0  0  0  0  0  0  0
    5.3222   -3.8240   -4.0593 H   0  0  0  0  0  0  0  0  0  0  0  0
    3.5152    1.2424    4.9326 H   0  0  0  0  0  0  0  0  0  0  0  0
    1.2042    2.1711    5.2455 H   0  0  0  0  0  0  0  0  0  0  0  0
   -0.0203    0.8068    1.5270 H   0  0  0  0  0  0  0  0  0  0  0  0
    2.6162   -1.6358   -1.5245 H   0  0  0  0  0  0  0  0  0  0  0  0
  1  2  2  0
  1 21  1  0
  1 18  1  0
  2  3  1  0
  2 22  1  0
  3  4  2  0
  4  5  1  0
  4 17  1  0
  5  6  1  0
  5 19  1  0
  6  7  2  0
  7 17  1  0
  7  8  1  0
  8 16  1  0
  8  9  2  0
  9 10  1  0
 10 15  2  0
 10 11  1  0
 11 12  2  0
 11 23  1  0
 12 13  1  0
 12 24  1  0
 13 14  2  0
 14 15  1  0
 14 25  1  0
 15 16  1  0
 16 20  1  0
 17 18  2  0
 18 26  1  0
M  END
>  <i_m_ct_stereo_status>  (223) 
1

>  <s_m_source_file>  (223) 
/var/tmp/pbs.5076255.sched01/tmpagfdxo7m/88tnrj_5ym.sdf

>  <i_m_source_file_index>  (223) 
6

>  <i_lp_mmshare_version>  (223) 
48012

>  <i_f3d_flags>  (223) 
0

>  <s_epik_input>  (223) 
bjFbY0hdW2NIXVtjSF1jKGMxMiljKFtuSF1uMiktYyhuMylbbkhdYyhjMzQpW2NIXW5bY0hdW2NIXTQ=

>  <s_epik_cmdline>  (223) 
J2VwaWtfcHl0aG9uJywgJy1waHQnLCAnMi4wJywgJy1waCcsICc3LjAnLCAnLXRuJywgJzgnLCAnLW1hJywgJzIwMCcsICctaW1hZScsICc8aW5maWxlLm1hZT4nLCAnLW9tYWUnLCAnPG91dGZpbGUubWFlPic=

>  <r_lp_tautomer_probability>  (223) 
0.1796

>  <r_epik_Ionization_Penalty>  (223) 
0.0299724

>  <r_epik_Ionization_Penalty_Charging>  (223) 
0.028716

>  <r_epik_Ionization_Penalty_Neutral>  (223) 
0.00125642

>  <r_epik_State_Penalty>  (223) 
1.70402

>  <r_epik_Charging_Adjusted_Penalty>  (223) 
1.73274

>  <i_epik_Tot_Q>  (223) 
0

>  <i_epik_Tot_abs_Q>  (223) 
0

>  <s_lp_Force_Field>  (223) 
OPLS3e

>  <r_lp_Energy>  (223) 
21.906

>  <b_lp_Chiralities_Consistent>  (223) 
1

>  <s_lp_Variant>  (223) 
64:0-4

>  <s_i_glide_gridfile>  (223) 
pfpi4k_grid

>  <i_i_glide_lignum>  (223) 
6

>  <i_i_glide_rotatable_bonds>  (223) 
1

>  <r_i_docking_score>  (223) 
-4.01536

>  <r_i_glide_ligand_efficiency>  (223) 
-0.223075

>  <r_i_glide_ligand_efficiency_sa>  (223) 
-0.584623

>  <r_i_glide_ligand_efficiency_ln>  (223) 
-1.03213

>  <r_i_glide_gscore>  (223) 
-4.01536

>  <r_i_glide_lipo>  (223) 
-0.359999

>  <r_i_glide_hbond>  (223) 
-0.16

>  <r_i_glide_metal>  (223) 
-0

>  <r_i_glide_rewards>  (223) 
-1.84285

>  <r_i_glide_evdw>  (223) 
-23.4585

>  <r_i_glide_ecoul>  (223) 
-4.60957

>  <r_i_glide_erotb>  (223) 
0.308452

>  <r_i_glide_esite>  (223) 
-0.0966027

>  <r_i_glide_emodel>  (223) 
-34.885

>  <r_i_glide_energy>  (223) 
-28.068

>  <r_i_glide_einternal>  (223) 
2.39811

>  <r_i_glide_intrahb_reward>  (223) 
-0

>  <i_i_glide_confnum>  (223) 
4

>  <i_i_glide_posenum>  (223) 
1

>  <r_i_glide_eff_state_penalty>  (223) 
0

>  <ligand_id>  (223) 
64

>  <original_smiles>  (223) 
c1cnc2n[nH]c(-c3nc4ccncc4[nH]3)c2c1

>  <smiles>  (223) 
[H]c1nc2c(c(-c3nc4c([H])c([H])nc([H])c4n3[H])nn2[H])c([H])c1[H]

$$$$
65:0:0
     RDKit          3D

 24 27  0  0  1  0  0  0  0  0999 V2000
   -9.5770   -8.3950   -9.2241 C   0  0  0  0  0  0  0  0  0  0  0  0
   -9.0022   -7.0923   -9.2622 O   0  0  0  0  0  0  0  0  0  0  0  0
   -9.0211   -6.5009   -7.9593 C   0  0  1  0  0  0  0  0  0  0  0  0
  -10.4462   -5.8881   -7.6170 C   0  0  0  0  0  0  0  0  0  0  0  0
  -10.2685   -4.5443   -6.8547 C   0  0  0  0  0  0  0  0  0  0  0  0
   -9.7555   -3.4463   -7.3539 C   0  0  0  0  0  0  0  0  0  0  0  0
   -8.2889   -3.7903   -7.4214 C   0  0  1  0  0  0  0  0  0  0  0  0
   -7.7004   -4.4968   -6.1437 C   0  0  0  0  0  0  0  0  0  0  0  0
   -7.0482   -5.7188   -5.9132 C   0  0  0  0  0  0  0  0  0  0  0  0
   -5.9970   -5.8725   -5.0362 N   0  0  0  0  0  0  0  0  0  0  0  0
   -7.7054   -7.2899   -6.7565 S   0  0  0  0  0  0  0  0  0  0  0  0
   -9.0203   -5.0815   -6.3748 C   0  0  2  0  0  0  0  0  0  0  0  0
   -8.3648   -5.2085   -7.9448 C   0  0  2  0  0  0  0  0  0  0  0  0
   -9.6212   -8.8186  -10.2260 H   0  0  0  0  0  0  0  0  0  0  0  0
  -10.5941   -8.3609   -8.8354 H   0  0  0  0  0  0  0  0  0  0  0  0
   -9.0054   -9.0870   -8.5977 H   0  0  0  0  0  0  0  0  0  0  0  0
  -10.9666   -5.6492   -8.5366 H   0  0  0  0  0  0  0  0  0  0  0  0
  -11.0767   -6.6094   -7.1092 H   0  0  0  0  0  0  0  0  0  0  0  0
  -10.0787   -2.4927   -6.9542 H   0  0  0  0  0  0  0  0  0  0  0  0
   -7.6113   -3.1373   -7.9859 H   0  0  0  0  0  0  0  0  0  0  0  0
   -5.6492   -5.0784   -4.5227 H   0  0  0  0  0  0  0  0  0  0  0  0
   -9.3314   -5.8377   -5.6477 H   0  0  0  0  0  0  0  0  0  0  0  0
   -7.3752   -5.4036   -8.2547 H   0  0  0  0  0  0  0  0  0  0  0  0
   -5.5103   -6.7452   -4.8887 H   0  0  0  0  0  0  0  0  0  0  0  0
  1  2  1  0
  1 14  1  0
  1 15  1  0
  1 16  1  0
  3  2  1  6
  3 11  1  0
  3 13  1  0
  3  4  1  0
  4  5  1  0
  4 17  1  0
  4 18  1  0
  5 12  1  0
  5  6  2  0
  6  7  1  0
  6 19  1  0
  7 13  1  0
  7  8  1  0
  7 20  1  6
  8  9  2  0
  8 12  1  0
  9 10  1  0
  9 11  1  0
 10 21  1  0
 10 24  1  0
 12 13  1  0
 12 22  1  1
 13 23  1  1
M  END
>  <i_m_ct_stereo_status>  (224) 
1

>  <s_m_source_file>  (224) 
/var/tmp/pbs.5076255.sched01/tmpagfdxo7m/88tnrj_5ym.sdf

>  <i_m_source_file_index>  (224) 
7

>  <i_lp_mmshare_version>  (224) 
48012

>  <i_f3d_flags>  (224) 
0

>  <s_epik_input>  (224) 
W0NIM11PW0NAQF0xMltDQEhdM1tDQEBIXTRbQ0BASF0oL0MoUzIpPU5cW0hdKVtDQEhdM0MoW0NIMl0xKT1bQ0hdNA==

>  <s_epik_cmdline>  (224) 
J2VwaWtfcHl0aG9uJywgJy1waHQnLCAnMi4wJywgJy1waCcsICc3LjAnLCAnLXRuJywgJzgnLCAnLW1hJywgJzIwMCcsICctaW1hZScsICc8aW5maWxlLm1hZT4nLCAnLW9tYWUnLCAnPG91dGZpbGUubWFlPic=

>  <r_lp_tautomer_probability>  (224) 
1

>  <r_epik_Ionization_Penalty>  (224) 
7.27537e-06

>  <r_epik_Ionization_Penalty_Charging>  (224) 
2.09493e-12

>  <r_epik_Ionization_Penalty_Neutral>  (224) 
7.27537e-06

>  <r_epik_State_Penalty>  (224) 
-0

>  <r_epik_Charging_Adjusted_Penalty>  (224) 
2.09493e-12

>  <i_epik_Tot_Q>  (224) 
0

>  <i_epik_Tot_abs_Q>  (224) 
0

>  <s_epik_Chemistry_Notes>  (224) 
This compound has an imine and may undergo hydrolysis.

>  <s_lp_Force_Field>  (224) 
OPLS3e

>  <r_lp_Energy>  (224) 
261.948

>  <b_lp_Chiralities_Consistent>  (224) 
1

>  <s_lp_Variant>  (224) 
65:0-1

>  <s_i_glide_gridfile>  (224) 
pfpi4k_grid

>  <i_i_glide_lignum>  (224) 
7

>  <i_i_glide_rotatable_bonds>  (224) 
1

>  <r_i_docking_score>  (224) 
-4.46774

>  <r_i_glide_ligand_efficiency>  (224) 
-0.343672

>  <r_i_glide_ligand_efficiency_sa>  (224) 
-0.808089

>  <r_i_glide_ligand_efficiency_ln>  (224) 
-1.25324

>  <r_i_glide_gscore>  (224) 
-4.46774

>  <r_i_glide_lipo>  (224) 
-1.45969

>  <r_i_glide_hbond>  (224) 
0

>  <r_i_glide_metal>  (224) 
-0

>  <r_i_glide_rewards>  (224) 
-2.32782

>  <r_i_glide_evdw>  (224) 
-13.4609

>  <r_i_glide_ecoul>  (224) 
-0.0479116

>  <r_i_glide_erotb>  (224) 
0

>  <r_i_glide_esite>  (224) 
0

>  <r_i_glide_emodel>  (224) 
-17.9632

>  <r_i_glide_energy>  (224) 
-13.5088

>  <r_i_glide_einternal>  (224) 
0.000803598

>  <r_i_glide_intrahb_reward>  (224) 
-0

>  <i_i_glide_confnum>  (224) 
2

>  <i_i_glide_posenum>  (224) 
29

>  <r_i_glide_eff_state_penalty>  (224) 
0

>  <ligand_id>  (224) 
65

>  <original_smiles>  (224) 
COC12CC3=CC4C(C(=N)S1)C3C42

>  <smiles>  (224) 
[H]C1=C2C([H])([H])C3(OC([H])([H])[H])SC(N([H])[H])=C4C1([H])C3([H])C24[H]

$$$$
65:0:1
     RDKit          3D

 24 27  0  0  1  0  0  0  0  0999 V2000
   -2.9818    3.1551    3.0966 C   0  0  0  0  0  0  0  0  0  0  0  0
   -1.6890    3.2366    3.6890 O   0  0  0  0  0  0  0  0  0  0  0  0
   -1.0983    1.9512    3.8670 C   0  0  1  0  0  0  0  0  0  0  0  0
   -1.6210    1.2898    5.2289 C   0  0  0  0  0  0  0  0  0  0  0  0
   -0.4476    0.5544    5.9463 C   0  0  0  0  0  0  0  0  0  0  0  0
    0.6747    1.0766    6.3997 C   0  0  0  0  0  0  0  0  0  0  0  0
    1.4083    1.4269    5.1340 C   0  0  1  0  0  0  0  0  0  0  0  0
    1.3909    0.3026    4.0221 C   0  0  0  0  0  0  0  0  0  0  0  0
    0.9844    0.2567    2.6823 C   0  0  0  0  0  0  0  0  0  0  0  0
    1.6987   -0.3446    1.6775 N   0  0  0  0  0  0  0  0  0  0  0  0
   -0.6562    1.0546    2.2028 S   0  0  0  0  0  0  0  0  0  0  0  0
    0.0530    0.3547    4.6023 C   0  0  2  0  0  0  0  0  0  0  0  0
    0.3012    1.9979    4.2690 C   0  0  2  0  0  0  0  0  0  0  0  0
   -3.4025    4.1530    3.0060 H   0  0  0  0  0  0  0  0  0  0  0  0
   -3.6624    2.5511    3.6954 H   0  0  0  0  0  0  0  0  0  0  0  0
   -2.9613    2.7306    2.0921 H   0  0  0  0  0  0  0  0  0  0  0  0
   -1.9477    2.0744    5.9111 H   0  0  0  0  0  0  0  0  0  0  0  0
   -2.4664    0.6218    5.0540 H   0  0  0  0  0  0  0  0  0  0  0  0
    1.2032    0.6446    7.2340 H   0  0  0  0  0  0  0  0  0  0  0  0
    2.2952    2.0577    5.2245 H   0  0  0  0  0  0  0  0  0  0  0  0
    2.5688   -0.8113    1.8540 H   0  0  0  0  0  0  0  0  0  0  0  0
   -0.6335   -0.3997    4.1753 H   0  0  0  0  0  0  0  0  0  0  0  0
    0.8947    2.4960    3.4784 H   0  0  0  0  0  0  0  0  0  0  0  0
    1.3628   -0.3857    0.6981 H   0  0  0  0  0  0  0  0  0  0  0  0
  1  2  1  0
  1 14  1  0
  1 15  1  0
  1 16  1  0
  3  2  1  6
  3 11  1  0
  3 13  1  0
  3  4  1  0
  4  5  1  0
  4 17  1  0
  4 18  1  0
  5 12  1  0
  5  6  2  0
  6  7  1  0
  6 19  1  0
  7 13  1  0
  7  8  1  0
  7 20  1  1
  8  9  2  0
  8 12  1  0
  9 10  1  0
  9 11  1  0
 10 21  1  0
 10 24  1  0
 12 13  1  0
 12 22  1  6
 13 23  1  6
M  END
>  <i_m_ct_stereo_status>  (225) 
1

>  <s_m_source_file>  (225) 
/var/tmp/pbs.5076255.sched01/tmpagfdxo7m/88tnrj_5ym.sdf

>  <i_m_source_file_index>  (225) 
7

>  <i_lp_mmshare_version>  (225) 
48012

>  <i_f3d_flags>  (225) 
0

>  <s_epik_input>  (225) 
W0NIM11PW0NAQF0xMltDQEhdM1tDQEBIXTRbQ0BASF0oL0MoUzIpPU5cW0hdKVtDQEhdM0MoW0NIMl0xKT1bQ0hdNA==

>  <s_epik_cmdline>  (225) 
J2VwaWtfcHl0aG9uJywgJy1waHQnLCAnMi4wJywgJy1waCcsICc3LjAnLCAnLXRuJywgJzgnLCAnLW1hJywgJzIwMCcsICctaW1hZScsICc8aW5maWxlLm1hZT4nLCAnLW9tYWUnLCAnPG91dGZpbGUubWFlPic=

>  <r_lp_tautomer_probability>  (225) 
1

>  <r_epik_Ionization_Penalty>  (225) 
7.27537e-06

>  <r_epik_Ionization_Penalty_Charging>  (225) 
2.09493e-12

>  <r_epik_Ionization_Penalty_Neutral>  (225) 
7.27537e-06

>  <r_epik_State_Penalty>  (225) 
-0

>  <r_epik_Charging_Adjusted_Penalty>  (225) 
2.09493e-12

>  <i_epik_Tot_Q>  (225) 
0

>  <i_epik_Tot_abs_Q>  (225) 
0

>  <s_epik_Chemistry_Notes>  (225) 
This compound has an imine and may undergo hydrolysis.

>  <s_lp_Force_Field>  (225) 
OPLS3e

>  <r_lp_Energy>  (225) 
261.948

>  <b_lp_Chiralities_Consistent>  (225) 
1

>  <s_lp_Variant>  (225) 
65:0-1

>  <s_i_glide_gridfile>  (225) 
pfpi4k_grid

>  <i_i_glide_lignum>  (225) 
7

>  <i_i_glide_rotatable_bonds>  (225) 
1

>  <r_i_docking_score>  (225) 
-3.37945

>  <r_i_glide_ligand_efficiency>  (225) 
-0.259958

>  <r_i_glide_ligand_efficiency_sa>  (225) 
-0.611247

>  <r_i_glide_ligand_efficiency_ln>  (225) 
-0.947965

>  <r_i_glide_gscore>  (225) 
-3.37945

>  <r_i_glide_lipo>  (225) 
0

>  <r_i_glide_hbond>  (225) 
-0.16

>  <r_i_glide_metal>  (225) 
-0

>  <r_i_glide_rewards>  (225) 
-2.09137

>  <r_i_glide_evdw>  (225) 
-12.2176

>  <r_i_glide_ecoul>  (225) 
-2.78135

>  <r_i_glide_erotb>  (225) 
0

>  <r_i_glide_esite>  (225) 
-0.1

>  <r_i_glide_emodel>  (225) 
-18.5084

>  <r_i_glide_energy>  (225) 
-14.999

>  <r_i_glide_einternal>  (225) 
0.0596392

>  <r_i_glide_intrahb_reward>  (225) 
-0

>  <i_i_glide_confnum>  (225) 
1

>  <i_i_glide_posenum>  (225) 
15

>  <r_i_glide_eff_state_penalty>  (225) 
0

>  <ligand_id>  (225) 
65

>  <original_smiles>  (225) 
COC12CC3=CC4C(C(=N)S1)C3C42

>  <smiles>  (225) 
[H]C1=C2C([H])([H])C3(OC([H])([H])[H])SC(N([H])[H])=C4C1([H])C3([H])C24[H]

$$$$
65:0:2
     RDKit          3D

 24 27  0  0  1  0  0  0  0  0999 V2000
   -3.7045    3.3820    2.8724 C   0  0  0  0  0  0  0  0  0  0  0  0
   -2.4615    4.0172    3.1724 O   0  0  0  0  0  0  0  0  0  0  0  0
   -1.5356    3.1289    3.7838 C   0  0  1  0  0  0  0  0  0  0  0  0
   -1.7517    3.0969    5.3677 C   0  0  0  0  0  0  0  0  0  0  0  0
   -0.3681    3.0651    6.0931 C   0  0  0  0  0  0  0  0  0  0  0  0
    0.5891    3.9769    6.0399 C   0  0  0  0  0  0  0  0  0  0  0  0
    1.1082    3.8283    4.6422 C   0  0  1  0  0  0  0  0  0  0  0  0
    1.3327    2.3429    4.1430 C   0  0  0  0  0  0  0  0  0  0  0  0
    0.8506    1.5840    3.0583 C   0  0  0  0  0  0  0  0  0  0  0  0
    1.6093    0.7108    2.3147 N   0  0  0  0  0  0  0  0  0  0  0  0
   -0.9782    1.6593    2.6361 S   0  0  0  0  0  0  0  0  0  0  0  0
    0.0826    2.3658    4.9074 C   0  0  2  0  0  0  0  0  0  0  0  0
   -0.1890    3.6736    3.8679 C   0  0  2  0  0  0  0  0  0  0  0  0
   -4.4124    4.1027    2.4653 H   0  0  0  0  0  0  0  0  0  0  0  0
   -4.1498    2.9510    3.7709 H   0  0  0  0  0  0  0  0  0  0  0  0
   -3.6007    2.5900    2.1307 H   0  0  0  0  0  0  0  0  0  0  0  0
   -2.2315    4.0271    5.6854 H   0  0  0  0  0  0  0  0  0  0  0  0
   -2.3952    2.2771    5.6747 H   0  0  0  0  0  0  0  0  0  0  0  0
    1.2784    4.1164    6.8642 H   0  0  0  0  0  0  0  0  0  0  0  0
    1.7638    4.6158    4.2664 H   0  0  0  0  0  0  0  0  0  0  0  0
    2.6056    0.6542    2.4655 H   0  0  0  0  0  0  0  0  0  0  0  0
   -0.3965    1.3714    4.9927 H   0  0  0  0  0  0  0  0  0  0  0  0
    0.2069    3.8736    2.8732 H   0  0  0  0  0  0  0  0  0  0  0  0
    1.2794    0.2816    1.4530 H   0  0  0  0  0  0  0  0  0  0  0  0
  1  2  1  0
  1 14  1  0
  1 15  1  0
  1 16  1  0
  3  2  1  6
  3 11  1  0
  3 13  1  0
  3  4  1  0
  4  5  1  0
  4 17  1  0
  4 18  1  0
  5 12  1  0
  5  6  2  0
  6  7  1  0
  6 19  1  0
  7 13  1  0
  7  8  1  0
  7 20  1  6
  8  9  2  0
  8 12  1  0
  9 10  1  0
  9 11  1  0
 10 21  1  0
 10 24  1  0
 12 13  1  0
 12 22  1  6
 13 23  1  6
M  END
>  <i_m_ct_stereo_status>  (226) 
1

>  <s_m_source_file>  (226) 
/var/tmp/pbs.5076255.sched01/tmpagfdxo7m/88tnrj_5ym.sdf

>  <i_m_source_file_index>  (226) 
7

>  <i_lp_mmshare_version>  (226) 
48012

>  <i_f3d_flags>  (226) 
0

>  <s_epik_input>  (226) 
W0NIM11PW0NAQF0xMltDQEhdM1tDQEBIXTRbQ0BASF0oL0MoUzIpPU5cW0hdKVtDQEhdM0MoW0NIMl0xKT1bQ0hdNA==

>  <s_epik_cmdline>  (226) 
J2VwaWtfcHl0aG9uJywgJy1waHQnLCAnMi4wJywgJy1waCcsICc3LjAnLCAnLXRuJywgJzgnLCAnLW1hJywgJzIwMCcsICctaW1hZScsICc8aW5maWxlLm1hZT4nLCAnLW9tYWUnLCAnPG91dGZpbGUubWFlPic=

>  <r_lp_tautomer_probability>  (226) 
1

>  <r_epik_Ionization_Penalty>  (226) 
7.27537e-06

>  <r_epik_Ionization_Penalty_Charging>  (226) 
2.09493e-12

>  <r_epik_Ionization_Penalty_Neutral>  (226) 
7.27537e-06

>  <r_epik_State_Penalty>  (226) 
-0

>  <r_epik_Charging_Adjusted_Penalty>  (226) 
2.09493e-12

>  <i_epik_Tot_Q>  (226) 
0

>  <i_epik_Tot_abs_Q>  (226) 
0

>  <s_epik_Chemistry_Notes>  (226) 
This compound has an imine and may undergo hydrolysis.

>  <s_lp_Force_Field>  (226) 
OPLS3e

>  <r_lp_Energy>  (226) 
261.948

>  <b_lp_Chiralities_Consistent>  (226) 
1

>  <s_lp_Variant>  (226) 
65:0-1

>  <s_i_glide_gridfile>  (226) 
pfpi4k_grid

>  <i_i_glide_lignum>  (226) 
7

>  <i_i_glide_rotatable_bonds>  (226) 
1

>  <r_i_docking_score>  (226) 
-3.12879

>  <r_i_glide_ligand_efficiency>  (226) 
-0.240676

>  <r_i_glide_ligand_efficiency_sa>  (226) 
-0.56591

>  <r_i_glide_ligand_efficiency_ln>  (226) 
-0.877653

>  <r_i_glide_gscore>  (226) 
-3.12879

>  <r_i_glide_lipo>  (226) 
-0.0296439

>  <r_i_glide_hbond>  (226) 
-0.00893061

>  <r_i_glide_metal>  (226) 
-0

>  <r_i_glide_rewards>  (226) 
-2.09137

>  <r_i_glide_evdw>  (226) 
-14.963

>  <r_i_glide_ecoul>  (226) 
-1.48574

>  <r_i_glide_erotb>  (226) 
0

>  <r_i_glide_esite>  (226) 
-0.0278378

>  <r_i_glide_emodel>  (226) 
-19.541

>  <r_i_glide_energy>  (226) 
-16.4488

>  <r_i_glide_einternal>  (226) 
0.207404

>  <r_i_glide_intrahb_reward>  (226) 
-0

>  <i_i_glide_confnum>  (226) 
2

>  <i_i_glide_posenum>  (226) 
1

>  <r_i_glide_eff_state_penalty>  (226) 
0

>  <ligand_id>  (226) 
65

>  <original_smiles>  (226) 
COC12CC3=CC4C(C(=N)S1)C3C42

>  <smiles>  (226) 
[H]C1=C2C([H])([H])C3(OC([H])([H])[H])SC(N([H])[H])=C4C1([H])C3([H])C24[H]

$$$$
66:0:0
     RDKit          3D

 45 49  0  0  1  0  0  0  0  0999 V2000
    3.3103   -1.0670   -4.1748 C   0  0  0  0  0  0  0  0  0  0  0  0
    3.9998   -1.7189   -2.9833 C   0  0  0  0  0  0  0  0  0  0  0  0
    5.0108   -2.5099   -3.0149 N   0  0  0  0  0  0  0  0  0  0  0  0
    5.1311   -2.7069   -1.5846 C   0  0  2  0  0  0  0  0  0  0  0  0
    6.1664   -3.6724   -1.0732 C   0  0  0  0  0  0  0  0  0  0  0  0
    5.9445   -4.1002    0.4204 C   0  0  2  0  0  0  0  0  0  0  0  0
    7.0235   -5.1362    0.8941 C   0  0  0  0  0  0  0  0  0  0  0  0
    7.9722   -5.4520    0.1780 O   0  0  0  0  0  0  0  0  0  0  0  0
    6.9874   -5.7240    2.3218 C   0  0  0  0  0  0  0  0  0  0  0  0
    5.7464   -6.5523    2.6109 C   0  0  1  0  0  0  0  0  0  0  0  0
    5.2745   -7.3793    1.4477 C   0  0  2  0  0  0  0  0  0  0  0  0
    3.8635   -7.0312    1.0390 C   0  0  0  0  0  0  0  0  0  0  0  0
    3.8930   -5.7757    0.1194 C   0  0  0  0  0  0  0  0  0  0  0  0
    4.4326   -4.4443    0.7494 C   0  0  2  0  0  0  0  0  0  0  0  0
    3.5076   -3.2364    0.3899 C   0  0  0  0  0  0  0  0  0  0  0  0
    3.7018   -2.8598   -1.1015 C   0  0  1  0  0  0  0  0  0  0  0  0
    3.6146   -1.4910   -1.6757 N   0  0  0  0  0  0  0  0  0  0  0  0
    5.0170   -1.0755   -0.7772 S   0  0  0  0  0  0  0  0  0  0  0  0
    5.6977   -8.0254    2.6912 N   0  0  0  0  0  0  0  0  0  0  0  0
    6.9866   -8.7685    2.6559 C   0  0  0  0  0  0  0  0  0  0  0  0
    4.6562   -8.6259    3.5655 C   0  0  0  0  0  0  0  0  0  0  0  0
    2.2292   -1.0396   -4.0239 H   0  0  0  0  0  0  0  0  0  0  0  0
    3.4991   -1.6283   -5.0813 H   0  0  0  0  0  0  0  0  0  0  0  0
    3.6656   -0.0486   -4.3056 H   0  0  0  0  0  0  0  0  0  0  0  0
    6.0116   -4.5445   -1.6912 H   0  0  0  0  0  0  0  0  0  0  0  0
    7.1746   -3.2841   -1.2446 H   0  0  0  0  0  0  0  0  0  0  0  0
    6.1721   -3.2160    1.0161 H   0  0  0  0  0  0  0  0  0  0  0  0
    7.8982   -6.2912    2.5122 H   0  0  0  0  0  0  0  0  0  0  0  0
    6.9768   -4.8824    2.9992 H   0  0  0  0  0  0  0  0  0  0  0  0
    5.0234   -6.1232    3.3073 H   0  0  0  0  0  0  0  0  0  0  0  0
    5.9560   -7.6740    0.6569 H   0  0  0  0  0  0  0  0  0  0  0  0
    3.4344   -7.8872    0.5238 H   0  0  0  0  0  0  0  0  0  0  0  0
    3.2349   -6.8345    1.9043 H   0  0  0  0  0  0  0  0  0  0  0  0
    4.4809   -6.0120   -0.7719 H   0  0  0  0  0  0  0  0  0  0  0  0
    2.8746   -5.6170   -0.2477 H   0  0  0  0  0  0  0  0  0  0  0  0
    4.3282   -4.5282    1.8263 H   0  0  0  0  0  0  0  0  0  0  0  0
    2.4570   -3.4486    0.6092 H   0  0  0  0  0  0  0  0  0  0  0  0
    3.7403   -2.4303    1.0920 H   0  0  0  0  0  0  0  0  0  0  0  0
    3.1439   -3.5708   -1.7203 H   0  0  0  0  0  0  0  0  0  0  0  0
    6.7876   -9.8056    2.3916 H   0  0  0  0  0  0  0  0  0  0  0  0
    7.4334   -8.7711    3.6491 H   0  0  0  0  0  0  0  0  0  0  0  0
    7.7217   -8.3804    1.9471 H   0  0  0  0  0  0  0  0  0  0  0  0
    4.4033   -9.6179    3.1938 H   0  0  0  0  0  0  0  0  0  0  0  0
    3.7382   -8.0438    3.6584 H   0  0  0  0  0  0  0  0  0  0  0  0
    5.0691   -8.7540    4.5655 H   0  0  0  0  0  0  0  0  0  0  0  0
  1  2  1  0
  1 22  1  0
  1 23  1  0
  1 24  1  0
  2 17  1  0
  2  3  2  0
  3  4  1  0
  4 16  1  0
  4 18  1  0
  4  5  1  6
  5  6  1  0
  5 25  1  0
  5 26  1  0
  6 14  1  0
  6  7  1  0
  6 27  1  1
  7  8  2  0
  7  9  1  0
  9 10  1  0
  9 28  1  0
  9 29  1  0
 10 19  1  0
 10 11  1  0
 10 30  1  1
 11 12  1  0
 11 19  1  0
 11 31  1  6
 12 13  1  0
 12 32  1  0
 12 33  1  0
 13 14  1  0
 13 34  1  0
 13 35  1  0
 14 15  1  0
 14 36  1  1
 15 16  1  0
 15 37  1  0
 15 38  1  0
 16 17  1  0
 16 39  1  6
 17 18  1  0
 19 20  1  0
 19 21  1  0
 20 40  1  0
 20 41  1  0
 20 42  1  0
 21 43  1  0
 21 44  1  0
 21 45  1  0
M  CHG  1  19   1
M  END
>  <i_m_ct_stereo_status>  (227) 
1

>  <s_m_source_file>  (227) 
/var/tmp/pbs.5076255.sched01/tmpagfdxo7m/88tnrj_5ym.sdf

>  <i_m_source_file_index>  (227) 
8

>  <i_lp_mmshare_version>  (227) 
48012

>  <i_f3d_flags>  (227) 
0

>  <s_epik_input>  (227) 
W0NIM11DKD1OMSlOKFMyKVtDQEBIXShbQ0BAXTEyMylbQ0gyXVtDQEBIXTRbQ0BIXShbQ0gyXTMpQyg9TylbQ0gyXVtDQEhdNVtDQEhdKFtDSDJdW0NIMl00KVtOK101KFtDSDNdKVtDSDNd

>  <s_epik_cmdline>  (227) 
J2VwaWtfcHl0aG9uJywgJy1waHQnLCAnMi4wJywgJy1waCcsICc3LjAnLCAnLXRuJywgJzgnLCAnLW1hJywgJzIwMCcsICctaW1hZScsICc8aW5maWxlLm1hZT4nLCAnLW9tYWUnLCAnPG91dGZpbGUubWFlPic=

>  <r_lp_tautomer_probability>  (227) 
0.999601

>  <r_epik_Ionization_Penalty>  (227) 
0.137404

>  <r_epik_Ionization_Penalty_Charging>  (227) 
0

>  <r_epik_Ionization_Penalty_Neutral>  (227) 
0.137404

>  <r_epik_State_Penalty>  (227) 
0.126742

>  <r_epik_Charging_Adjusted_Penalty>  (227) 
0.126742

>  <i_epik_Tot_Q>  (227) 
1

>  <i_epik_Tot_abs_Q>  (227) 
1

>  <s_epik_Chemistry_Notes>  (227) 
This compound has an imine and may undergo hydrolysis. This compound has a N-S or N-O group and may undergo hydrolysis at high or low pH.

>  <s_lp_Force_Field>  (227) 
OPLS3e

>  <r_lp_Energy>  (227) 
73.2469

>  <b_lp_Chiralities_Consistent>  (227) 
1

>  <s_lp_Variant>  (227) 
66:0-1

>  <s_i_glide_gridfile>  (227) 
pfpi4k_grid

>  <i_i_glide_lignum>  (227) 
8

>  <i_i_glide_rotatable_bonds>  (227) 
0

>  <r_i_docking_score>  (227) 
-3.35408

>  <r_i_glide_ligand_efficiency>  (227) 
-0.159718

>  <r_i_glide_ligand_efficiency_sa>  (227) 
-0.44065

>  <r_i_glide_ligand_efficiency_ln>  (227) 
-0.829289

>  <r_i_glide_gscore>  (227) 
-3.35408

>  <r_i_glide_lipo>  (227) 
-0.589263

>  <r_i_glide_hbond>  (227) 
0

>  <r_i_glide_metal>  (227) 
-0

>  <r_i_glide_rewards>  (227) 
-1.52195

>  <r_i_glide_evdw>  (227) 
-18.2259

>  <r_i_glide_ecoul>  (227) 
-1.66338

>  <r_i_glide_erotb>  (227) 
0

>  <r_i_glide_esite>  (227) 
-0.0820645

>  <r_i_glide_emodel>  (227) 
-25.8118

>  <r_i_glide_energy>  (227) 
-19.8892

>  <r_i_glide_einternal>  (227) 
0

>  <r_i_glide_intrahb_reward>  (227) 
-0

>  <i_i_glide_confnum>  (227) 
1

>  <i_i_glide_posenum>  (227) 
1

>  <r_i_glide_eff_state_penalty>  (227) 
0

>  <ligand_id>  (227) 
66

>  <original_smiles>  (227) 
CC1=NC23CC4C(=O)CC5C(CCC4CC2N1S3)[N+]5(C)C

>  <smiles>  (227) 
[H]C([H])([H])C1=NC23SN1C2([H])C([H])([H])C1([H])C([H])([H])C([H])([H])C2([H])C([H])(C([H])([H])C(=O)C1([H])C3([H])[H])[N+]2(C([H])([H])[H])C([H])([H])[H]

$$$$
66:0:1
     RDKit          3D

 45 49  0  0  1  0  0  0  0  0999 V2000
    4.0642   -1.4812   -1.6360 C   0  0  0  0  0  0  0  0  0  0  0  0
    4.2623   -2.6865   -0.7416 C   0  0  0  0  0  0  0  0  0  0  0  0
    4.5831   -3.8640   -1.1173 N   0  0  0  0  0  0  0  0  0  0  0  0
    4.5878   -4.4849    0.2028 C   0  0  2  0  0  0  0  0  0  0  0  0
    4.8462   -5.9782    0.3272 C   0  0  0  0  0  0  0  0  0  0  0  0
    4.4396   -6.5371    1.7456 C   0  0  2  0  0  0  0  0  0  0  0  0
    4.6352   -8.0847    1.8080 C   0  0  0  0  0  0  0  0  0  0  0  0
    5.0455   -8.6906    0.8250 O   0  0  0  0  0  0  0  0  0  0  0  0
    4.3359   -8.8850    3.0972 C   0  0  0  0  0  0  0  0  0  0  0  0
    2.8561   -8.8710    3.4594 C   0  0  1  0  0  0  0  0  0  0  0  0
    1.9338   -8.9408    2.2659 C   0  0  2  0  0  0  0  0  0  0  0  0
    1.0269   -7.7288    2.1953 C   0  0  0  0  0  0  0  0  0  0  0  0
    1.7868   -6.5372    1.5321 C   0  0  0  0  0  0  0  0  0  0  0  0
    3.0535   -5.9938    2.2799 C   0  0  2  0  0  0  0  0  0  0  0  0
    3.0619   -4.4353    2.3394 C   0  0  0  0  0  0  0  0  0  0  0  0
    3.3985   -3.8817    0.9249 C   0  0  1  0  0  0  0  0  0  0  0  0
    4.1468   -2.6388    0.6428 N   0  0  0  0  0  0  0  0  0  0  0  0
    5.5117   -3.3822    1.3305 S   0  0  0  0  0  0  0  0  0  0  0  0
    1.9188   -9.9852    3.2836 N   0  0  0  0  0  0  0  0  0  0  0  0
    2.4673  -11.3042    2.8989 C   0  0  0  0  0  0  0  0  0  0  0  0
    0.7611  -10.0620    4.2075 C   0  0  0  0  0  0  0  0  0  0  0  0
    3.2360   -0.8672   -1.2888 H   0  0  0  0  0  0  0  0  0  0  0  0
    3.8424   -1.8079   -2.6531 H   0  0  0  0  0  0  0  0  0  0  0  0
    4.9687   -0.8768   -1.6559 H   0  0  0  0  0  0  0  0  0  0  0  0
    4.2551   -6.4823   -0.4318 H   0  0  0  0  0  0  0  0  0  0  0  0
    5.8880   -6.2070    0.0990 H   0  0  0  0  0  0  0  0  0  0  0  0
    5.1869   -6.1505    2.4366 H   0  0  0  0  0  0  0  0  0  0  0  0
    4.7149   -9.9021    3.0068 H   0  0  0  0  0  0  0  0  0  0  0  0
    4.8824   -8.4154    3.9116 H   0  0  0  0  0  0  0  0  0  0  0  0
    2.5691   -8.2987    4.3408 H   0  0  0  0  0  0  0  0  0  0  0  0
    2.2683   -9.3680    1.3211 H   0  0  0  0  0  0  0  0  0  0  0  0
    0.1429   -7.9876    1.6139 H   0  0  0  0  0  0  0  0  0  0  0  0
    0.6866   -7.4316    3.1848 H   0  0  0  0  0  0  0  0  0  0  0  0
    2.0529   -6.7966    0.5055 H   0  0  0  0  0  0  0  0  0  0  0  0
    1.0680   -5.7260    1.4223 H   0  0  0  0  0  0  0  0  0  0  0  0
    2.9582   -6.2801    3.3254 H   0  0  0  0  0  0  0  0  0  0  0  0
    2.1125   -4.0379    2.6988 H   0  0  0  0  0  0  0  0  0  0  0  0
    3.7696   -4.1424    3.1146 H   0  0  0  0  0  0  0  0  0  0  0  0
    2.5110   -3.9391    0.2958 H   0  0  0  0  0  0  0  0  0  0  0  0
    1.6701  -11.9370    2.5150 H   0  0  0  0  0  0  0  0  0  0  0  0
    2.8553  -11.8322    3.7685 H   0  0  0  0  0  0  0  0  0  0  0  0
    3.2520  -11.2629    2.1424 H   0  0  0  0  0  0  0  0  0  0  0  0
   -0.0677  -10.5844    3.7306 H   0  0  0  0  0  0  0  0  0  0  0  0
    0.3874   -9.1070    4.5801 H   0  0  0  0  0  0  0  0  0  0  0  0
    1.0242  -10.6638    5.0779 H   0  0  0  0  0  0  0  0  0  0  0  0
  1  2  1  0
  1 22  1  0
  1 23  1  0
  1 24  1  0
  2 17  1  0
  2  3  2  0
  3  4  1  0
  4 16  1  0
  4 18  1  0
  4  5  1  6
  5  6  1  0
  5 25  1  0
  5 26  1  0
  6 14  1  0
  6  7  1  0
  6 27  1  1
  7  8  2  0
  7  9  1  0
  9 10  1  0
  9 28  1  0
  9 29  1  0
 10 19  1  0
 10 11  1  0
 10 30  1  1
 11 12  1  0
 11 19  1  0
 11 31  1  6
 12 13  1  0
 12 32  1  0
 12 33  1  0
 13 14  1  0
 13 34  1  0
 13 35  1  0
 14 15  1  0
 14 36  1  1
 15 16  1  0
 15 37  1  0
 15 38  1  0
 16 17  1  0
 16 39  1  6
 17 18  1  0
 19 20  1  0
 19 21  1  0
 20 40  1  0
 20 41  1  0
 20 42  1  0
 21 43  1  0
 21 44  1  0
 21 45  1  0
M  CHG  1  19   1
M  END
>  <i_m_ct_stereo_status>  (228) 
1

>  <s_m_source_file>  (228) 
/var/tmp/pbs.5076255.sched01/tmpagfdxo7m/88tnrj_5ym.sdf

>  <i_m_source_file_index>  (228) 
8

>  <i_lp_mmshare_version>  (228) 
48012

>  <i_f3d_flags>  (228) 
0

>  <s_epik_input>  (228) 
W0NIM11DKD1OMSlOKFMyKVtDQEBIXShbQ0BAXTEyMylbQ0gyXVtDQEBIXTRbQ0BIXShbQ0gyXTMpQyg9TylbQ0gyXVtDQEhdNVtDQEhdKFtDSDJdW0NIMl00KVtOK101KFtDSDNdKVtDSDNd

>  <s_epik_cmdline>  (228) 
J2VwaWtfcHl0aG9uJywgJy1waHQnLCAnMi4wJywgJy1waCcsICc3LjAnLCAnLXRuJywgJzgnLCAnLW1hJywgJzIwMCcsICctaW1hZScsICc8aW5maWxlLm1hZT4nLCAnLW9tYWUnLCAnPG91dGZpbGUubWFlPic=

>  <r_lp_tautomer_probability>  (228) 
0.999601

>  <r_epik_Ionization_Penalty>  (228) 
0.137404

>  <r_epik_Ionization_Penalty_Charging>  (228) 
0

>  <r_epik_Ionization_Penalty_Neutral>  (228) 
0.137404

>  <r_epik_State_Penalty>  (228) 
0.126742

>  <r_epik_Charging_Adjusted_Penalty>  (228) 
0.126742

>  <i_epik_Tot_Q>  (228) 
1

>  <i_epik_Tot_abs_Q>  (228) 
1

>  <s_epik_Chemistry_Notes>  (228) 
This compound has an imine and may undergo hydrolysis. This compound has a N-S or N-O group and may undergo hydrolysis at high or low pH.

>  <s_lp_Force_Field>  (228) 
OPLS3e

>  <r_lp_Energy>  (228) 
73.2469

>  <b_lp_Chiralities_Consistent>  (228) 
1

>  <s_lp_Variant>  (228) 
66:0-1

>  <s_i_glide_gridfile>  (228) 
pfpi4k_grid

>  <i_i_glide_lignum>  (228) 
8

>  <i_i_glide_rotatable_bonds>  (228) 
0

>  <r_i_docking_score>  (228) 
-3.11404

>  <r_i_glide_ligand_efficiency>  (228) 
-0.148288

>  <r_i_glide_ligand_efficiency_sa>  (228) 
-0.409115

>  <r_i_glide_ligand_efficiency_ln>  (228) 
-0.769941

>  <r_i_glide_gscore>  (228) 
-3.11404

>  <r_i_glide_lipo>  (228) 
-0.277697

>  <r_i_glide_hbond>  (228) 
0

>  <r_i_glide_metal>  (228) 
-0

>  <r_i_glide_rewards>  (228) 
-1.33999

>  <r_i_glide_evdw>  (228) 
-20.4047

>  <r_i_glide_ecoul>  (228) 
-3.08906

>  <r_i_glide_erotb>  (228) 
0

>  <r_i_glide_esite>  (228) 
-0.0127622

>  <r_i_glide_emodel>  (228) 
-29.2259

>  <r_i_glide_energy>  (228) 
-23.4938

>  <r_i_glide_einternal>  (228) 
0

>  <r_i_glide_intrahb_reward>  (228) 
-0

>  <i_i_glide_confnum>  (228) 
1

>  <i_i_glide_posenum>  (228) 
6

>  <r_i_glide_eff_state_penalty>  (228) 
0

>  <ligand_id>  (228) 
66

>  <original_smiles>  (228) 
CC1=NC23CC4C(=O)CC5C(CCC4CC2N1S3)[N+]5(C)C

>  <smiles>  (228) 
[H]C([H])([H])C1=NC23SN1C2([H])C([H])([H])C1([H])C([H])([H])C([H])([H])C2([H])C([H])(C([H])([H])C(=O)C1([H])C3([H])[H])[N+]2(C([H])([H])[H])C([H])([H])[H]

$$$$
66:1:0
     RDKit          3D

 46 50  0  0  1  0  0  0  0  0999 V2000
   -2.4249    3.2382    2.8817 C   0  0  0  0  0  0  0  0  0  0  0  0
   -1.1875    2.5260    3.3184 C   0  0  0  0  0  0  0  0  0  0  0  0
    0.0794    2.9354    3.2862 N   0  0  0  0  0  0  0  0  0  0  0  0
    0.7316    1.7597    3.8727 C   0  0  2  0  0  0  0  0  0  0  0  0
    2.2466    1.6424    3.9997 C   0  0  0  0  0  0  0  0  0  0  0  0
    2.7658    0.2096    3.6034 C   0  0  2  0  0  0  0  0  0  0  0  0
    3.0614    0.1335    2.0795 C   0  0  0  0  0  0  0  0  0  0  0  0
    2.3418    0.7175    1.2955 O   0  0  0  0  0  0  0  0  0  0  0  0
    4.2708   -0.6817    1.5657 C   0  0  0  0  0  0  0  0  0  0  0  0
    4.1882   -2.1448    1.9729 C   0  0  1  0  0  0  0  0  0  0  0  0
    2.8157   -2.7490    1.8339 C   0  0  2  0  0  0  0  0  0  0  0  0
    2.2979   -3.3614    3.1178 C   0  0  0  0  0  0  0  0  0  0  0  0
    2.3768   -2.3640    4.3123 C   0  0  0  0  0  0  0  0  0  0  0  0
    1.8088   -0.9157    4.1741 C   0  0  2  0  0  0  0  0  0  0  0  0
    0.3334   -0.8523    3.6571 C   0  0  0  0  0  0  0  0  0  0  0  0
   -0.0696    0.5965    3.2819 C   0  0  1  0  0  0  0  0  0  0  0  0
   -1.1877    1.3257    3.8962 N   0  0  0  0  0  0  0  0  0  0  0  0
   -0.2780    1.3489    5.3455 S   0  0  0  0  0  0  0  0  0  0  0  0
    3.9444   -3.2615    1.0377 N   0  0  0  0  0  0  0  0  0  0  0  0
    3.9138   -2.9765   -0.4156 C   0  0  0  0  0  0  0  0  0  0  0  0
    4.5423   -4.5736    1.3901 C   0  0  0  0  0  0  0  0  0  0  0  0
   -3.1715    2.5460    2.4967 H   0  0  0  0  0  0  0  0  0  0  0  0
   -2.1918    3.9670    2.0924 H   0  0  0  0  0  0  0  0  0  0  0  0
   -2.8645    3.7942    3.7069 H   0  0  0  0  0  0  0  0  0  0  0  0
    2.7444    2.4242    3.4186 H   0  0  0  0  0  0  0  0  0  0  0  0
    2.5287    1.8363    5.0320 H   0  0  0  0  0  0  0  0  0  0  0  0
    3.7353    0.0951    4.0975 H   0  0  0  0  0  0  0  0  0  0  0  0
    4.3595   -0.5716    0.4878 H   0  0  0  0  0  0  0  0  0  0  0  0
    5.1782   -0.2657    1.9999 H   0  0  0  0  0  0  0  0  0  0  0  0
    4.8371   -2.4718    2.7842 H   0  0  0  0  0  0  0  0  0  0  0  0
    2.0839   -2.2760    1.1800 H   0  0  0  0  0  0  0  0  0  0  0  0
    1.2646   -3.6556    2.9543 H   0  0  0  0  0  0  0  0  0  0  0  0
    2.8254   -4.2756    3.3741 H   0  0  0  0  0  0  0  0  0  0  0  0
    1.8472   -2.8333    5.1435 H   0  0  0  0  0  0  0  0  0  0  0  0
    3.4103   -2.2849    4.6574 H   0  0  0  0  0  0  0  0  0  0  0  0
    1.7337   -0.6209    5.2207 H   0  0  0  0  0  0  0  0  0  0  0  0
    0.2325   -1.4800    2.7774 H   0  0  0  0  0  0  0  0  0  0  0  0
   -0.3449   -1.2924    4.3993 H   0  0  0  0  0  0  0  0  0  0  0  0
   -0.1719    0.7145    2.1904 H   0  0  0  0  0  0  0  0  0  0  0  0
    3.4408   -3.8174   -0.9399 H   0  0  0  0  0  0  0  0  0  0  0  0
    4.9384   -2.9129   -0.8037 H   0  0  0  0  0  0  0  0  0  0  0  0
    3.3724   -2.0671   -0.7037 H   0  0  0  0  0  0  0  0  0  0  0  0
    3.9134   -5.3891    1.0095 H   0  0  0  0  0  0  0  0  0  0  0  0
    4.7265   -4.7433    2.4576 H   0  0  0  0  0  0  0  0  0  0  0  0
    5.5105   -4.6773    0.8828 H   0  0  0  0  0  0  0  0  0  0  0  0
    0.4748    3.8041    2.9073 H   0  0  0  0  0  0  0  0  0  0  0  0
  1  2  1  0
  1 22  1  0
  1 23  1  0
  1 24  1  0
  2 17  1  0
  2  3  2  0
  3  4  1  0
  3 46  1  0
  4 16  1  0
  4 18  1  0
  4  5  1  1
  5  6  1  0
  5 25  1  0
  5 26  1  0
  6 14  1  0
  6  7  1  0
  6 27  1  1
  7  8  2  0
  7  9  1  0
  9 10  1  0
  9 28  1  0
  9 29  1  0
 10 19  1  0
 10 11  1  0
 10 30  1  1
 11 12  1  0
 11 19  1  0
 11 31  1  6
 12 13  1  0
 12 32  1  0
 12 33  1  0
 13 14  1  0
 13 34  1  0
 13 35  1  0
 14 15  1  0
 14 36  1  1
 15 16  1  0
 15 37  1  0
 15 38  1  0
 16 17  1  0
 16 39  1  6
 17 18  1  0
 19 20  1  0
 19 21  1  0
 20 40  1  0
 20 41  1  0
 20 42  1  0
 21 43  1  0
 21 44  1  0
 21 45  1  0
M  CHG  2   3   1  19   1
M  END
>  <i_m_ct_stereo_status>  (229) 
1

>  <s_m_source_file>  (229) 
/var/tmp/pbs.5076255.sched01/tmpagfdxo7m/88tnrj_5ym.sdf

>  <i_m_source_file_index>  (229) 
9

>  <i_lp_mmshare_version>  (229) 
48012

>  <i_f3d_flags>  (229) 
0

>  <s_epik_input>  (229) 
W0NIM11DKD1OMSlOKFMyKVtDQEBIXShbQ0BAXTEyMylbQ0gyXVtDQEBIXTRbQ0BIXShbQ0gyXTMpQyg9TylbQ0gyXVtDQEhdNVtDQEhdKFtDSDJdW0NIMl00KVtOK101KFtDSDNdKVtDSDNd

>  <s_epik_cmdline>  (229) 
J2VwaWtfcHl0aG9uJywgJy1waHQnLCAnMi4wJywgJy1waCcsICc3LjAnLCAnLXRuJywgJzgnLCAnLW1hJywgJzIwMCcsICctaW1hZScsICc8aW5maWxlLm1hZT4nLCAnLW9tYWUnLCAnPG91dGZpbGUubWFlPic=

>  <r_lp_tautomer_probability>  (229) 
1

>  <r_epik_Ionization_Penalty>  (229) 
0.933236

>  <r_epik_Ionization_Penalty_Charging>  (229) 
0.933236

>  <r_epik_Ionization_Penalty_Neutral>  (229) 
8.12103e-11

>  <r_epik_State_Penalty>  (229) 
0.975958

>  <r_epik_Charging_Adjusted_Penalty>  (229) 
1.90919

>  <i_epik_Tot_Q>  (229) 
2

>  <i_epik_Tot_abs_Q>  (229) 
2

>  <s_epik_Chemistry_Notes>  (229) 
This compound has an imine and may undergo hydrolysis. This compound has a N-S or N-O group and may undergo hydrolysis at high or low pH.

>  <s_lp_Force_Field>  (229) 
OPLS3e

>  <r_lp_Energy>  (229) 
105.772

>  <b_lp_Chiralities_Consistent>  (229) 
1

>  <s_lp_Variant>  (229) 
66:0-2

>  <s_i_glide_gridfile>  (229) 
pfpi4k_grid

>  <i_i_glide_lignum>  (229) 
9

>  <i_i_glide_rotatable_bonds>  (229) 
0

>  <r_i_docking_score>  (229) 
-3.36992

>  <r_i_glide_ligand_efficiency>  (229) 
-0.160472

>  <r_i_glide_ligand_efficiency_sa>  (229) 
-0.442731

>  <r_i_glide_ligand_efficiency_ln>  (229) 
-0.833205

>  <r_i_glide_gscore>  (229) 
-3.36992

>  <r_i_glide_lipo>  (229) 
-0.104776

>  <r_i_glide_hbond>  (229) 
-0.0355064

>  <r_i_glide_metal>  (229) 
-0

>  <r_i_glide_rewards>  (229) 
-1.35261

>  <r_i_glide_evdw>  (229) 
-16.3792

>  <r_i_glide_ecoul>  (229) 
-5.95572

>  <r_i_glide_erotb>  (229) 
0

>  <r_i_glide_esite>  (229) 
-0.164702

>  <r_i_glide_emodel>  (229) 
-27.1148

>  <r_i_glide_energy>  (229) 
-22.3349

>  <r_i_glide_einternal>  (229) 
0

>  <r_i_glide_intrahb_reward>  (229) 
-0

>  <i_i_glide_confnum>  (229) 
1

>  <i_i_glide_posenum>  (229) 
1

>  <r_i_glide_eff_state_penalty>  (229) 
0

>  <ligand_id>  (229) 
66

>  <original_smiles>  (229) 
CC1=NC23CC4C(=O)CC5C(CCC4CC2N1S3)[N+]5(C)C

>  <smiles>  (229) 
[H][N+]1=C(C([H])([H])[H])N2SC13C([H])([H])C1([H])C(=O)C([H])([H])C4([H])C([H])(C([H])([H])C([H])([H])C1([H])C([H])([H])C23[H])[N+]4(C([H])([H])[H])C([H])([H])[H]

$$$$
66:1:1
     RDKit          3D

 46 50  0  0  1  0  0  0  0  0999 V2000
   -3.2633    5.0278    2.2370 C   0  0  0  0  0  0  0  0  0  0  0  0
   -2.2434    4.2379    2.9977 C   0  0  0  0  0  0  0  0  0  0  0  0
   -1.0332    4.6247    3.4457 N   0  0  0  0  0  0  0  0  0  0  0  0
   -0.6128    3.3791    4.0774 C   0  0  2  0  0  0  0  0  0  0  0  0
    0.7758    3.2309    4.6794 C   0  0  0  0  0  0  0  0  0  0  0  0
    1.4044    1.8193    4.3763 C   0  0  2  0  0  0  0  0  0  0  0  0
    2.1906    1.8535    3.0335 C   0  0  0  0  0  0  0  0  0  0  0  0
    1.8082    2.5154    2.0912 O   0  0  0  0  0  0  0  0  0  0  0  0
    3.4846    1.0327    2.9122 C   0  0  0  0  0  0  0  0  0  0  0  0
    3.2929   -0.4406    3.1448 C   0  0  1  0  0  0  0  0  0  0  0  0
    2.0602   -1.0060    2.4875 C   0  0  2  0  0  0  0  0  0  0  0  0
    1.1455   -1.6927    3.4691 C   0  0  0  0  0  0  0  0  0  0  0  0
    0.8217   -0.7941    4.7056 C   0  0  0  0  0  0  0  0  0  0  0  0
    0.3228    0.6739    4.4886 C   0  0  2  0  0  0  0  0  0  0  0  0
   -0.8916    0.8103    3.5046 C   0  0  0  0  0  0  0  0  0  0  0  0
   -1.1494    2.2943    3.1306 C   0  0  1  0  0  0  0  0  0  0  0  0
   -2.4195    2.9980    3.4151 N   0  0  0  0  0  0  0  0  0  0  0  0
   -2.0466    2.9072    5.0902 S   0  0  0  0  0  0  0  0  0  0  0  0
    3.3963   -1.4626    2.0955 N   0  0  0  0  0  0  0  0  0  0  0  0
    3.8569   -1.0547    0.7490 C   0  0  0  0  0  0  0  0  0  0  0  0
    3.8500   -2.8057    2.5234 C   0  0  0  0  0  0  0  0  0  0  0  0
   -3.8752    4.3700    1.6275 H   0  0  0  0  0  0  0  0  0  0  0  0
   -2.7961    5.7918    1.6129 H   0  0  0  0  0  0  0  0  0  0  0  0
   -3.9457    5.5603    2.8901 H   0  0  0  0  0  0  0  0  0  0  0  0
    1.4363    4.0342    4.3611 H   0  0  0  0  0  0  0  0  0  0  0  0
    0.7102    3.3433    5.7549 H   0  0  0  0  0  0  0  0  0  0  0  0
    2.1501    1.6418    5.1585 H   0  0  0  0  0  0  0  0  0  0  0  0
    3.8449    1.1926    1.9077 H   0  0  0  0  0  0  0  0  0  0  0  0
    4.2277    1.4019    3.6155 H   0  0  0  0  0  0  0  0  0  0  0  0
    3.6490   -0.8395    4.0941 H   0  0  0  0  0  0  0  0  0  0  0  0
    1.5881   -0.4621    1.6727 H   0  0  0  0  0  0  0  0  0  0  0  0
    0.2333   -1.9636    2.9543 H   0  0  0  0  0  0  0  0  0  0  0  0
    1.5857   -2.6158    3.8171 H   0  0  0  0  0  0  0  0  0  0  0  0
    0.0403   -1.3188    5.2684 H   0  0  0  0  0  0  0  0  0  0  0  0
    1.6807   -0.7488    5.3852 H   0  0  0  0  0  0  0  0  0  0  0  0
   -0.1055    0.8820    5.4695 H   0  0  0  0  0  0  0  0  0  0  0  0
   -0.6899    0.2481    2.5916 H   0  0  0  0  0  0  0  0  0  0  0  0
   -1.7695    0.3157    3.9337 H   0  0  0  0  0  0  0  0  0  0  0  0
   -0.8774    2.5031    2.0794 H   0  0  0  0  0  0  0  0  0  0  0  0
    3.5807   -1.8354    0.0251 H   0  0  0  0  0  0  0  0  0  0  0  0
    4.9501   -0.9615    0.7379 H   0  0  0  0  0  0  0  0  0  0  0  0
    3.4270   -0.1146    0.3712 H   0  0  0  0  0  0  0  0  0  0  0  0
    3.3801   -3.5733    1.8940 H   0  0  0  0  0  0  0  0  0  0  0  0
    3.6652   -3.0525    3.5788 H   0  0  0  0  0  0  0  0  0  0  0  0
    4.9388   -2.8748    2.3733 H   0  0  0  0  0  0  0  0  0  0  0  0
   -0.4885    5.4445    3.1938 H   0  0  0  0  0  0  0  0  0  0  0  0
  1  2  1  0
  1 22  1  0
  1 23  1  0
  1 24  1  0
  2 17  1  0
  2  3  2  0
  3  4  1  0
  3 46  1  0
  4 16  1  0
  4 18  1  0
  4  5  1  1
  5  6  1  0
  5 25  1  0
  5 26  1  0
  6 14  1  0
  6  7  1  0
  6 27  1  1
  7  8  2  0
  7  9  1  0
  9 10  1  0
  9 28  1  0
  9 29  1  0
 10 19  1  0
 10 11  1  0
 10 30  1  1
 11 12  1  0
 11 19  1  0
 11 31  1  6
 12 13  1  0
 12 32  1  0
 12 33  1  0
 13 14  1  0
 13 34  1  0
 13 35  1  0
 14 15  1  0
 14 36  1  1
 15 16  1  0
 15 37  1  0
 15 38  1  0
 16 17  1  0
 16 39  1  6
 17 18  1  0
 19 20  1  0
 19 21  1  0
 20 40  1  0
 20 41  1  0
 20 42  1  0
 21 43  1  0
 21 44  1  0
 21 45  1  0
M  CHG  2   3   1  19   1
M  END
>  <i_m_ct_stereo_status>  (230) 
1

>  <s_m_source_file>  (230) 
/var/tmp/pbs.5076255.sched01/tmpagfdxo7m/88tnrj_5ym.sdf

>  <i_m_source_file_index>  (230) 
9

>  <i_lp_mmshare_version>  (230) 
48012

>  <i_f3d_flags>  (230) 
0

>  <s_epik_input>  (230) 
W0NIM11DKD1OMSlOKFMyKVtDQEBIXShbQ0BAXTEyMylbQ0gyXVtDQEBIXTRbQ0BIXShbQ0gyXTMpQyg9TylbQ0gyXVtDQEhdNVtDQEhdKFtDSDJdW0NIMl00KVtOK101KFtDSDNdKVtDSDNd

>  <s_epik_cmdline>  (230) 
J2VwaWtfcHl0aG9uJywgJy1waHQnLCAnMi4wJywgJy1waCcsICc3LjAnLCAnLXRuJywgJzgnLCAnLW1hJywgJzIwMCcsICctaW1hZScsICc8aW5maWxlLm1hZT4nLCAnLW9tYWUnLCAnPG91dGZpbGUubWFlPic=

>  <r_lp_tautomer_probability>  (230) 
1

>  <r_epik_Ionization_Penalty>  (230) 
0.933236

>  <r_epik_Ionization_Penalty_Charging>  (230) 
0.933236

>  <r_epik_Ionization_Penalty_Neutral>  (230) 
8.12103e-11

>  <r_epik_State_Penalty>  (230) 
0.975958

>  <r_epik_Charging_Adjusted_Penalty>  (230) 
1.90919

>  <i_epik_Tot_Q>  (230) 
2

>  <i_epik_Tot_abs_Q>  (230) 
2

>  <s_epik_Chemistry_Notes>  (230) 
This compound has an imine and may undergo hydrolysis. This compound has a N-S or N-O group and may undergo hydrolysis at high or low pH.

>  <s_lp_Force_Field>  (230) 
OPLS3e

>  <r_lp_Energy>  (230) 
105.772

>  <b_lp_Chiralities_Consistent>  (230) 
1

>  <s_lp_Variant>  (230) 
66:0-2

>  <s_i_glide_gridfile>  (230) 
pfpi4k_grid

>  <i_i_glide_lignum>  (230) 
9

>  <i_i_glide_rotatable_bonds>  (230) 
0

>  <r_i_docking_score>  (230) 
-2.94739

>  <r_i_glide_ligand_efficiency>  (230) 
-0.140352

>  <r_i_glide_ligand_efficiency_sa>  (230) 
-0.38722

>  <r_i_glide_ligand_efficiency_ln>  (230) 
-0.728736

>  <r_i_glide_gscore>  (230) 
-2.94739

>  <r_i_glide_lipo>  (230) 
-0.00789243

>  <r_i_glide_hbond>  (230) 
0

>  <r_i_glide_metal>  (230) 
-0

>  <r_i_glide_rewards>  (230) 
-1.31281

>  <r_i_glide_evdw>  (230) 
-15.3479

>  <r_i_glide_ecoul>  (230) 
-3.9607

>  <r_i_glide_erotb>  (230) 
0

>  <r_i_glide_esite>  (230) 
-0.265192

>  <r_i_glide_emodel>  (230) 
-23.3446

>  <r_i_glide_energy>  (230) 
-19.3086

>  <r_i_glide_einternal>  (230) 
0

>  <r_i_glide_intrahb_reward>  (230) 
-0

>  <i_i_glide_confnum>  (230) 
2

>  <i_i_glide_posenum>  (230) 
5

>  <r_i_glide_eff_state_penalty>  (230) 
0

>  <ligand_id>  (230) 
66

>  <original_smiles>  (230) 
CC1=NC23CC4C(=O)CC5C(CCC4CC2N1S3)[N+]5(C)C

>  <smiles>  (230) 
[H][N+]1=C(C([H])([H])[H])N2SC13C([H])([H])C1([H])C(=O)C([H])([H])C4([H])C([H])(C([H])([H])C([H])([H])C1([H])C([H])([H])C23[H])[N+]4(C([H])([H])[H])C([H])([H])[H]

$$$$
66:1:2
     RDKit          3D

 46 50  0  0  1  0  0  0  0  0999 V2000
    1.8267    0.3339   -5.0037 C   0  0  0  0  0  0  0  0  0  0  0  0
    2.4596   -0.6562   -4.0395 C   0  0  0  0  0  0  0  0  0  0  0  0
    2.2252   -1.9646   -3.8001 N   0  0  0  0  0  0  0  0  0  0  0  0
    3.3108   -2.2428   -2.8450 C   0  0  2  0  0  0  0  0  0  0  0  0
    3.6822   -3.6092   -2.2883 C   0  0  0  0  0  0  0  0  0  0  0  0
    4.1517   -3.5422   -0.7901 C   0  0  2  0  0  0  0  0  0  0  0  0
    2.8883   -3.5666    0.0814 C   0  0  0  0  0  0  0  0  0  0  0  0
    1.8628   -3.1016   -0.3777 O   0  0  0  0  0  0  0  0  0  0  0  0
    2.8626   -4.2433    1.4717 C   0  0  0  0  0  0  0  0  0  0  0  0
    3.9395   -3.7058    2.4015 C   0  0  1  0  0  0  0  0  0  0  0  0
    4.0669   -2.1915    2.3951 C   0  0  2  0  0  0  0  0  0  0  0  0
    5.4674   -1.7203    2.0790 C   0  0  0  0  0  0  0  0  0  0  0  0
    6.0064   -2.3532    0.7586 C   0  0  0  0  0  0  0  0  0  0  0  0
    5.1510   -2.3312   -0.5509 C   0  0  2  0  0  0  0  0  0  0  0  0
    4.6260   -0.9051   -0.9442 C   0  0  0  0  0  0  0  0  0  0  0  0
    3.5191   -0.9725   -2.0322 C   0  0  1  0  0  0  0  0  0  0  0  0
    3.5571   -0.3502   -3.3775 N   0  0  0  0  0  0  0  0  0  0  0  0
    4.6268   -1.5656   -3.7861 S   0  0  0  0  0  0  0  0  0  0  0  0
    3.6643   -2.9061    3.6331 N   0  0  0  0  0  0  0  0  0  0  0  0
    2.2660   -2.7357    4.0695 C   0  0  0  0  0  0  0  0  0  0  0  0
    4.6373   -3.0531    4.7361 C   0  0  0  0  0  0  0  0  0  0  0  0
    1.8089    1.3261   -4.5654 H   0  0  0  0  0  0  0  0  0  0  0  0
    0.8081    0.0535   -5.2178 H   0  0  0  0  0  0  0  0  0  0  0  0
    2.3989    0.4097   -5.9290 H   0  0  0  0  0  0  0  0  0  0  0  0
    2.8037   -4.2282   -2.4238 H   0  0  0  0  0  0  0  0  0  0  0  0
    4.4955   -4.0598   -2.8656 H   0  0  0  0  0  0  0  0  0  0  0  0
    4.6878   -4.4693   -0.5694 H   0  0  0  0  0  0  0  0  0  0  0  0
    1.8740   -4.1490    1.9251 H   0  0  0  0  0  0  0  0  0  0  0  0
    3.0606   -5.3084    1.3335 H   0  0  0  0  0  0  0  0  0  0  0  0
    4.8358   -4.3050    2.5523 H   0  0  0  0  0  0  0  0  0  0  0  0
    3.2364   -1.5868    2.0448 H   0  0  0  0  0  0  0  0  0  0  0  0
    5.4411   -0.6363    1.9758 H   0  0  0  0  0  0  0  0  0  0  0  0
    6.1652   -1.9208    2.8897 H   0  0  0  0  0  0  0  0  0  0  0  0
    6.9458   -1.8480    0.5323 H   0  0  0  0  0  0  0  0  0  0  0  0
    6.2941   -3.3885    0.9452 H   0  0  0  0  0  0  0  0  0  0  0  0
    5.9062   -2.5324   -1.3164 H   0  0  0  0  0  0  0  0  0  0  0  0
    4.1775   -0.4276   -0.0689 H   0  0  0  0  0  0  0  0  0  0  0  0
    5.4585   -0.2564   -1.2333 H   0  0  0  0  0  0  0  0  0  0  0  0
    2.6069   -0.6523   -1.5746 H   0  0  0  0  0  0  0  0  0  0  0  0
    2.2076   -1.9224    4.7977 H   0  0  0  0  0  0  0  0  0  0  0  0
    1.9214   -3.6224    4.6085 H   0  0  0  0  0  0  0  0  0  0  0  0
    1.5434   -2.5086    3.2853 H   0  0  0  0  0  0  0  0  0  0  0  0
    4.6919   -2.1301    5.3178 H   0  0  0  0  0  0  0  0  0  0  0  0
    5.6444   -3.3474    4.4481 H   0  0  0  0  0  0  0  0  0  0  0  0
    4.2795   -3.8134    5.4376 H   0  0  0  0  0  0  0  0  0  0  0  0
    1.6345   -2.6295   -4.3144 H   0  0  0  0  0  0  0  0  0  0  0  0
  1  2  1  0
  1 22  1  0
  1 23  1  0
  1 24  1  0
  2 17  1  0
  2  3  2  0
  3  4  1  0
  3 46  1  0
  4 16  1  0
  4 18  1  0
  4  5  1  1
  5  6  1  0
  5 25  1  0
  5 26  1  0
  6 14  1  0
  6  7  1  0
  6 27  1  1
  7  8  2  0
  7  9  1  0
  9 10  1  0
  9 28  1  0
  9 29  1  0
 10 19  1  0
 10 11  1  0
 10 30  1  1
 11 12  1  0
 11 19  1  0
 11 31  1  6
 12 13  1  0
 12 32  1  0
 12 33  1  0
 13 14  1  0
 13 34  1  0
 13 35  1  0
 14 15  1  0
 14 36  1  6
 15 16  1  0
 15 37  1  0
 15 38  1  0
 16 17  1  0
 16 39  1  1
 17 18  1  0
 19 20  1  0
 19 21  1  0
 20 40  1  0
 20 41  1  0
 20 42  1  0
 21 43  1  0
 21 44  1  0
 21 45  1  0
M  CHG  2   3   1  19   1
M  END
>  <i_m_ct_stereo_status>  (231) 
1

>  <s_m_source_file>  (231) 
/var/tmp/pbs.5076255.sched01/tmpagfdxo7m/88tnrj_5ym.sdf

>  <i_m_source_file_index>  (231) 
9

>  <i_lp_mmshare_version>  (231) 
48012

>  <i_f3d_flags>  (231) 
0

>  <s_epik_input>  (231) 
W0NIM11DKD1OMSlOKFMyKVtDQEBIXShbQ0BAXTEyMylbQ0gyXVtDQEBIXTRbQ0BIXShbQ0gyXTMpQyg9TylbQ0gyXVtDQEhdNVtDQEhdKFtDSDJdW0NIMl00KVtOK101KFtDSDNdKVtDSDNd

>  <s_epik_cmdline>  (231) 
J2VwaWtfcHl0aG9uJywgJy1waHQnLCAnMi4wJywgJy1waCcsICc3LjAnLCAnLXRuJywgJzgnLCAnLW1hJywgJzIwMCcsICctaW1hZScsICc8aW5maWxlLm1hZT4nLCAnLW9tYWUnLCAnPG91dGZpbGUubWFlPic=

>  <r_lp_tautomer_probability>  (231) 
1

>  <r_epik_Ionization_Penalty>  (231) 
0.933236

>  <r_epik_Ionization_Penalty_Charging>  (231) 
0.933236

>  <r_epik_Ionization_Penalty_Neutral>  (231) 
8.12103e-11

>  <r_epik_State_Penalty>  (231) 
0.975958

>  <r_epik_Charging_Adjusted_Penalty>  (231) 
1.90919

>  <i_epik_Tot_Q>  (231) 
2

>  <i_epik_Tot_abs_Q>  (231) 
2

>  <s_epik_Chemistry_Notes>  (231) 
This compound has an imine and may undergo hydrolysis. This compound has a N-S or N-O group and may undergo hydrolysis at high or low pH.

>  <s_lp_Force_Field>  (231) 
OPLS3e

>  <r_lp_Energy>  (231) 
105.772

>  <b_lp_Chiralities_Consistent>  (231) 
1

>  <s_lp_Variant>  (231) 
66:0-2

>  <s_i_glide_gridfile>  (231) 
pfpi4k_grid

>  <i_i_glide_lignum>  (231) 
9

>  <i_i_glide_rotatable_bonds>  (231) 
0

>  <r_i_docking_score>  (231) 
-2.68234

>  <r_i_glide_ligand_efficiency>  (231) 
-0.127731

>  <r_i_glide_ligand_efficiency_sa>  (231) 
-0.352399

>  <r_i_glide_ligand_efficiency_ln>  (231) 
-0.663203

>  <r_i_glide_gscore>  (231) 
-2.68234

>  <r_i_glide_lipo>  (231) 
-0.258671

>  <r_i_glide_hbond>  (231) 
-0.0613291

>  <r_i_glide_metal>  (231) 
-0

>  <r_i_glide_rewards>  (231) 
-1.67564

>  <r_i_glide_evdw>  (231) 
3.22078

>  <r_i_glide_ecoul>  (231) 
-5.53638

>  <r_i_glide_erotb>  (231) 
0

>  <r_i_glide_esite>  (231) 
-0.0172782

>  <r_i_glide_emodel>  (231) 
-3.83487

>  <r_i_glide_energy>  (231) 
-2.3156

>  <r_i_glide_einternal>  (231) 
0

>  <r_i_glide_intrahb_reward>  (231) 
-0

>  <i_i_glide_confnum>  (231) 
2

>  <i_i_glide_posenum>  (231) 
30

>  <r_i_glide_eff_state_penalty>  (231) 
0

>  <ligand_id>  (231) 
66

>  <original_smiles>  (231) 
CC1=NC23CC4C(=O)CC5C(CCC4CC2N1S3)[N+]5(C)C

>  <smiles>  (231) 
[H][N+]1=C(C([H])([H])[H])N2SC13C([H])([H])C1([H])C(=O)C([H])([H])C4([H])C([H])(C([H])([H])C([H])([H])C1([H])C([H])([H])C23[H])[N+]4(C([H])([H])[H])C([H])([H])[H]

$$$$
67:0:0
     RDKit          3D

 55 61  0  0  1  0  0  0  0  0999 V2000
    0.7503    8.5783    5.2926 C   0  0  0  0  0  0  0  0  0  0  0  0
   -0.1677    7.5501    4.9510 O   0  0  0  0  0  0  0  0  0  0  0  0
    0.4548    6.5028    4.2216 C   0  0  2  0  0  0  0  0  0  0  0  0
   -0.4806    5.3179    3.9230 C   0  0  0  0  0  0  0  0  0  0  0  0
    0.7341    4.4183    4.2006 C   0  0  1  0  0  0  0  0  0  0  0  0
    1.2433    5.5353    5.1128 C   0  0  1  0  0  0  0  0  0  0  0  0
    2.7461    5.6345    5.2633 C   0  0  0  0  0  0  0  0  0  0  0  0
    3.4066    4.5143    6.1083 C   0  0  0  0  0  0  0  0  0  0  0  0
    2.7035    3.1349    6.3584 C   0  0  1  0  0  0  0  0  0  0  0  0
    1.7822    3.1430    7.6206 C   0  0  0  0  0  0  0  0  0  0  0  0
    0.3148    3.0630    7.3112 C   0  0  0  0  0  0  0  0  0  0  0  0
   -0.1822    2.9944    6.0383 C   0  0  0  0  0  0  0  0  0  0  0  0
   -1.5609    2.9079    6.0842 N   0  0  0  0  0  0  0  0  0  0  0  0
   -1.9931    2.9510    7.3964 C   0  0  0  0  0  0  0  0  0  0  0  0
   -3.2748    2.9192    7.9652 C   0  0  0  0  0  0  0  0  0  0  0  0
   -3.4151    2.9682    9.3636 C   0  0  0  0  0  0  0  0  0  0  0  0
   -2.2717    3.0500   10.1777 C   0  0  0  0  0  0  0  0  0  0  0  0
   -0.9891    3.0909    9.5990 C   0  0  0  0  0  0  0  0  0  0  0  0
   -0.8153    3.0423    8.1937 C   0  0  0  0  0  0  0  0  0  0  0  0
    0.6449    3.0135    4.7915 C   0  0  2  0  0  0  0  0  0  0  0  0
    2.0618    2.4151    5.1151 C   0  0  1  0  0  0  0  0  0  0  0  0
    3.0415    2.4096    3.8958 C   0  0  0  0  0  0  0  0  0  0  0  0
    2.5229    1.5494    2.7112 C   0  0  0  0  0  0  0  0  0  0  0  0
    1.9346    0.3200    3.2167 N   0  0  0  0  0  0  0  0  0  0  0  0
    1.5533   -0.7292    2.4518 N   0  0  0  0  0  0  0  0  0  0  0  0
    1.0320   -1.6093    3.2695 N   0  0  0  0  0  0  0  0  0  0  0  0
    1.0512   -1.1587    4.5850 N   0  0  0  0  0  0  0  0  0  0  0  0
    1.6109    0.0308    4.4718 C   0  0  0  0  0  0  0  0  0  0  0  0
    1.8481    1.0036    5.4287 N   0  0  0  0  0  0  0  0  0  0  0  0
   -2.1312    2.8389    5.2551 H   0  0  0  0  0  0  0  0  0  0  0  0
    0.2286    9.3865    5.8022 H   0  0  0  0  0  0  0  0  0  0  0  0
    1.2502    8.9915    4.4141 H   0  0  0  0  0  0  0  0  0  0  0  0
    1.5119    8.2093    5.9769 H   0  0  0  0  0  0  0  0  0  0  0  0
    1.0110    6.8203    3.3347 H   0  0  0  0  0  0  0  0  0  0  0  0
   -1.2855    5.1910    4.6507 H   0  0  0  0  0  0  0  0  0  0  0  0
   -0.8302    5.2661    2.8889 H   0  0  0  0  0  0  0  0  0  0  0  0
    1.3197    4.4037    3.2771 H   0  0  0  0  0  0  0  0  0  0  0  0
    0.7495    5.5062    6.0873 H   0  0  0  0  0  0  0  0  0  0  0  0
    3.1942    5.6400    4.2662 H   0  0  0  0  0  0  0  0  0  0  0  0
    3.0208    6.5986    5.6911 H   0  0  0  0  0  0  0  0  0  0  0  0
    4.3756    4.3220    5.6481 H   0  0  0  0  0  0  0  0  0  0  0  0
    3.6552    4.9455    7.0783 H   0  0  0  0  0  0  0  0  0  0  0  0
    3.5499    2.5114    6.6568 H   0  0  0  0  0  0  0  0  0  0  0  0
    2.0412    2.2764    8.2289 H   0  0  0  0  0  0  0  0  0  0  0  0
    1.9852    4.0042    8.2561 H   0  0  0  0  0  0  0  0  0  0  0  0
   -4.1429    2.8364    7.3339 H   0  0  0  0  0  0  0  0  0  0  0  0
   -4.3972    2.9322    9.8129 H   0  0  0  0  0  0  0  0  0  0  0  0
   -2.3817    3.0744   11.2557 H   0  0  0  0  0  0  0  0  0  0  0  0
   -0.1207    3.1612   10.2352 H   0  0  0  0  0  0  0  0  0  0  0  0
    0.1495    2.3808    4.0543 H   0  0  0  0  0  0  0  0  0  0  0  0
    3.3250    3.4098    3.5575 H   0  0  0  0  0  0  0  0  0  0  0  0
    3.9769    1.9582    4.2353 H   0  0  0  0  0  0  0  0  0  0  0  0
    1.7550    2.1006    2.1681 H   0  0  0  0  0  0  0  0  0  0  0  0
    3.3302    1.3142    2.0194 H   0  0  0  0  0  0  0  0  0  0  0  0
    1.5122    0.7995    6.3569 H   0  0  0  0  0  0  0  0  0  0  0  0
  1  2  1  0
  1 31  1  0
  1 32  1  0
  1 33  1  0
  2  3  1  0
  3  6  1  0
  3  4  1  0
  3 34  1  6
  4  5  1  0
  4 35  1  0
  4 36  1  0
  5 20  1  0
  5  6  1  0
  5 37  1  6
  6  7  1  0
  6 38  1  1
  7  8  1  0
  7 39  1  0
  7 40  1  0
  8  9  1  0
  8 41  1  0
  8 42  1  0
  9 21  1  0
  9 10  1  0
  9 43  1  1
 10 11  1  0
 10 44  1  0
 10 45  1  0
 11 19  1  0
 11 12  2  0
 12 13  1  0
 12 20  1  0
 13 30  1  0
 13 14  1  0
 14 19  2  0
 14 15  1  0
 15 16  2  0
 15 46  1  0
 16 17  1  0
 16 47  1  0
 17 18  2  0
 17 48  1  0
 18 19  1  0
 18 49  1  0
 20 21  1  0
 20 50  1  6
 21 29  1  1
 21 22  1  0
 22 23  1  0
 22 51  1  0
 22 52  1  0
 23 24  1  0
 23 53  1  0
 23 54  1  0
 24 28  1  0
 24 25  1  0
 25 26  2  0
 26 27  1  0
 27 28  2  0
 28 29  1  0
 29 55  1  0
M  END
>  <i_m_ct_stereo_status>  (232) 
1

>  <s_m_source_file>  (232) 
/var/tmp/pbs.5076255.sched01/tmpagfdxo7m/88tnrj_5ym.sdf

>  <i_m_source_file_index>  (232) 
10

>  <i_lp_mmshare_version>  (232) 
48012

>  <i_f3d_flags>  (232) 
0

>  <s_epik_input>  (232) 
W2NIXTFbY0hdW2NIXVtjSF1jKFtuSF0yKWMxYyhbQ0gyXTMpYzJbQ0BIXTRbQ0BASF0oW0NIMl1bQ0BIXTVPW0NIM10pW0NASF01W0NIMl1bQ0gyXVtDQEBIXTNbQ0BdNDZbQ0gyXVtDSDJdbjdjKFtOSF02KW5ubjc=

>  <s_epik_cmdline>  (232) 
J2VwaWtfcHl0aG9uJywgJy1waHQnLCAnMi4wJywgJy1waCcsICc3LjAnLCAnLXRuJywgJzgnLCAnLW1hJywgJzIwMCcsICctaW1hZScsICc8aW5maWxlLm1hZT4nLCAnLW9tYWUnLCAnPG91dGZpbGUubWFlPic=

>  <r_lp_tautomer_probability>  (232) 
1

>  <r_epik_Ionization_Penalty>  (232) 
1.10305e-06

>  <r_epik_Ionization_Penalty_Charging>  (232) 
0

>  <r_epik_Ionization_Penalty_Neutral>  (232) 
1.10305e-06

>  <r_epik_State_Penalty>  (232) 
-0

>  <r_epik_Charging_Adjusted_Penalty>  (232) 
0

>  <i_epik_Tot_Q>  (232) 
0

>  <i_epik_Tot_abs_Q>  (232) 
0

>  <s_lp_Force_Field>  (232) 
OPLS3e

>  <r_lp_Energy>  (232) 
60.4586

>  <b_lp_Chiralities_Consistent>  (232) 
1

>  <s_lp_Variant>  (232) 
67:0-1

>  <s_i_glide_gridfile>  (232) 
pfpi4k_grid

>  <i_i_glide_lignum>  (232) 
10

>  <i_i_glide_rotatable_bonds>  (232) 
1

>  <r_i_docking_score>  (232) 
-2.63542

>  <r_i_glide_ligand_efficiency>  (232) 
-0.0908767

>  <r_i_glide_ligand_efficiency_sa>  (232) 
-0.279202

>  <r_i_glide_ligand_efficiency_ln>  (232) 
-0.603445

>  <r_i_glide_gscore>  (232) 
-2.63542

>  <r_i_glide_lipo>  (232) 
-0.144442

>  <r_i_glide_hbond>  (232) 
-0.134656

>  <r_i_glide_metal>  (232) 
-0

>  <r_i_glide_rewards>  (232) 
-0.746717

>  <r_i_glide_evdw>  (232) 
-21.7447

>  <r_i_glide_ecoul>  (232) 
-3.16496

>  <r_i_glide_erotb>  (232) 
0

>  <r_i_glide_esite>  (232) 
-0.0476308

>  <r_i_glide_emodel>  (232) 
-29.2906

>  <r_i_glide_energy>  (232) 
-24.9096

>  <r_i_glide_einternal>  (232) 
0.273187

>  <r_i_glide_intrahb_reward>  (232) 
-0

>  <i_i_glide_confnum>  (232) 
1

>  <i_i_glide_posenum>  (232) 
21

>  <r_i_glide_eff_state_penalty>  (232) 
0

>  <ligand_id>  (232) 
67

>  <original_smiles>  (232) 
COC1CC2C1CCC1Cc3c([nH]c4ccccc34)C2C12CCn1nnnc1N2

>  <smiles>  (232) 
[H]c1c([H])c([H])c2c(c1[H])c1c(n2[H])C2([H])C3([H])C([H])([H])C([H])(OC([H])([H])[H])C3([H])C([H])([H])C([H])([H])C([H])(C1([H])[H])C21N([H])c2nnnn2C([H])([H])C1([H])[H]

$$$$
67:0:1
     RDKit          3D

 55 61  0  0  1  0  0  0  0  0999 V2000
    3.5292  -10.3767    6.8484 C   0  0  0  0  0  0  0  0  0  0  0  0
    4.7551   -9.8172    7.3010 O   0  0  0  0  0  0  0  0  0  0  0  0
    5.5592   -9.1550    6.3343 C   0  0  2  0  0  0  0  0  0  0  0  0
    5.1831   -7.6955    6.0440 C   0  0  0  0  0  0  0  0  0  0  0  0
    5.6344   -7.9624    4.5911 C   0  0  1  0  0  0  0  0  0  0  0  0
    5.2858   -9.4286    4.8409 C   0  0  1  0  0  0  0  0  0  0  0  0
    6.0530  -10.4705    4.0714 C   0  0  0  0  0  0  0  0  0  0  0  0
    5.6575  -10.5768    2.5752 C   0  0  0  0  0  0  0  0  0  0  0  0
    4.9242   -9.4025    1.8248 C   0  0  1  0  0  0  0  0  0  0  0  0
    3.3631   -9.4855    1.9233 C   0  0  0  0  0  0  0  0  0  0  0  0
    2.7420   -8.4057    2.7687 C   0  0  0  0  0  0  0  0  0  0  0  0
    3.4727   -7.4382    3.4051 C   0  0  0  0  0  0  0  0  0  0  0  0
    2.6118   -6.5963    4.0910 N   0  0  0  0  0  0  0  0  0  0  0  0
    1.3077   -7.0074    3.9254 C   0  0  0  0  0  0  0  0  0  0  0  0
    0.0896   -6.4981    4.4133 C   0  0  0  0  0  0  0  0  0  0  0  0
   -1.1107   -7.1427    4.0774 C   0  0  0  0  0  0  0  0  0  0  0  0
   -1.0889   -8.2837    3.2502 C   0  0  0  0  0  0  0  0  0  0  0  0
    0.1328   -8.7843    2.7661 C   0  0  0  0  0  0  0  0  0  0  0  0
    1.3617   -8.1599    3.0878 C   0  0  0  0  0  0  0  0  0  0  0  0
    4.9722   -7.3189    3.3737 C   0  0  2  0  0  0  0  0  0  0  0  0
    5.4909   -7.9457    2.0267 C   0  0  1  0  0  0  0  0  0  0  0  0
    7.0482   -7.9243    1.8842 C   0  0  0  0  0  0  0  0  0  0  0  0
    7.6352   -6.4889    1.9042 C   0  0  0  0  0  0  0  0  0  0  0  0
    6.7879   -5.6007    1.1215 N   0  0  0  0  0  0  0  0  0  0  0  0
    7.1060   -4.3305    0.7845 N   0  0  0  0  0  0  0  0  0  0  0  0
    6.0772   -3.8597    0.1301 N   0  0  0  0  0  0  0  0  0  0  0  0
    5.0539   -4.8044    0.0292 N   0  0  0  0  0  0  0  0  0  0  0  0
    5.5621   -5.8435    0.6716 C   0  0  0  0  0  0  0  0  0  0  0  0
    5.0029   -7.0784    0.9542 N   0  0  0  0  0  0  0  0  0  0  0  0
    2.9410   -5.8139    4.6380 H   0  0  0  0  0  0  0  0  0  0  0  0
    3.0171  -10.8605    7.6730 H   0  0  0  0  0  0  0  0  0  0  0  0
    3.7053  -11.1341    6.0776 H   0  0  0  0  0  0  0  0  0  0  0  0
    2.8712   -9.6063    6.4339 H   0  0  0  0  0  0  0  0  0  0  0  0
    6.6177   -9.2470    6.5853 H   0  0  0  0  0  0  0  0  0  0  0  0
    4.1141   -7.4986    6.1705 H   0  0  0  0  0  0  0  0  0  0  0  0
    5.7969   -6.9584    6.5638 H   0  0  0  0  0  0  0  0  0  0  0  0
    6.7249   -7.8363    4.5600 H   0  0  0  0  0  0  0  0  0  0  0  0
    4.2147   -9.5574    4.6542 H   0  0  0  0  0  0  0  0  0  0  0  0
    7.1277  -10.2735    4.1551 H   0  0  0  0  0  0  0  0  0  0  0  0
    5.9035  -11.4397    4.5497 H   0  0  0  0  0  0  0  0  0  0  0  0
    6.5738  -10.8073    2.0318 H   0  0  0  0  0  0  0  0  0  0  0  0
    5.0461  -11.4751    2.4671 H   0  0  0  0  0  0  0  0  0  0  0  0
    5.1281   -9.6581    0.7836 H   0  0  0  0  0  0  0  0  0  0  0  0
    2.9582   -9.3945    0.9138 H   0  0  0  0  0  0  0  0  0  0  0  0
    3.0415  -10.4696    2.2633 H   0  0  0  0  0  0  0  0  0  0  0  0
    0.0926   -5.6289    5.0488 H   0  0  0  0  0  0  0  0  0  0  0  0
   -2.0500   -6.7688    4.4566 H   0  0  0  0  0  0  0  0  0  0  0  0
   -2.0087   -8.7900    2.9994 H   0  0  0  0  0  0  0  0  0  0  0  0
    0.1439   -9.6626    2.1390 H   0  0  0  0  0  0  0  0  0  0  0  0
    5.2161   -6.2560    3.3975 H   0  0  0  0  0  0  0  0  0  0  0  0
    7.5623   -8.5612    2.6090 H   0  0  0  0  0  0  0  0  0  0  0  0
    7.2938   -8.3650    0.9142 H   0  0  0  0  0  0  0  0  0  0  0  0
    7.6612   -6.1159    2.9270 H   0  0  0  0  0  0  0  0  0  0  0  0
    8.6465   -6.4768    1.5039 H   0  0  0  0  0  0  0  0  0  0  0  0
    4.0345   -7.2064    0.6909 H   0  0  0  0  0  0  0  0  0  0  0  0
  1  2  1  0
  1 31  1  0
  1 32  1  0
  1 33  1  0
  2  3  1  0
  3  6  1  0
  3  4  1  0
  3 34  1  1
  4  5  1  0
  4 35  1  0
  4 36  1  0
  5 20  1  0
  5  6  1  0
  5 37  1  1
  6  7  1  0
  6 38  1  1
  7  8  1  0
  7 39  1  0
  7 40  1  0
  8  9  1  0
  8 41  1  0
  8 42  1  0
  9 21  1  0
  9 10  1  0
  9 43  1  6
 10 11  1  0
 10 44  1  0
 10 45  1  0
 11 19  1  0
 11 12  2  0
 12 13  1  0
 12 20  1  0
 13 30  1  0
 13 14  1  0
 14 19  2  0
 14 15  1  0
 15 16  2  0
 15 46  1  0
 16 17  1  0
 16 47  1  0
 17 18  2  0
 17 48  1  0
 18 19  1  0
 18 49  1  0
 20 21  1  0
 20 50  1  6
 21 29  1  6
 21 22  1  0
 22 23  1  0
 22 51  1  0
 22 52  1  0
 23 24  1  0
 23 53  1  0
 23 54  1  0
 24 28  1  0
 24 25  1  0
 25 26  2  0
 26 27  1  0
 27 28  2  0
 28 29  1  0
 29 55  1  0
M  END
>  <i_m_ct_stereo_status>  (233) 
1

>  <s_m_source_file>  (233) 
/var/tmp/pbs.5076255.sched01/tmpagfdxo7m/88tnrj_5ym.sdf

>  <i_m_source_file_index>  (233) 
10

>  <i_lp_mmshare_version>  (233) 
48012

>  <i_f3d_flags>  (233) 
0

>  <s_epik_input>  (233) 
W2NIXTFbY0hdW2NIXVtjSF1jKFtuSF0yKWMxYyhbQ0gyXTMpYzJbQ0BIXTRbQ0BASF0oW0NIMl1bQ0BIXTVPW0NIM10pW0NASF01W0NIMl1bQ0gyXVtDQEBIXTNbQ0BdNDZbQ0gyXVtDSDJdbjdjKFtOSF02KW5ubjc=

>  <s_epik_cmdline>  (233) 
J2VwaWtfcHl0aG9uJywgJy1waHQnLCAnMi4wJywgJy1waCcsICc3LjAnLCAnLXRuJywgJzgnLCAnLW1hJywgJzIwMCcsICctaW1hZScsICc8aW5maWxlLm1hZT4nLCAnLW9tYWUnLCAnPG91dGZpbGUubWFlPic=

>  <r_lp_tautomer_probability>  (233) 
1

>  <r_epik_Ionization_Penalty>  (233) 
1.10305e-06

>  <r_epik_Ionization_Penalty_Charging>  (233) 
0

>  <r_epik_Ionization_Penalty_Neutral>  (233) 
1.10305e-06

>  <r_epik_State_Penalty>  (233) 
-0

>  <r_epik_Charging_Adjusted_Penalty>  (233) 
0

>  <i_epik_Tot_Q>  (233) 
0

>  <i_epik_Tot_abs_Q>  (233) 
0

>  <s_lp_Force_Field>  (233) 
OPLS3e

>  <r_lp_Energy>  (233) 
60.4586

>  <b_lp_Chiralities_Consistent>  (233) 
1

>  <s_lp_Variant>  (233) 
67:0-1

>  <s_i_glide_gridfile>  (233) 
pfpi4k_grid

>  <i_i_glide_lignum>  (233) 
10

>  <i_i_glide_rotatable_bonds>  (233) 
1

>  <r_i_docking_score>  (233) 
-2.52059

>  <r_i_glide_ligand_efficiency>  (233) 
-0.0869167

>  <r_i_glide_ligand_efficiency_sa>  (233) 
-0.267036

>  <r_i_glide_ligand_efficiency_ln>  (233) 
-0.57715

>  <r_i_glide_gscore>  (233) 
-2.52059

>  <r_i_glide_lipo>  (233) 
-0.143116

>  <r_i_glide_hbond>  (233) 
0

>  <r_i_glide_metal>  (233) 
-0

>  <r_i_glide_rewards>  (233) 
-1.0034

>  <r_i_glide_evdw>  (233) 
-25.3662

>  <r_i_glide_ecoul>  (233) 
-0.70324

>  <r_i_glide_erotb>  (233) 
0

>  <r_i_glide_esite>  (233) 
-0.00027914

>  <r_i_glide_emodel>  (233) 
-24.7525

>  <r_i_glide_energy>  (233) 
-26.0694

>  <r_i_glide_einternal>  (233) 
10.669

>  <r_i_glide_intrahb_reward>  (233) 
-0

>  <i_i_glide_confnum>  (233) 
2

>  <i_i_glide_posenum>  (233) 
5

>  <r_i_glide_eff_state_penalty>  (233) 
0

>  <ligand_id>  (233) 
67

>  <original_smiles>  (233) 
COC1CC2C1CCC1Cc3c([nH]c4ccccc34)C2C12CCn1nnnc1N2

>  <smiles>  (233) 
[H]c1c([H])c([H])c2c(c1[H])c1c(n2[H])C2([H])C3([H])C([H])([H])C([H])(OC([H])([H])[H])C3([H])C([H])([H])C([H])([H])C([H])(C1([H])[H])C21N([H])c2nnnn2C([H])([H])C1([H])[H]

$$$$
67:0:2
     RDKit          3D

 55 61  0  0  1  0  0  0  0  0999 V2000
    4.4620  -11.4500    7.3750 C   0  0  0  0  0  0  0  0  0  0  0  0
    4.2708  -10.0438    7.2904 O   0  0  0  0  0  0  0  0  0  0  0  0
    5.1612   -9.4365    6.3683 C   0  0  2  0  0  0  0  0  0  0  0  0
    4.8277   -7.9625    6.0821 C   0  0  0  0  0  0  0  0  0  0  0  0
    5.2250   -8.2502    4.6214 C   0  0  1  0  0  0  0  0  0  0  0  0
    4.8194   -9.6987    4.8962 C   0  0  1  0  0  0  0  0  0  0  0  0
    5.5320  -10.7590    4.0861 C   0  0  0  0  0  0  0  0  0  0  0  0
    5.1475  -10.8208    2.5869 C   0  0  0  0  0  0  0  0  0  0  0  0
    4.4846   -9.6126    1.8375 C   0  0  1  0  0  0  0  0  0  0  0  0
    2.9277   -9.6212    1.9366 C   0  0  0  0  0  0  0  0  0  0  0  0
    2.3666   -8.5200    2.7868 C   0  0  0  0  0  0  0  0  0  0  0  0
    3.1383   -7.6043    3.4299 C   0  0  0  0  0  0  0  0  0  0  0  0
    2.3283   -6.7108    4.1118 N   0  0  0  0  0  0  0  0  0  0  0  0
    1.0057   -7.0557    3.9421 C   0  0  0  0  0  0  0  0  0  0  0  0
   -0.1933   -6.4878    4.4294 C   0  0  0  0  0  0  0  0  0  0  0  0
   -1.4272   -7.0662    4.0919 C   0  0  0  0  0  0  0  0  0  0  0  0
   -1.4622   -8.2010    3.2565 C   0  0  0  0  0  0  0  0  0  0  0  0
   -0.2610   -8.7587    2.7741 C   0  0  0  0  0  0  0  0  0  0  0  0
    0.9997   -8.2043    3.0985 C   0  0  0  0  0  0  0  0  0  0  0  0
    4.6260   -7.5628    3.3980 C   0  0  2  0  0  0  0  0  0  0  0  0
    5.1298   -8.2019    2.0595 C   0  0  1  0  0  0  0  0  0  0  0  0
    6.6843   -8.2612    1.9113 C   0  0  0  0  0  0  0  0  0  0  0  0
    7.3380   -6.8506    1.9285 C   0  0  0  0  0  0  0  0  0  0  0  0
    6.5338   -5.9202    1.1533 N   0  0  0  0  0  0  0  0  0  0  0  0
    6.9233   -4.6661    0.8250 N   0  0  0  0  0  0  0  0  0  0  0  0
    5.9234   -4.1373    0.1732 N   0  0  0  0  0  0  0  0  0  0  0  0
    4.8590   -5.0193    0.0664 N   0  0  0  0  0  0  0  0  0  0  0  0
    5.3104   -6.0848    0.6955 C   0  0  0  0  0  0  0  0  0  0  0  0
    4.6875   -7.2902    1.0092 N   0  0  0  0  0  0  0  0  0  0  0  0
    2.6882   -5.9487    4.6650 H   0  0  0  0  0  0  0  0  0  0  0  0
    3.8054  -11.8913    8.1242 H   0  0  0  0  0  0  0  0  0  0  0  0
    5.4913  -11.6983    7.6431 H   0  0  0  0  0  0  0  0  0  0  0  0
    4.2259  -11.9384    6.4304 H   0  0  0  0  0  0  0  0  0  0  0  0
    6.2212   -9.5729    6.5874 H   0  0  0  0  0  0  0  0  0  0  0  0
    3.7714   -7.7152    6.2076 H   0  0  0  0  0  0  0  0  0  0  0  0
    5.4826   -7.2415    6.5778 H   0  0  0  0  0  0  0  0  0  0  0  0
    6.3152   -8.1966    4.5945 H   0  0  0  0  0  0  0  0  0  0  0  0
    3.7372   -9.8080    4.8282 H   0  0  0  0  0  0  0  0  0  0  0  0
    6.6052  -10.5924    4.1734 H   0  0  0  0  0  0  0  0  0  0  0  0
    5.3706  -11.7425    4.5253 H   0  0  0  0  0  0  0  0  0  0  0  0
    6.0546  -11.1010    2.0506 H   0  0  0  0  0  0  0  0  0  0  0  0
    4.4984  -11.6899    2.4825 H   0  0  0  0  0  0  0  0  0  0  0  0
    4.6808   -9.8531    0.7914 H   0  0  0  0  0  0  0  0  0  0  0  0
    2.5269   -9.5056    0.9309 H   0  0  0  0  0  0  0  0  0  0  0  0
    2.5551  -10.5896    2.2695 H   0  0  0  0  0  0  0  0  0  0  0  0
   -0.1431   -5.6229    5.0720 H   0  0  0  0  0  0  0  0  0  0  0  0
   -2.3491   -6.6571    4.4797 H   0  0  0  0  0  0  0  0  0  0  0  0
   -2.4082   -8.6597    3.0022 H   0  0  0  0  0  0  0  0  0  0  0  0
   -0.2954   -9.6378    2.1428 H   0  0  0  0  0  0  0  0  0  0  0  0
    4.9318   -6.5184    3.4339 H   0  0  0  0  0  0  0  0  0  0  0  0
    7.1659   -8.9251    2.6320 H   0  0  0  0  0  0  0  0  0  0  0  0
    6.9023   -8.6986    0.9343 H   0  0  0  0  0  0  0  0  0  0  0  0
    7.3887   -6.4870    2.9534 H   0  0  0  0  0  0  0  0  0  0  0  0
    8.3517   -6.8876    1.5322 H   0  0  0  0  0  0  0  0  0  0  0  0
    3.7334   -7.3708    0.7104 H   0  0  0  0  0  0  0  0  0  0  0  0
  1  2  1  0
  1 31  1  0
  1 32  1  0
  1 33  1  0
  2  3  1  0
  3  6  1  0
  3  4  1  0
  3 34  1  1
  4  5  1  0
  4 35  1  0
  4 36  1  0
  5 20  1  0
  5  6  1  0
  5 37  1  1
  6  7  1  0
  6 38  1  1
  7  8  1  0
  7 39  1  0
  7 40  1  0
  8  9  1  0
  8 41  1  0
  8 42  1  0
  9 21  1  0
  9 10  1  0
  9 43  1  6
 10 11  1  0
 10 44  1  0
 10 45  1  0
 11 19  1  0
 11 12  2  0
 12 13  1  0
 12 20  1  0
 13 30  1  0
 13 14  1  0
 14 19  2  0
 14 15  1  0
 15 16  2  0
 15 46  1  0
 16 17  1  0
 16 47  1  0
 17 18  2  0
 17 48  1  0
 18 19  1  0
 18 49  1  0
 20 21  1  0
 20 50  1  6
 21 29  1  6
 21 22  1  0
 22 23  1  0
 22 51  1  0
 22 52  1  0
 23 24  1  0
 23 53  1  0
 23 54  1  0
 24 28  1  0
 24 25  1  0
 25 26  2  0
 26 27  1  0
 27 28  2  0
 28 29  1  0
 29 55  1  0
M  END
>  <i_m_ct_stereo_status>  (234) 
1

>  <s_m_source_file>  (234) 
/var/tmp/pbs.5076255.sched01/tmpagfdxo7m/88tnrj_5ym.sdf

>  <i_m_source_file_index>  (234) 
10

>  <i_lp_mmshare_version>  (234) 
48012

>  <i_f3d_flags>  (234) 
0

>  <s_epik_input>  (234) 
W2NIXTFbY0hdW2NIXVtjSF1jKFtuSF0yKWMxYyhbQ0gyXTMpYzJbQ0BIXTRbQ0BASF0oW0NIMl1bQ0BIXTVPW0NIM10pW0NASF01W0NIMl1bQ0gyXVtDQEBIXTNbQ0BdNDZbQ0gyXVtDSDJdbjdjKFtOSF02KW5ubjc=

>  <s_epik_cmdline>  (234) 
J2VwaWtfcHl0aG9uJywgJy1waHQnLCAnMi4wJywgJy1waCcsICc3LjAnLCAnLXRuJywgJzgnLCAnLW1hJywgJzIwMCcsICctaW1hZScsICc8aW5maWxlLm1hZT4nLCAnLW9tYWUnLCAnPG91dGZpbGUubWFlPic=

>  <r_lp_tautomer_probability>  (234) 
1

>  <r_epik_Ionization_Penalty>  (234) 
1.10305e-06

>  <r_epik_Ionization_Penalty_Charging>  (234) 
0

>  <r_epik_Ionization_Penalty_Neutral>  (234) 
1.10305e-06

>  <r_epik_State_Penalty>  (234) 
-0

>  <r_epik_Charging_Adjusted_Penalty>  (234) 
0

>  <i_epik_Tot_Q>  (234) 
0

>  <i_epik_Tot_abs_Q>  (234) 
0

>  <s_lp_Force_Field>  (234) 
OPLS3e

>  <r_lp_Energy>  (234) 
60.4586

>  <b_lp_Chiralities_Consistent>  (234) 
1

>  <s_lp_Variant>  (234) 
67:0-1

>  <s_i_glide_gridfile>  (234) 
pfpi4k_grid

>  <i_i_glide_lignum>  (234) 
10

>  <i_i_glide_rotatable_bonds>  (234) 
1

>  <r_i_docking_score>  (234) 
-2.46993

>  <r_i_glide_ligand_efficiency>  (234) 
-0.08517

>  <r_i_glide_ligand_efficiency_sa>  (234) 
-0.261669

>  <r_i_glide_ligand_efficiency_ln>  (234) 
-0.565551

>  <r_i_glide_gscore>  (234) 
-2.46993

>  <r_i_glide_lipo>  (234) 
-0.137288

>  <r_i_glide_hbond>  (234) 
0

>  <r_i_glide_metal>  (234) 
-0

>  <r_i_glide_rewards>  (234) 
-1.01303

>  <r_i_glide_evdw>  (234) 
-26.3319

>  <r_i_glide_ecoul>  (234) 
-0.0170376

>  <r_i_glide_erotb>  (234) 
0

>  <r_i_glide_esite>  (234) 
-0.000455193

>  <r_i_glide_emodel>  (234) 
-30.3335

>  <r_i_glide_energy>  (234) 
-26.349

>  <r_i_glide_einternal>  (234) 
0.340439

>  <r_i_glide_intrahb_reward>  (234) 
-0

>  <i_i_glide_confnum>  (234) 
2

>  <i_i_glide_posenum>  (234) 
38

>  <r_i_glide_eff_state_penalty>  (234) 
0

>  <ligand_id>  (234) 
67

>  <original_smiles>  (234) 
COC1CC2C1CCC1Cc3c([nH]c4ccccc34)C2C12CCn1nnnc1N2

>  <smiles>  (234) 
[H]c1c([H])c([H])c2c(c1[H])c1c(n2[H])C2([H])C3([H])C([H])([H])C([H])(OC([H])([H])[H])C3([H])C([H])([H])C([H])([H])C([H])(C1([H])[H])C21N([H])c2nnnn2C([H])([H])C1([H])[H]

$$$$
68:0:0
     RDKit          3D

 23 24  0  0  1  0  0  0  0  0999 V2000
  -10.0593   -7.4950   -9.4705 C   0  0  0  0  0  0  0  0  0  0  0  0
   -9.4212   -6.6537   -8.3799 C   0  0  0  0  0  0  0  0  0  0  0  0
   -9.9961   -5.4840   -8.0945 N   0  0  0  0  0  0  0  0  0  0  0  0
   -9.4702   -4.7829   -7.0681 C   0  0  0  0  0  0  0  0  0  0  0  0
   -8.3536   -5.2503   -6.3454 C   0  0  0  0  0  0  0  0  0  0  0  0
   -7.8070   -6.4790   -6.7639 C   0  0  0  0  0  0  0  0  0  0  0  0
   -8.3442   -7.1743   -7.7900 N   0  0  0  0  0  0  0  0  0  0  0  0
   -6.5972   -7.1033   -6.0878 C   0  0  0  0  0  0  0  0  0  0  0  0
   -6.2817   -6.4971   -4.7118 C   0  0  0  0  0  0  0  0  0  0  0  0
   -6.4191   -4.9680   -4.6882 C   0  0  0  0  0  0  0  0  0  0  0  0
   -7.8116   -4.4929   -5.1433 C   0  0  0  0  0  0  0  0  0  0  0  0
  -10.9363   -7.0023   -9.8949 H   0  0  0  0  0  0  0  0  0  0  0  0
  -10.3759   -8.4645   -9.0785 H   0  0  0  0  0  0  0  0  0  0  0  0
   -9.3390   -7.6700  -10.2701 H   0  0  0  0  0  0  0  0  0  0  0  0
   -9.9471   -3.8446   -6.8264 H   0  0  0  0  0  0  0  0  0  0  0  0
   -6.7333   -8.1842   -5.9941 H   0  0  0  0  0  0  0  0  0  0  0  0
   -5.7457   -6.9599   -6.7495 H   0  0  0  0  0  0  0  0  0  0  0  0
   -6.9801   -6.9157   -3.9955 H   0  0  0  0  0  0  0  0  0  0  0  0
   -5.2889   -6.8030   -4.3845 H   0  0  0  0  0  0  0  0  0  0  0  0
   -6.2141   -4.5761   -3.6875 H   0  0  0  0  0  0  0  0  0  0  0  0
   -5.6584   -4.5376   -5.3413 H   0  0  0  0  0  0  0  0  0  0  0  0
   -7.7942   -3.4260   -5.3504 H   0  0  0  0  0  0  0  0  0  0  0  0
   -8.5230   -4.6282   -4.3278 H   0  0  0  0  0  0  0  0  0  0  0  0
  1  2  1  0
  1 12  1  0
  1 13  1  0
  1 14  1  0
  2  7  2  0
  2  3  1  0
  3  4  2  0
  4  5  1  0
  4 15  1  0
  5 11  1  0
  5  6  2  0
  6  7  1  0
  6  8  1  0
  8  9  1  0
  8 16  1  0
  8 17  1  0
  9 10  1  0
  9 18  1  0
  9 19  1  0
 10 11  1  0
 10 20  1  0
 10 21  1  0
 11 22  1  0
 11 23  1  0
M  END
>  <i_m_ct_stereo_status>  (235) 
1

>  <s_m_source_file>  (235) 
/var/tmp/pbs.5076255.sched01/tmpagfdxo7m/88tnrj_5ym.sdf

>  <i_m_source_file_index>  (235) 
11

>  <i_lp_mmshare_version>  (235) 
48012

>  <i_f3d_flags>  (235) 
0

>  <s_epik_input>  (235) 
W2NIXTFuYyhbQ0gzXSluYyhjMTIpW0NIMl1bQ0gyXVtDSDJdW0NIMl0y

>  <s_epik_cmdline>  (235) 
J2VwaWtfcHl0aG9uJywgJy1waHQnLCAnMi4wJywgJy1waCcsICc3LjAnLCAnLXRuJywgJzgnLCAnLW1hJywgJzIwMCcsICctaW1hZScsICc8aW5maWxlLm1hZT4nLCAnLW9tYWUnLCAnPG91dGZpbGUubWFlPic=

>  <r_lp_tautomer_probability>  (235) 
1

>  <r_epik_Ionization_Penalty>  (235) 
4.61404e-05

>  <r_epik_Ionization_Penalty_Charging>  (235) 
0

>  <r_epik_Ionization_Penalty_Neutral>  (235) 
4.61404e-05

>  <r_epik_State_Penalty>  (235) 
-0

>  <r_epik_Charging_Adjusted_Penalty>  (235) 
0

>  <i_epik_Tot_Q>  (235) 
0

>  <i_epik_Tot_abs_Q>  (235) 
0

>  <s_epik_Chemistry_Notes>  (235) 
This compound contains an electron-poor aromatic ring that is susceptible to covalent hydrolysis at low pH, typically resulting in measured values for nitrogen ring protonation that are around two units higher than predicted values.

>  <s_lp_Force_Field>  (235) 
OPLS3e

>  <r_lp_Energy>  (235) 
15.2789

>  <b_lp_Chiralities_Consistent>  (235) 
1

>  <s_lp_Variant>  (235) 
68:0-1

>  <s_i_glide_gridfile>  (235) 
pfpi4k_grid

>  <i_i_glide_lignum>  (235) 
11

>  <i_i_glide_rotatable_bonds>  (235) 
0

>  <r_i_docking_score>  (235) 
-5.60673

>  <r_i_glide_ligand_efficiency>  (235) 
-0.509703

>  <r_i_glide_ligand_efficiency_sa>  (235) 
-1.13357

>  <r_i_glide_ligand_efficiency_ln>  (235) 
-1.65006

>  <r_i_glide_gscore>  (235) 
-5.60673

>  <r_i_glide_lipo>  (235) 
-1.95653

>  <r_i_glide_hbond>  (235) 
0

>  <r_i_glide_metal>  (235) 
-0

>  <r_i_glide_rewards>  (235) 
-2.77232

>  <r_i_glide_evdw>  (235) 
-16.8116

>  <r_i_glide_ecoul>  (235) 
-0.248697

>  <r_i_glide_erotb>  (235) 
0

>  <r_i_glide_esite>  (235) 
0

>  <r_i_glide_emodel>  (235) 
-22.8791

>  <r_i_glide_energy>  (235) 
-17.0603

>  <r_i_glide_einternal>  (235) 
0

>  <r_i_glide_intrahb_reward>  (235) 
-0

>  <i_i_glide_confnum>  (235) 
2

>  <i_i_glide_posenum>  (235) 
4

>  <r_i_glide_eff_state_penalty>  (235) 
0

>  <ligand_id>  (235) 
68

>  <original_smiles>  (235) 
Cc1ncc2c(n1)CCCC2

>  <smiles>  (235) 
[H]c1nc(C([H])([H])[H])nc2c1C([H])([H])C([H])([H])C([H])([H])C2([H])[H]

$$$$
68:0:1
     RDKit          3D

 23 24  0  0  1  0  0  0  0  0999 V2000
   -5.9857  -11.3241   -8.3896 C   0  0  0  0  0  0  0  0  0  0  0  0
   -6.3103   -9.9160   -7.9278 C   0  0  0  0  0  0  0  0  0  0  0  0
   -7.2359   -9.2494   -8.6193 N   0  0  0  0  0  0  0  0  0  0  0  0
   -7.5614   -8.0174   -8.1735 C   0  0  0  0  0  0  0  0  0  0  0  0
   -6.9641   -7.4629   -7.0256 C   0  0  0  0  0  0  0  0  0  0  0  0
   -5.9787   -8.2542   -6.3958 C   0  0  0  0  0  0  0  0  0  0  0  0
   -5.6502   -9.4788   -6.8579 N   0  0  0  0  0  0  0  0  0  0  0  0
   -5.2224   -7.7763   -5.1702 C   0  0  0  0  0  0  0  0  0  0  0  0
   -5.9214   -6.6086   -4.4650 C   0  0  0  0  0  0  0  0  0  0  0  0
   -6.4354   -5.5304   -5.4233 C   0  0  0  0  0  0  0  0  0  0  0  0
   -7.3931   -6.1050   -6.4811 C   0  0  0  0  0  0  0  0  0  0  0  0
   -6.5651  -11.5949   -9.2736 H   0  0  0  0  0  0  0  0  0  0  0  0
   -6.2039  -12.0454   -7.6006 H   0  0  0  0  0  0  0  0  0  0  0  0
   -4.9283  -11.4096   -8.6342 H   0  0  0  0  0  0  0  0  0  0  0  0
   -8.3085   -7.4753   -8.7367 H   0  0  0  0  0  0  0  0  0  0  0  0
   -5.0812   -8.6033   -4.4675 H   0  0  0  0  0  0  0  0  0  0  0  0
   -4.2261   -7.4726   -5.4912 H   0  0  0  0  0  0  0  0  0  0  0  0
   -6.7768   -7.0084   -3.9328 H   0  0  0  0  0  0  0  0  0  0  0  0
   -5.2609   -6.1772   -3.7237 H   0  0  0  0  0  0  0  0  0  0  0  0
   -6.9299   -4.7264   -4.8698 H   0  0  0  0  0  0  0  0  0  0  0  0
   -5.5848   -5.0649   -5.9142 H   0  0  0  0  0  0  0  0  0  0  0  0
   -7.5345   -5.3871   -7.2911 H   0  0  0  0  0  0  0  0  0  0  0  0
   -8.3712   -6.2467   -6.0226 H   0  0  0  0  0  0  0  0  0  0  0  0
  1  2  1  0
  1 12  1  0
  1 13  1  0
  1 14  1  0
  2  7  2  0
  2  3  1  0
  3  4  2  0
  4  5  1  0
  4 15  1  0
  5 11  1  0
  5  6  2  0
  6  7  1  0
  6  8  1  0
  8  9  1  0
  8 16  1  0
  8 17  1  0
  9 10  1  0
  9 18  1  0
  9 19  1  0
 10 11  1  0
 10 20  1  0
 10 21  1  0
 11 22  1  0
 11 23  1  0
M  END
>  <i_m_ct_stereo_status>  (236) 
1

>  <s_m_source_file>  (236) 
/var/tmp/pbs.5076255.sched01/tmpagfdxo7m/88tnrj_5ym.sdf

>  <i_m_source_file_index>  (236) 
11

>  <i_lp_mmshare_version>  (236) 
48012

>  <i_f3d_flags>  (236) 
0

>  <s_epik_input>  (236) 
W2NIXTFuYyhbQ0gzXSluYyhjMTIpW0NIMl1bQ0gyXVtDSDJdW0NIMl0y

>  <s_epik_cmdline>  (236) 
J2VwaWtfcHl0aG9uJywgJy1waHQnLCAnMi4wJywgJy1waCcsICc3LjAnLCAnLXRuJywgJzgnLCAnLW1hJywgJzIwMCcsICctaW1hZScsICc8aW5maWxlLm1hZT4nLCAnLW9tYWUnLCAnPG91dGZpbGUubWFlPic=

>  <r_lp_tautomer_probability>  (236) 
1

>  <r_epik_Ionization_Penalty>  (236) 
4.61404e-05

>  <r_epik_Ionization_Penalty_Charging>  (236) 
0

>  <r_epik_Ionization_Penalty_Neutral>  (236) 
4.61404e-05

>  <r_epik_State_Penalty>  (236) 
-0

>  <r_epik_Charging_Adjusted_Penalty>  (236) 
0

>  <i_epik_Tot_Q>  (236) 
0

>  <i_epik_Tot_abs_Q>  (236) 
0

>  <s_epik_Chemistry_Notes>  (236) 
This compound contains an electron-poor aromatic ring that is susceptible to covalent hydrolysis at low pH, typically resulting in measured values for nitrogen ring protonation that are around two units higher than predicted values.

>  <s_lp_Force_Field>  (236) 
OPLS3e

>  <r_lp_Energy>  (236) 
15.2789

>  <b_lp_Chiralities_Consistent>  (236) 
1

>  <s_lp_Variant>  (236) 
68:0-1

>  <s_i_glide_gridfile>  (236) 
pfpi4k_grid

>  <i_i_glide_lignum>  (236) 
11

>  <i_i_glide_rotatable_bonds>  (236) 
0

>  <r_i_docking_score>  (236) 
-4.78833

>  <r_i_glide_ligand_efficiency>  (236) 
-0.435303

>  <r_i_glide_ligand_efficiency_sa>  (236) 
-0.968105

>  <r_i_glide_ligand_efficiency_ln>  (236) 
-1.40921

>  <r_i_glide_gscore>  (236) 
-4.78833

>  <r_i_glide_lipo>  (236) 
-1.77771

>  <r_i_glide_hbond>  (236) 
0

>  <r_i_glide_metal>  (236) 
-0

>  <r_i_glide_rewards>  (236) 
-2.39233

>  <r_i_glide_evdw>  (236) 
-14.8587

>  <r_i_glide_ecoul>  (236) 
0.830975

>  <r_i_glide_erotb>  (236) 
0

>  <r_i_glide_esite>  (236) 
0

>  <r_i_glide_emodel>  (236) 
-18.9994

>  <r_i_glide_energy>  (236) 
-14.0278

>  <r_i_glide_einternal>  (236) 
0

>  <r_i_glide_intrahb_reward>  (236) 
-0

>  <i_i_glide_confnum>  (236) 
2

>  <i_i_glide_posenum>  (236) 
8

>  <r_i_glide_eff_state_penalty>  (236) 
0

>  <ligand_id>  (236) 
68

>  <original_smiles>  (236) 
Cc1ncc2c(n1)CCCC2

>  <smiles>  (236) 
[H]c1nc(C([H])([H])[H])nc2c1C([H])([H])C([H])([H])C([H])([H])C2([H])[H]

$$$$
68:0:2
     RDKit          3D

 23 24  0  0  1  0  0  0  0  0999 V2000
  -10.0422   -6.3152   -8.7145 C   0  0  0  0  0  0  0  0  0  0  0  0
   -8.7631   -6.8657   -8.1192 C   0  0  0  0  0  0  0  0  0  0  0  0
   -8.1872   -7.8935   -8.7526 N   0  0  0  0  0  0  0  0  0  0  0  0
   -7.0348   -8.3614   -8.2272 C   0  0  0  0  0  0  0  0  0  0  0  0
   -6.4558   -7.7937   -7.0752 C   0  0  0  0  0  0  0  0  0  0  0  0
   -7.1643   -6.7209   -6.4915 C   0  0  0  0  0  0  0  0  0  0  0  0
   -8.3111   -6.2527   -7.0252 N   0  0  0  0  0  0  0  0  0  0  0  0
   -6.6764   -6.0254   -5.2332 C   0  0  0  0  0  0  0  0  0  0  0  0
   -5.1942   -6.2769   -4.9249 C   0  0  0  0  0  0  0  0  0  0  0  0
   -4.7772   -7.7392   -5.1357 C   0  0  0  0  0  0  0  0  0  0  0  0
   -5.1111   -8.2581   -6.5455 C   0  0  0  0  0  0  0  0  0  0  0  0
  -10.3267   -6.8549   -9.6176 H   0  0  0  0  0  0  0  0  0  0  0  0
   -9.9147   -5.2639   -8.9734 H   0  0  0  0  0  0  0  0  0  0  0  0
  -10.8604   -6.3926   -7.9976 H   0  0  0  0  0  0  0  0  0  0  0  0
   -6.5578   -9.1815   -8.7522 H   0  0  0  0  0  0  0  0  0  0  0  0
   -6.8673   -4.9505   -5.2948 H   0  0  0  0  0  0  0  0  0  0  0  0
   -7.2736   -6.3996   -4.4044 H   0  0  0  0  0  0  0  0  0  0  0  0
   -4.5823   -5.6415   -5.5529 H   0  0  0  0  0  0  0  0  0  0  0  0
   -4.9890   -5.9572   -3.9162 H   0  0  0  0  0  0  0  0  0  0  0  0
   -3.7113   -7.8703   -4.9327 H   0  0  0  0  0  0  0  0  0  0  0  0
   -5.2970   -8.3511   -4.4039 H   0  0  0  0  0  0  0  0  0  0  0  0
   -5.0217   -9.3469   -6.5832 H   0  0  0  0  0  0  0  0  0  0  0  0
   -4.3782   -7.8543   -7.2356 H   0  0  0  0  0  0  0  0  0  0  0  0
  1  2  1  0
  1 12  1  0
  1 13  1  0
  1 14  1  0
  2  7  2  0
  2  3  1  0
  3  4  2  0
  4  5  1  0
  4 15  1  0
  5 11  1  0
  5  6  2  0
  6  7  1  0
  6  8  1  0
  8  9  1  0
  8 16  1  0
  8 17  1  0
  9 10  1  0
  9 18  1  0
  9 19  1  0
 10 11  1  0
 10 20  1  0
 10 21  1  0
 11 22  1  0
 11 23  1  0
M  END
>  <i_m_ct_stereo_status>  (237) 
1

>  <s_m_source_file>  (237) 
/var/tmp/pbs.5076255.sched01/tmpagfdxo7m/88tnrj_5ym.sdf

>  <i_m_source_file_index>  (237) 
11

>  <i_lp_mmshare_version>  (237) 
48012

>  <i_f3d_flags>  (237) 
0

>  <s_epik_input>  (237) 
W2NIXTFuYyhbQ0gzXSluYyhjMTIpW0NIMl1bQ0gyXVtDSDJdW0NIMl0y

>  <s_epik_cmdline>  (237) 
J2VwaWtfcHl0aG9uJywgJy1waHQnLCAnMi4wJywgJy1waCcsICc3LjAnLCAnLXRuJywgJzgnLCAnLW1hJywgJzIwMCcsICctaW1hZScsICc8aW5maWxlLm1hZT4nLCAnLW9tYWUnLCAnPG91dGZpbGUubWFlPic=

>  <r_lp_tautomer_probability>  (237) 
1

>  <r_epik_Ionization_Penalty>  (237) 
4.61404e-05

>  <r_epik_Ionization_Penalty_Charging>  (237) 
0

>  <r_epik_Ionization_Penalty_Neutral>  (237) 
4.61404e-05

>  <r_epik_State_Penalty>  (237) 
-0

>  <r_epik_Charging_Adjusted_Penalty>  (237) 
0

>  <i_epik_Tot_Q>  (237) 
0

>  <i_epik_Tot_abs_Q>  (237) 
0

>  <s_epik_Chemistry_Notes>  (237) 
This compound contains an electron-poor aromatic ring that is susceptible to covalent hydrolysis at low pH, typically resulting in measured values for nitrogen ring protonation that are around two units higher than predicted values.

>  <s_lp_Force_Field>  (237) 
OPLS3e

>  <r_lp_Energy>  (237) 
15.2789

>  <b_lp_Chiralities_Consistent>  (237) 
1

>  <s_lp_Variant>  (237) 
68:0-1

>  <s_i_glide_gridfile>  (237) 
pfpi4k_grid

>  <i_i_glide_lignum>  (237) 
11

>  <i_i_glide_rotatable_bonds>  (237) 
0

>  <r_i_docking_score>  (237) 
-4.66618

>  <r_i_glide_ligand_efficiency>  (237) 
-0.424198

>  <r_i_glide_ligand_efficiency_sa>  (237) 
-0.943409

>  <r_i_glide_ligand_efficiency_ln>  (237) 
-1.37326

>  <r_i_glide_gscore>  (237) 
-4.66618

>  <r_i_glide_lipo>  (237) 
-1.50975

>  <r_i_glide_hbond>  (237) 
0

>  <r_i_glide_metal>  (237) 
-0

>  <r_i_glide_rewards>  (237) 
-2.40817

>  <r_i_glide_evdw>  (237) 
-15.2778

>  <r_i_glide_ecoul>  (237) 
0.104168

>  <r_i_glide_erotb>  (237) 
0

>  <r_i_glide_esite>  (237) 
0

>  <r_i_glide_emodel>  (237) 
-19.9808

>  <r_i_glide_energy>  (237) 
-15.1736

>  <r_i_glide_einternal>  (237) 
0

>  <r_i_glide_intrahb_reward>  (237) 
-0

>  <i_i_glide_confnum>  (237) 
2

>  <i_i_glide_posenum>  (237) 
28

>  <r_i_glide_eff_state_penalty>  (237) 
0

>  <ligand_id>  (237) 
68

>  <original_smiles>  (237) 
Cc1ncc2c(n1)CCCC2

>  <smiles>  (237) 
[H]c1nc(C([H])([H])[H])nc2c1C([H])([H])C([H])([H])C([H])([H])C2([H])[H]

$$$$
69:0:0
     RDKit          3D

 50 54  0  0  1  0  0  0  0  0999 V2000
    3.5661   -3.3731    0.1417 C   0  0  0  0  0  0  0  0  0  0  0  0
    3.6153   -4.4176    1.2792 C   0  0  0  0  0  0  0  0  0  0  0  0
    3.1154   -3.7247    2.5673 C   0  0  0  0  0  0  0  0  0  0  0  0
    2.6333   -5.5670    0.9041 C   0  0  0  0  0  0  0  0  0  0  0  0
    2.9665   -6.8726    1.6215 C   0  0  0  0  0  0  0  0  0  0  0  0
    2.0292   -7.5823    2.3116 C   0  0  0  0  0  0  0  0  0  0  0  0
    0.5085   -7.2916    2.2332 C   0  0  1  0  0  0  0  0  0  0  0  0
    0.0572   -7.0579    0.9092 O   0  0  0  0  0  0  0  0  0  0  0  0
   -0.3702   -8.4358    2.8037 C   0  0  0  0  0  0  0  0  0  0  0  0
    0.4559   -9.3643    3.6854 C   0  0  1  0  0  0  0  0  0  0  0  0
    1.6732  -10.0003    3.0330 C   0  0  0  0  0  0  0  0  0  0  0  0
    2.3309   -8.6669    3.3870 C   0  0  1  0  0  0  0  0  0  0  0  0
    3.7152   -8.7010    4.0547 C   0  0  0  0  0  0  0  0  0  0  0  0
    4.4258   -7.3489    4.1545 C   0  0  0  0  0  0  0  0  0  0  0  0
    5.1897   -6.9729    2.8659 C   0  0  2  0  0  0  0  0  0  0  0  0
    6.4258   -7.6759    2.8884 O   0  0  0  0  0  0  0  0  0  0  0  0
    5.5402   -5.4614    2.8114 C   0  0  0  0  0  0  0  0  0  0  0  0
    5.0873   -4.9536    1.4165 C   0  0  1  0  0  0  0  0  0  0  0  0
    5.2133   -6.2436    0.6119 C   0  0  0  0  0  0  0  0  0  0  0  0
    4.4625   -7.2470    1.5166 C   0  0  2  0  0  0  0  0  0  0  0  0
    4.6142   -8.6562    0.8928 C   0  0  0  0  0  0  0  0  0  0  0  0
    1.3492   -8.5207    4.4527 O   0  0  0  0  0  0  0  0  0  0  0  0
    2.5515   -3.0086   -0.0157 H   0  0  0  0  0  0  0  0  0  0  0  0
    3.9097   -3.7966   -0.8019 H   0  0  0  0  0  0  0  0  0  0  0  0
    4.1904   -2.5066    0.3635 H   0  0  0  0  0  0  0  0  0  0  0  0
    2.9599   -4.4436    3.3719 H   0  0  0  0  0  0  0  0  0  0  0  0
    2.1581   -3.2320    2.4015 H   0  0  0  0  0  0  0  0  0  0  0  0
    3.8173   -2.9663    2.9176 H   0  0  0  0  0  0  0  0  0  0  0  0
    1.6294   -5.2192    1.1173 H   0  0  0  0  0  0  0  0  0  0  0  0
    2.6604   -5.7706   -0.1657 H   0  0  0  0  0  0  0  0  0  0  0  0
    0.3319   -6.3975    2.8327 H   0  0  0  0  0  0  0  0  0  0  0  0
    0.0568   -7.8983    0.4570 H   0  0  0  0  0  0  0  0  0  0  0  0
   -1.2274   -8.0284    3.3417 H   0  0  0  0  0  0  0  0  0  0  0  0
   -0.7961   -9.0390    1.9986 H   0  0  0  0  0  0  0  0  0  0  0  0
   -0.1140  -10.0615    4.3056 H   0  0  0  0  0  0  0  0  0  0  0  0
    2.0602  -10.8452    3.6000 H   0  0  0  0  0  0  0  0  0  0  0  0
    1.5787  -10.2128    1.9680 H   0  0  0  0  0  0  0  0  0  0  0  0
    3.6031   -9.1019    5.0621 H   0  0  0  0  0  0  0  0  0  0  0  0
    4.3707   -9.4207    3.5657 H   0  0  0  0  0  0  0  0  0  0  0  0
    3.7017   -6.5778    4.4317 H   0  0  0  0  0  0  0  0  0  0  0  0
    5.1292   -7.3879    4.9871 H   0  0  0  0  0  0  0  0  0  0  0  0
    6.8746   -7.4936    3.6955 H   0  0  0  0  0  0  0  0  0  0  0  0
    5.1346   -4.8940    3.6479 H   0  0  0  0  0  0  0  0  0  0  0  0
    6.6209   -5.3284    2.8850 H   0  0  0  0  0  0  0  0  0  0  0  0
    5.7931   -4.2004    1.0612 H   0  0  0  0  0  0  0  0  0  0  0  0
    4.8142   -6.1751   -0.3995 H   0  0  0  0  0  0  0  0  0  0  0  0
    6.2646   -6.5199    0.5092 H   0  0  0  0  0  0  0  0  0  0  0  0
    5.6596   -8.9632    0.8226 H   0  0  0  0  0  0  0  0  0  0  0  0
    4.2197   -8.6486   -0.1186 H   0  0  0  0  0  0  0  0  0  0  0  0
    4.0783   -9.4412    1.4206 H   0  0  0  0  0  0  0  0  0  0  0  0
  1  2  1  0
  1 23  1  0
  1 24  1  0
  1 25  1  0
  2 18  1  0
  2  3  1  0
  2  4  1  0
  3 26  1  0
  3 27  1  0
  3 28  1  0
  4  5  1  0
  4 29  1  0
  4 30  1  0
  5 20  1  0
  5  6  2  0
  6 12  1  0
  6  7  1  0
  7  8  1  0
  7  9  1  0
  7 31  1  1
  8 32  1  0
  9 10  1  0
  9 33  1  0
  9 34  1  0
 10 22  1  0
 10 11  1  0
 10 35  1  1
 11 12  1  0
 11 36  1  0
 11 37  1  0
 12 13  1  1
 12 22  1  0
 13 14  1  0
 13 38  1  0
 13 39  1  0
 14 15  1  0
 14 40  1  0
 14 41  1  0
 15 20  1  0
 15 16  1  6
 15 17  1  0
 16 42  1  0
 17 18  1  0
 17 43  1  0
 17 44  1  0
 18 19  1  0
 18 45  1  6
 19 20  1  0
 19 46  1  0
 19 47  1  0
 20 21  1  6
 21 48  1  0
 21 49  1  0
 21 50  1  0
M  END
>  <i_m_ct_stereo_status>  (238) 
1

>  <s_m_source_file>  (238) 
/var/tmp/pbs.5076255.sched01/tmpagfdxo7m/88tnrj_5ym.sdf

>  <i_m_source_file_index>  (238) 
12

>  <i_lp_mmshare_version>  (238) 
48012

>  <i_f3d_flags>  (238) 
0

>  <s_epik_input>  (238) 
W0NIM11DKFtDSDNdKShbQ0gyXTEpW0NASF0oW0NIMl0yKVtDSDJdW0NAQF0oW09IXSkoW0NIMl1bQ0gyXTMpW0NAQF0yKFtDSDNdKUMxPUMoW0NAXTM0NSlbQ0BASF0oW09IXSlbQ0gyXVtDQEhdKE81KVtDSDJdNA==

>  <s_epik_cmdline>  (238) 
J2VwaWtfcHl0aG9uJywgJy1waHQnLCAnMi4wJywgJy1waCcsICc3LjAnLCAnLXRuJywgJzgnLCAnLW1hJywgJzIwMCcsICctaW1hZScsICc8aW5maWxlLm1hZT4nLCAnLW9tYWUnLCAnPG91dGZpbGUubWFlPic=

>  <r_lp_tautomer_probability>  (238) 
1

>  <r_epik_Ionization_Penalty>  (238) 
6.4851e-07

>  <r_epik_Ionization_Penalty_Charging>  (238) 
0

>  <r_epik_Ionization_Penalty_Neutral>  (238) 
6.4851e-07

>  <r_epik_State_Penalty>  (238) 
-0

>  <r_epik_Charging_Adjusted_Penalty>  (238) 
0

>  <i_epik_Tot_Q>  (238) 
0

>  <i_epik_Tot_abs_Q>  (238) 
0

>  <s_lp_Force_Field>  (238) 
OPLS3e

>  <r_lp_Energy>  (238) 
70.8257

>  <b_lp_Chiralities_Consistent>  (238) 
1

>  <s_lp_Variant>  (238) 
69:0-1

>  <s_i_glide_gridfile>  (238) 
pfpi4k_grid

>  <i_i_glide_lignum>  (238) 
12

>  <i_i_glide_rotatable_bonds>  (238) 
2

>  <r_i_docking_score>  (238) 
-3.97439

>  <r_i_glide_ligand_efficiency>  (238) 
-0.180654

>  <r_i_glide_ligand_efficiency_sa>  (238) 
-0.5062

>  <r_i_glide_ligand_efficiency_ln>  (238) 
-0.971486

>  <r_i_glide_gscore>  (238) 
-3.97439

>  <r_i_glide_lipo>  (238) 
-0.370496

>  <r_i_glide_hbond>  (238) 
-0.326175

>  <r_i_glide_metal>  (238) 
-0

>  <r_i_glide_rewards>  (238) 
-1.33347

>  <r_i_glide_evdw>  (238) 
-24.2383

>  <r_i_glide_ecoul>  (238) 
-4.88221

>  <r_i_glide_erotb>  (238) 
0

>  <r_i_glide_esite>  (238) 
0

>  <r_i_glide_emodel>  (238) 
-36.6017

>  <r_i_glide_energy>  (238) 
-29.1205

>  <r_i_glide_einternal>  (238) 
0.0739213

>  <r_i_glide_intrahb_reward>  (238) 
-0

>  <i_i_glide_confnum>  (238) 
1

>  <i_i_glide_posenum>  (238) 
1

>  <r_i_glide_eff_state_penalty>  (238) 
0

>  <ligand_id>  (238) 
69

>  <original_smiles>  (238) 
CC1(C)CC2=C3C(O)CC4CC3(CCC3(O)CC1CC23C)O4

>  <smiles>  (238) 
[H]OC1([H])C2=C3C([H])([H])C(C([H])([H])[H])(C([H])([H])[H])C4([H])C([H])([H])C(O[H])(C([H])([H])C([H])([H])C25OC([H])(C1([H])[H])C5([H])[H])C3(C([H])([H])[H])C4([H])[H]

$$$$
69:0:1
     RDKit          3D

 50 54  0  0  1  0  0  0  0  0999 V2000
    2.6239   -6.0753    1.9961 C   0  0  0  0  0  0  0  0  0  0  0  0
    3.5783   -5.1828    1.1749 C   0  0  0  0  0  0  0  0  0  0  0  0
    4.4437   -6.1104    0.2973 C   0  0  0  0  0  0  0  0  0  0  0  0
    2.7094   -4.2757    0.2807 C   0  0  0  0  0  0  0  0  0  0  0  0
    3.4253   -3.0073   -0.1692 C   0  0  0  0  0  0  0  0  0  0  0  0
    3.5116   -2.6435   -1.4696 C   0  0  0  0  0  0  0  0  0  0  0  0
    2.6868   -3.2750   -2.5787 C   0  0  1  0  0  0  0  0  0  0  0  0
    1.3770   -3.4571   -2.1417 O   0  0  0  0  0  0  0  0  0  0  0  0
    2.6598   -2.5234   -3.9086 C   0  0  0  0  0  0  0  0  0  0  0  0
    3.7794   -1.4925   -3.9322 C   0  0  1  0  0  0  0  0  0  0  0  0
    3.8112   -0.5049   -2.7857 C   0  0  0  0  0  0  0  0  0  0  0  0
    4.5042   -1.6530   -2.0734 C   0  0  1  0  0  0  0  0  0  0  0  0
    5.7617   -1.3868   -1.2841 C   0  0  0  0  0  0  0  0  0  0  0  0
    6.2834   -2.5250   -0.4428 C   0  0  0  0  0  0  0  0  0  0  0  0
    5.6329   -2.5130    0.9408 C   0  0  2  0  0  0  0  0  0  0  0  0
    6.2728   -1.5040    1.6971 O   0  0  0  0  0  0  0  0  0  0  0  0
    5.8246   -3.8739    1.6352 C   0  0  0  0  0  0  0  0  0  0  0  0
    4.4372   -4.3172    2.1519 C   0  0  1  0  0  0  0  0  0  0  0  0
    3.7768   -2.9544    2.3340 C   0  0  0  0  0  0  0  0  0  0  0  0
    4.1056   -2.2679    0.9932 C   0  0  2  0  0  0  0  0  0  0  0  0
    3.6066   -0.8083    1.0608 C   0  0  0  0  0  0  0  0  0  0  0  0
    4.9378   -2.1410   -3.3661 O   0  0  0  0  0  0  0  0  0  0  0  0
    1.9703   -6.6577    1.3429 H   0  0  0  0  0  0  0  0  0  0  0  0
    1.9894   -5.4813    2.6517 H   0  0  0  0  0  0  0  0  0  0  0  0
    3.1780   -6.7728    2.6170 H   0  0  0  0  0  0  0  0  0  0  0  0
    5.0099   -5.5383   -0.4421 H   0  0  0  0  0  0  0  0  0  0  0  0
    3.8238   -6.7919   -0.2792 H   0  0  0  0  0  0  0  0  0  0  0  0
    5.1396   -6.7073    0.8900 H   0  0  0  0  0  0  0  0  0  0  0  0
    2.3770   -4.8786   -0.5630 H   0  0  0  0  0  0  0  0  0  0  0  0
    1.8224   -3.9558    0.7931 H   0  0  0  0  0  0  0  0  0  0  0  0
    3.1815   -4.2174   -2.8561 H   0  0  0  0  0  0  0  0  0  0  0  0
    0.9030   -3.9195   -2.8030 H   0  0  0  0  0  0  0  0  0  0  0  0
    2.7471   -3.2605   -4.7172 H   0  0  0  0  0  0  0  0  0  0  0  0
    1.6890   -2.0603   -4.0805 H   0  0  0  0  0  0  0  0  0  0  0  0
    3.9589   -0.9823   -4.8899 H   0  0  0  0  0  0  0  0  0  0  0  0
    4.4495    0.3533   -2.9934 H   0  0  0  0  0  0  0  0  0  0  0  0
    2.8030   -0.2876   -2.4162 H   0  0  0  0  0  0  0  0  0  0  0  0
    6.5168   -1.2405   -2.0416 H   0  0  0  0  0  0  0  0  0  0  0  0
    5.6843   -0.4639   -0.7179 H   0  0  0  0  0  0  0  0  0  0  0  0
    6.1981   -3.4845   -0.9653 H   0  0  0  0  0  0  0  0  0  0  0  0
    7.3476   -2.3520   -0.2988 H   0  0  0  0  0  0  0  0  0  0  0  0
    5.8810   -1.4889    2.5592 H   0  0  0  0  0  0  0  0  0  0  0  0
    6.3474   -4.6054    1.0253 H   0  0  0  0  0  0  0  0  0  0  0  0
    6.4898   -3.7321    2.4777 H   0  0  0  0  0  0  0  0  0  0  0  0
    4.5470   -4.8370    3.1030 H   0  0  0  0  0  0  0  0  0  0  0  0
    2.7105   -3.0117    2.5493 H   0  0  0  0  0  0  0  0  0  0  0  0
    4.2360   -2.4256    3.1626 H   0  0  0  0  0  0  0  0  0  0  0  0
    4.0764   -0.2504    1.8707 H   0  0  0  0  0  0  0  0  0  0  0  0
    2.5327   -0.8111    1.2437 H   0  0  0  0  0  0  0  0  0  0  0  0
    3.7448   -0.2463    0.1413 H   0  0  0  0  0  0  0  0  0  0  0  0
  1  2  1  0
  1 23  1  0
  1 24  1  0
  1 25  1  0
  2 18  1  0
  2  3  1  0
  2  4  1  0
  3 26  1  0
  3 27  1  0
  3 28  1  0
  4  5  1  0
  4 29  1  0
  4 30  1  0
  5 20  1  0
  5  6  2  0
  6 12  1  0
  6  7  1  0
  7  8  1  0
  7  9  1  0
  7 31  1  6
  8 32  1  0
  9 10  1  0
  9 33  1  0
  9 34  1  0
 10 22  1  0
 10 11  1  0
 10 35  1  6
 11 12  1  0
 11 36  1  0
 11 37  1  0
 12 13  1  1
 12 22  1  0
 13 14  1  0
 13 38  1  0
 13 39  1  0
 14 15  1  0
 14 40  1  0
 14 41  1  0
 15 20  1  0
 15 16  1  1
 15 17  1  0
 16 42  1  0
 17 18  1  0
 17 43  1  0
 17 44  1  0
 18 19  1  0
 18 45  1  1
 19 20  1  0
 19 46  1  0
 19 47  1  0
 20 21  1  1
 21 48  1  0
 21 49  1  0
 21 50  1  0
M  END
>  <i_m_ct_stereo_status>  (239) 
1

>  <s_m_source_file>  (239) 
/var/tmp/pbs.5076255.sched01/tmpagfdxo7m/88tnrj_5ym.sdf

>  <i_m_source_file_index>  (239) 
12

>  <i_lp_mmshare_version>  (239) 
48012

>  <i_f3d_flags>  (239) 
0

>  <s_epik_input>  (239) 
W0NIM11DKFtDSDNdKShbQ0gyXTEpW0NASF0oW0NIMl0yKVtDSDJdW0NAQF0oW09IXSkoW0NIMl1bQ0gyXTMpW0NAQF0yKFtDSDNdKUMxPUMoW0NAXTM0NSlbQ0BASF0oW09IXSlbQ0gyXVtDQEhdKE81KVtDSDJdNA==

>  <s_epik_cmdline>  (239) 
J2VwaWtfcHl0aG9uJywgJy1waHQnLCAnMi4wJywgJy1waCcsICc3LjAnLCAnLXRuJywgJzgnLCAnLW1hJywgJzIwMCcsICctaW1hZScsICc8aW5maWxlLm1hZT4nLCAnLW9tYWUnLCAnPG91dGZpbGUubWFlPic=

>  <r_lp_tautomer_probability>  (239) 
1

>  <r_epik_Ionization_Penalty>  (239) 
6.4851e-07

>  <r_epik_Ionization_Penalty_Charging>  (239) 
0

>  <r_epik_Ionization_Penalty_Neutral>  (239) 
6.4851e-07

>  <r_epik_State_Penalty>  (239) 
-0

>  <r_epik_Charging_Adjusted_Penalty>  (239) 
0

>  <i_epik_Tot_Q>  (239) 
0

>  <i_epik_Tot_abs_Q>  (239) 
0

>  <s_lp_Force_Field>  (239) 
OPLS3e

>  <r_lp_Energy>  (239) 
70.8257

>  <b_lp_Chiralities_Consistent>  (239) 
1

>  <s_lp_Variant>  (239) 
69:0-1

>  <s_i_glide_gridfile>  (239) 
pfpi4k_grid

>  <i_i_glide_lignum>  (239) 
12

>  <i_i_glide_rotatable_bonds>  (239) 
2

>  <r_i_docking_score>  (239) 
-3.97077

>  <r_i_glide_ligand_efficiency>  (239) 
-0.18049

>  <r_i_glide_ligand_efficiency_sa>  (239) 
-0.505739

>  <r_i_glide_ligand_efficiency_ln>  (239) 
-0.970602

>  <r_i_glide_gscore>  (239) 
-3.97077

>  <r_i_glide_lipo>  (239) 
-0.618176

>  <r_i_glide_hbond>  (239) 
-0.32

>  <r_i_glide_metal>  (239) 
-0

>  <r_i_glide_rewards>  (239) 
-1.33347

>  <r_i_glide_evdw>  (239) 
-19.7058

>  <r_i_glide_ecoul>  (239) 
-4.75888

>  <r_i_glide_erotb>  (239) 
0

>  <r_i_glide_esite>  (239) 
0

>  <r_i_glide_emodel>  (239) 
-31.0658

>  <r_i_glide_energy>  (239) 
-24.4647

>  <r_i_glide_einternal>  (239) 
0.491429

>  <r_i_glide_intrahb_reward>  (239) 
-0

>  <i_i_glide_confnum>  (239) 
2

>  <i_i_glide_posenum>  (239) 
8

>  <r_i_glide_eff_state_penalty>  (239) 
0

>  <ligand_id>  (239) 
69

>  <original_smiles>  (239) 
CC1(C)CC2=C3C(O)CC4CC3(CCC3(O)CC1CC23C)O4

>  <smiles>  (239) 
[H]OC1([H])C2=C3C([H])([H])C(C([H])([H])[H])(C([H])([H])[H])C4([H])C([H])([H])C(O[H])(C([H])([H])C([H])([H])C25OC([H])(C1([H])[H])C5([H])[H])C3(C([H])([H])[H])C4([H])[H]

$$$$
69:0:2
     RDKit          3D

 50 54  0  0  1  0  0  0  0  0999 V2000
    4.2313   -4.1563    0.0585 C   0  0  0  0  0  0  0  0  0  0  0  0
    3.9407   -5.0418    1.2898 C   0  0  0  0  0  0  0  0  0  0  0  0
    3.5983   -4.1036    2.4682 C   0  0  0  0  0  0  0  0  0  0  0  0
    2.6913   -5.9101    0.9564 C   0  0  0  0  0  0  0  0  0  0  0  0
    2.6235   -7.1767    1.8108 C   0  0  0  0  0  0  0  0  0  0  0  0
    1.4997   -7.5315    2.4948 C   0  0  0  0  0  0  0  0  0  0  0  0
    0.1277   -6.8539    2.2808 C   0  0  1  0  0  0  0  0  0  0  0  0
   -0.1843   -6.6613    0.9112 O   0  0  0  0  0  0  0  0  0  0  0  0
   -1.0563   -7.6452    2.8881 C   0  0  0  0  0  0  0  0  0  0  0  0
   -0.5612   -8.6479    3.9143 C   0  0  1  0  0  0  0  0  0  0  0  0
    0.4547   -9.6664    3.4164 C   0  0  0  0  0  0  0  0  0  0  0  0
    1.4442   -8.5318    3.6873 C   0  0  1  0  0  0  0  0  0  0  0  0
    2.7307   -8.8634    4.4567 C   0  0  0  0  0  0  0  0  0  0  0  0
    3.7820   -7.7497    4.4755 C   0  0  0  0  0  0  0  0  0  0  0  0
    4.6710   -7.7404    3.2137 C   0  0  2  0  0  0  0  0  0  0  0  0
    5.6546   -8.7481    3.3951 O   0  0  0  0  0  0  0  0  0  0  0  0
    5.4325   -6.4005    3.0429 C   0  0  0  0  0  0  0  0  0  0  0  0
    5.1983   -5.9414    1.5779 C   0  0  1  0  0  0  0  0  0  0  0  0
    4.9931   -7.2971    0.9079 C   0  0  0  0  0  0  0  0  0  0  0  0
    3.9565   -7.9510    1.8480 C   0  0  2  0  0  0  0  0  0  0  0  0
    3.7375   -9.4067    1.3767 C   0  0  0  0  0  0  0  0  0  0  0  0
    0.4975   -7.9988    4.6599 O   0  0  0  0  0  0  0  0  0  0  0  0
    3.3621   -3.5541   -0.2041 H   0  0  0  0  0  0  0  0  0  0  0  0
    4.4844   -4.7581   -0.8142 H   0  0  0  0  0  0  0  0  0  0  0  0
    5.0609   -3.4712    0.2410 H   0  0  0  0  0  0  0  0  0  0  0  0
    3.2153   -4.6614    3.3231 H   0  0  0  0  0  0  0  0  0  0  0  0
    2.8213   -3.3919    2.1892 H   0  0  0  0  0  0  0  0  0  0  0  0
    4.4670   -3.5288    2.7958 H   0  0  0  0  0  0  0  0  0  0  0  0
    1.8136   -5.2814    1.0570 H   0  0  0  0  0  0  0  0  0  0  0  0
    2.7121   -6.2283   -0.0834 H   0  0  0  0  0  0  0  0  0  0  0  0
    0.1901   -5.8871    2.7821 H   0  0  0  0  0  0  0  0  0  0  0  0
   -0.1842   -7.5163    0.4984 H   0  0  0  0  0  0  0  0  0  0  0  0
   -1.7905   -6.9667    3.3252 H   0  0  0  0  0  0  0  0  0  0  0  0
   -1.5960   -8.1993    2.1157 H   0  0  0  0  0  0  0  0  0  0  0  0
   -1.3361   -9.0562    4.5647 H   0  0  0  0  0  0  0  0  0  0  0  0
    0.5645  -10.5151    4.0904 H   0  0  0  0  0  0  0  0  0  0  0  0
    0.3549   -9.9611    2.3720 H   0  0  0  0  0  0  0  0  0  0  0  0
    2.4694   -9.1049    5.4876 H   0  0  0  0  0  0  0  0  0  0  0  0
    3.1767   -9.7861    4.0874 H   0  0  0  0  0  0  0  0  0  0  0  0
    3.2900   -6.7850    4.6310 H   0  0  0  0  0  0  0  0  0  0  0  0
    4.4192   -7.8888    5.3495 H   0  0  0  0  0  0  0  0  0  0  0  0
    5.2179   -9.5843    3.4385 H   0  0  0  0  0  0  0  0  0  0  0  0
    5.1681   -5.6549    3.7912 H   0  0  0  0  0  0  0  0  0  0  0  0
    6.5026   -6.5677    3.1847 H   0  0  0  0  0  0  0  0  0  0  0  0
    6.1012   -5.4519    1.2051 H   0  0  0  0  0  0  0  0  0  0  0  0
    4.6660   -7.2312   -0.1298 H   0  0  0  0  0  0  0  0  0  0  0  0
    5.9257   -7.8616    0.9042 H   0  0  0  0  0  0  0  0  0  0  0  0
    4.6607   -9.9856    1.3955 H   0  0  0  0  0  0  0  0  0  0  0  0
    3.4012   -9.4138    0.3422 H   0  0  0  0  0  0  0  0  0  0  0  0
    2.9870   -9.9561    1.9393 H   0  0  0  0  0  0  0  0  0  0  0  0
  1  2  1  0
  1 23  1  0
  1 24  1  0
  1 25  1  0
  2 18  1  0
  2  3  1  0
  2  4  1  0
  3 26  1  0
  3 27  1  0
  3 28  1  0
  4  5  1  0
  4 29  1  0
  4 30  1  0
  5 20  1  0
  5  6  2  0
  6 12  1  0
  6  7  1  0
  7  8  1  0
  7  9  1  0
  7 31  1  1
  8 32  1  0
  9 10  1  0
  9 33  1  0
  9 34  1  0
 10 22  1  0
 10 11  1  0
 10 35  1  1
 11 12  1  0
 11 36  1  0
 11 37  1  0
 12 13  1  1
 12 22  1  0
 13 14  1  0
 13 38  1  0
 13 39  1  0
 14 15  1  0
 14 40  1  0
 14 41  1  0
 15 20  1  0
 15 16  1  1
 15 17  1  0
 16 42  1  0
 17 18  1  0
 17 43  1  0
 17 44  1  0
 18 19  1  0
 18 45  1  6
 19 20  1  0
 19 46  1  0
 19 47  1  0
 20 21  1  6
 21 48  1  0
 21 49  1  0
 21 50  1  0
M  END
>  <i_m_ct_stereo_status>  (240) 
1

>  <s_m_source_file>  (240) 
/var/tmp/pbs.5076255.sched01/tmpagfdxo7m/88tnrj_5ym.sdf

>  <i_m_source_file_index>  (240) 
12

>  <i_lp_mmshare_version>  (240) 
48012

>  <i_f3d_flags>  (240) 
0

>  <s_epik_input>  (240) 
W0NIM11DKFtDSDNdKShbQ0gyXTEpW0NASF0oW0NIMl0yKVtDSDJdW0NAQF0oW09IXSkoW0NIMl1bQ0gyXTMpW0NAQF0yKFtDSDNdKUMxPUMoW0NAXTM0NSlbQ0BASF0oW09IXSlbQ0gyXVtDQEhdKE81KVtDSDJdNA==

>  <s_epik_cmdline>  (240) 
J2VwaWtfcHl0aG9uJywgJy1waHQnLCAnMi4wJywgJy1waCcsICc3LjAnLCAnLXRuJywgJzgnLCAnLW1hJywgJzIwMCcsICctaW1hZScsICc8aW5maWxlLm1hZT4nLCAnLW9tYWUnLCAnPG91dGZpbGUubWFlPic=

>  <r_lp_tautomer_probability>  (240) 
1

>  <r_epik_Ionization_Penalty>  (240) 
6.4851e-07

>  <r_epik_Ionization_Penalty_Charging>  (240) 
0

>  <r_epik_Ionization_Penalty_Neutral>  (240) 
6.4851e-07

>  <r_epik_State_Penalty>  (240) 
-0

>  <r_epik_Charging_Adjusted_Penalty>  (240) 
0

>  <i_epik_Tot_Q>  (240) 
0

>  <i_epik_Tot_abs_Q>  (240) 
0

>  <s_lp_Force_Field>  (240) 
OPLS3e

>  <r_lp_Energy>  (240) 
70.8257

>  <b_lp_Chiralities_Consistent>  (240) 
1

>  <s_lp_Variant>  (240) 
69:0-1

>  <s_i_glide_gridfile>  (240) 
pfpi4k_grid

>  <i_i_glide_lignum>  (240) 
12

>  <i_i_glide_rotatable_bonds>  (240) 
2

>  <r_i_docking_score>  (240) 
-3.62033

>  <r_i_glide_ligand_efficiency>  (240) 
-0.164561

>  <r_i_glide_ligand_efficiency_sa>  (240) 
-0.461105

>  <r_i_glide_ligand_efficiency_ln>  (240) 
-0.884941

>  <r_i_glide_gscore>  (240) 
-3.62033

>  <r_i_glide_lipo>  (240) 
-0.14357

>  <r_i_glide_hbond>  (240) 
-0.177976

>  <r_i_glide_metal>  (240) 
-0

>  <r_i_glide_rewards>  (240) 
-1.33347

>  <r_i_glide_evdw>  (240) 
-23.8902

>  <r_i_glide_ecoul>  (240) 
-5.13868

>  <r_i_glide_erotb>  (240) 
0

>  <r_i_glide_esite>  (240) 
0

>  <r_i_glide_emodel>  (240) 
-35.8094

>  <r_i_glide_energy>  (240) 
-29.0289

>  <r_i_glide_einternal>  (240) 
0.0214359

>  <r_i_glide_intrahb_reward>  (240) 
-0

>  <i_i_glide_confnum>  (240) 
1

>  <i_i_glide_posenum>  (240) 
30

>  <r_i_glide_eff_state_penalty>  (240) 
0

>  <ligand_id>  (240) 
69

>  <original_smiles>  (240) 
CC1(C)CC2=C3C(O)CC4CC3(CCC3(O)CC1CC23C)O4

>  <smiles>  (240) 
[H]OC1([H])C2=C3C([H])([H])C(C([H])([H])[H])(C([H])([H])[H])C4([H])C([H])([H])C(O[H])(C([H])([H])C([H])([H])C25OC([H])(C1([H])[H])C5([H])[H])C3(C([H])([H])[H])C4([H])[H]

$$$$
70:0:0
     RDKit          3D

 30 33  0  0  1  0  0  0  0  0999 V2000
    4.8865   -4.9690    3.3418 C   0  0  0  0  0  0  0  0  0  0  0  0
    3.7203   -5.5883    2.6225 C   0  0  0  0  0  0  0  0  0  0  0  0
    3.1640   -6.6798    3.2131 N   0  0  0  0  0  0  0  0  0  0  0  0
    2.1281   -7.0922    2.4212 N   0  0  0  0  0  0  0  0  0  0  0  0
    1.2843   -8.2352    2.7060 C   0  0  0  0  0  0  0  0  0  0  0  0
    1.9956   -6.2907    1.3555 C   0  0  0  0  0  0  0  0  0  0  0  0
    1.2084   -6.1475    0.3117 N   0  0  0  0  0  0  0  0  0  0  0  0
    1.8191   -5.0651   -0.2944 N   0  0  0  0  0  0  0  0  0  0  0  0
    2.9229   -4.4856    0.3573 C   0  0  0  0  0  0  0  0  0  0  0  0
    3.6199   -3.2991   -0.1410 C   0  0  0  0  0  0  0  0  0  0  0  0
    4.5722   -2.5328    0.4793 C   0  0  0  0  0  0  0  0  0  0  0  0
    5.0085   -1.4866   -0.3236 N   0  0  0  0  0  0  0  0  0  0  0  0
    4.3097   -1.5763   -1.4514 C   0  0  0  0  0  0  0  0  0  0  0  0
    4.2930   -0.8045   -2.6429 C   0  0  0  0  0  0  0  0  0  0  0  0
    3.4557   -1.1727   -3.6646 C   0  0  0  0  0  0  0  0  0  0  0  0
    2.6220   -2.3012   -3.4712 C   0  0  0  0  0  0  0  0  0  0  0  0
    2.5515   -3.0709   -2.3824 N   0  0  0  0  0  0  0  0  0  0  0  0
    3.4221   -2.6842   -1.3932 N   0  0  0  0  0  0  0  0  0  0  0  0
    2.9762   -5.3418    1.4207 C   0  0  0  0  0  0  0  0  0  0  0  0
    1.5161   -4.7115   -1.1992 H   0  0  0  0  0  0  0  0  0  0  0  0
    5.3222   -4.1005    2.8594 H   0  0  0  0  0  0  0  0  0  0  0  0
    5.6679   -5.7156    3.4726 H   0  0  0  0  0  0  0  0  0  0  0  0
    4.5872   -4.6974    4.3540 H   0  0  0  0  0  0  0  0  0  0  0  0
    0.5253   -8.3731    1.9364 H   0  0  0  0  0  0  0  0  0  0  0  0
    0.7967   -8.0946    3.6747 H   0  0  0  0  0  0  0  0  0  0  0  0
    1.8984   -9.1391    2.7657 H   0  0  0  0  0  0  0  0  0  0  0  0
    4.9977   -2.6286    1.4593 H   0  0  0  0  0  0  0  0  0  0  0  0
    4.9326    0.0617   -2.7231 H   0  0  0  0  0  0  0  0  0  0  0  0
    3.4127   -0.5939   -4.5871 H   0  0  0  0  0  0  0  0  0  0  0  0
    1.9472   -2.5768   -4.2771 H   0  0  0  0  0  0  0  0  0  0  0  0
  1  2  1  0
  1 21  1  0
  1 22  1  0
  1 23  1  0
  2 19  1  0
  2  3  2  0
  3  4  1  0
  4  5  1  0
  4  6  1  0
  5 24  1  0
  5 25  1  0
  5 26  1  0
  6 19  1  0
  6  7  2  0
  7  8  1  0
  8 20  1  0
  8  9  1  0
  9 10  1  0
  9 19  2  0
 10 18  1  0
 10 11  2  0
 11 12  1  0
 11 27  1  0
 12 13  2  0
 13 18  1  0
 13 14  1  0
 14 15  2  0
 14 28  1  0
 15 16  1  0
 15 29  1  0
 16 17  2  0
 16 30  1  0
 17 18  1  0
M  END
>  <i_m_ct_stereo_status>  (241) 
1

>  <s_m_source_file>  (241) 
/var/tmp/pbs.5076255.sched01/tmpagfdxo7m/88tnrj_5ym.sdf

>  <i_m_source_file_index>  (241) 
13

>  <i_lp_mmshare_version>  (241) 
48012

>  <i_f3d_flags>  (241) 
0

>  <s_epik_input>  (241) 
W0NIM11uMW5jKFtDSDNdKWMoYzEyKWMoW25IXW4yKS1jKFtjSF1uMyluKGMzNCluW2NIXVtjSF1bY0hdNA==

>  <s_epik_cmdline>  (241) 
J2VwaWtfcHl0aG9uJywgJy1waHQnLCAnMi4wJywgJy1waCcsICc3LjAnLCAnLXRuJywgJzgnLCAnLW1hJywgJzIwMCcsICctaW1hZScsICc8aW5maWxlLm1hZT4nLCAnLW9tYWUnLCAnPG91dGZpbGUubWFlPic=

>  <r_lp_tautomer_probability>  (241) 
1

>  <r_epik_Ionization_Penalty>  (241) 
0.00187964

>  <r_epik_Ionization_Penalty_Charging>  (241) 
0

>  <r_epik_Ionization_Penalty_Neutral>  (241) 
0.00187964

>  <r_epik_State_Penalty>  (241) 
-0

>  <r_epik_Charging_Adjusted_Penalty>  (241) 
0

>  <i_epik_Tot_Q>  (241) 
0

>  <i_epik_Tot_abs_Q>  (241) 
0

>  <s_lp_Force_Field>  (241) 
OPLS3e

>  <r_lp_Energy>  (241) 
14.9303

>  <b_lp_Chiralities_Consistent>  (241) 
1

>  <s_lp_Variant>  (241) 
70:0-1

>  <s_i_glide_gridfile>  (241) 
pfpi4k_grid

>  <i_i_glide_lignum>  (241) 
13

>  <i_i_glide_rotatable_bonds>  (241) 
1

>  <r_i_docking_score>  (241) 
-4.67236

>  <r_i_glide_ligand_efficiency>  (241) 
-0.245914

>  <r_i_glide_ligand_efficiency_sa>  (241) 
-0.656197

>  <r_i_glide_ligand_efficiency_ln>  (241) 
-1.18454

>  <r_i_glide_gscore>  (241) 
-4.67236

>  <r_i_glide_lipo>  (241) 
-0.491185

>  <r_i_glide_hbond>  (241) 
-0.241876

>  <r_i_glide_metal>  (241) 
-0

>  <r_i_glide_rewards>  (241) 
-2.1823

>  <r_i_glide_evdw>  (241) 
-22.8978

>  <r_i_glide_ecoul>  (241) 
-4.47415

>  <r_i_glide_erotb>  (241) 
0.27384

>  <r_i_glide_esite>  (241) 
-0.21483

>  <r_i_glide_emodel>  (241) 
-40.2253

>  <r_i_glide_energy>  (241) 
-27.372

>  <r_i_glide_einternal>  (241) 
0.859066

>  <r_i_glide_intrahb_reward>  (241) 
-0.5

>  <i_i_glide_confnum>  (241) 
5

>  <i_i_glide_posenum>  (241) 
39

>  <r_i_glide_eff_state_penalty>  (241) 
0

>  <ligand_id>  (241) 
70

>  <original_smiles>  (241) 
Cc1nn(C)c2n[nH]c(-c3cnc4cccnn34)c12

>  <smiles>  (241) 
[H]c1nn2c(-c3c4c(C([H])([H])[H])nn(C([H])([H])[H])c4nn3[H])c([H])nc2c([H])c1[H]

$$$$
70:0:1
     RDKit          3D

 30 33  0  0  1  0  0  0  0  0999 V2000
    7.3713   -5.4602    0.8027 C   0  0  0  0  0  0  0  0  0  0  0  0
    5.9604   -5.9374    0.9372 C   0  0  0  0  0  0  0  0  0  0  0  0
    5.7630   -7.1376    1.5375 N   0  0  0  0  0  0  0  0  0  0  0  0
    4.4156   -7.3780    1.5613 N   0  0  0  0  0  0  0  0  0  0  0  0
    3.8062   -8.5688    2.1183 C   0  0  0  0  0  0  0  0  0  0  0  0
    3.7484   -6.3583    1.0031 C   0  0  0  0  0  0  0  0  0  0  0  0
    2.5024   -5.9861    0.7637 N   0  0  0  0  0  0  0  0  0  0  0  0
    2.7384   -4.7818    0.1224 N   0  0  0  0  0  0  0  0  0  0  0  0
    4.0728   -4.3817   -0.0253 C   0  0  0  0  0  0  0  0  0  0  0  0
    4.4558   -3.1006   -0.6206 C   0  0  0  0  0  0  0  0  0  0  0  0
    5.3768   -2.1887   -0.1805 C   0  0  0  0  0  0  0  0  0  0  0  0
    5.4370   -1.0828   -1.0100 N   0  0  0  0  0  0  0  0  0  0  0  0
    4.5481   -1.2976   -1.9801 C   0  0  0  0  0  0  0  0  0  0  0  0
    4.1379   -0.5531   -3.1182 C   0  0  0  0  0  0  0  0  0  0  0  0
    3.1856   -1.0805   -3.9518 C   0  0  0  0  0  0  0  0  0  0  0  0
    2.6186   -2.3282   -3.6082 C   0  0  0  0  0  0  0  0  0  0  0  0
    2.9060   -3.0731   -2.5445 N   0  0  0  0  0  0  0  0  0  0  0  0
    3.8969   -2.5394   -1.7765 N   0  0  0  0  0  0  0  0  0  0  0  0
    4.6660   -5.4483    0.5796 C   0  0  0  0  0  0  0  0  0  0  0  0
    1.9883   -4.2251   -0.2463 H   0  0  0  0  0  0  0  0  0  0  0  0
    7.4988   -4.4826    0.3128 H   0  0  0  0  0  0  0  0  0  0  0  0
    7.9475   -6.2062    0.2558 H   0  0  0  0  0  0  0  0  0  0  0  0
    7.8384   -5.4283    1.7874 H   0  0  0  0  0  0  0  0  0  0  0  0
    2.7194   -8.5351    2.0269 H   0  0  0  0  0  0  0  0  0  0  0  0
    4.0702   -8.6531    3.1710 H   0  0  0  0  0  0  0  0  0  0  0  0
    4.1763   -9.4532    1.6018 H   0  0  0  0  0  0  0  0  0  0  0  0
    5.9778   -2.2151    0.7104 H   0  0  0  0  0  0  0  0  0  0  0  0
    4.5710    0.4196   -3.3260 H   0  0  0  0  0  0  0  0  0  0  0  0
    2.8456   -0.5441   -4.8341 H   0  0  0  0  0  0  0  0  0  0  0  0
    1.8392   -2.7291   -4.2577 H   0  0  0  0  0  0  0  0  0  0  0  0
  1  2  1  0
  1 21  1  0
  1 22  1  0
  1 23  1  0
  2 19  1  0
  2  3  2  0
  3  4  1  0
  4  5  1  0
  4  6  1  0
  5 24  1  0
  5 25  1  0
  5 26  1  0
  6 19  1  0
  6  7  2  0
  7  8  1  0
  8 20  1  0
  8  9  1  0
  9 10  1  0
  9 19  2  0
 10 18  1  0
 10 11  2  0
 11 12  1  0
 11 27  1  0
 12 13  2  0
 13 18  1  0
 13 14  1  0
 14 15  2  0
 14 28  1  0
 15 16  1  0
 15 29  1  0
 16 17  2  0
 16 30  1  0
 17 18  1  0
M  END
>  <i_m_ct_stereo_status>  (242) 
1

>  <s_m_source_file>  (242) 
/var/tmp/pbs.5076255.sched01/tmpagfdxo7m/88tnrj_5ym.sdf

>  <i_m_source_file_index>  (242) 
13

>  <i_lp_mmshare_version>  (242) 
48012

>  <i_f3d_flags>  (242) 
0

>  <s_epik_input>  (242) 
W0NIM11uMW5jKFtDSDNdKWMoYzEyKWMoW25IXW4yKS1jKFtjSF1uMyluKGMzNCluW2NIXVtjSF1bY0hdNA==

>  <s_epik_cmdline>  (242) 
J2VwaWtfcHl0aG9uJywgJy1waHQnLCAnMi4wJywgJy1waCcsICc3LjAnLCAnLXRuJywgJzgnLCAnLW1hJywgJzIwMCcsICctaW1hZScsICc8aW5maWxlLm1hZT4nLCAnLW9tYWUnLCAnPG91dGZpbGUubWFlPic=

>  <r_lp_tautomer_probability>  (242) 
1

>  <r_epik_Ionization_Penalty>  (242) 
0.00187964

>  <r_epik_Ionization_Penalty_Charging>  (242) 
0

>  <r_epik_Ionization_Penalty_Neutral>  (242) 
0.00187964

>  <r_epik_State_Penalty>  (242) 
-0

>  <r_epik_Charging_Adjusted_Penalty>  (242) 
0

>  <i_epik_Tot_Q>  (242) 
0

>  <i_epik_Tot_abs_Q>  (242) 
0

>  <s_lp_Force_Field>  (242) 
OPLS3e

>  <r_lp_Energy>  (242) 
14.9303

>  <b_lp_Chiralities_Consistent>  (242) 
1

>  <s_lp_Variant>  (242) 
70:0-1

>  <s_i_glide_gridfile>  (242) 
pfpi4k_grid

>  <i_i_glide_lignum>  (242) 
13

>  <i_i_glide_rotatable_bonds>  (242) 
1

>  <r_i_docking_score>  (242) 
-4.17188

>  <r_i_glide_ligand_efficiency>  (242) 
-0.219572

>  <r_i_glide_ligand_efficiency_sa>  (242) 
-0.585908

>  <r_i_glide_ligand_efficiency_ln>  (242) 
-1.05766

>  <r_i_glide_gscore>  (242) 
-4.17188

>  <r_i_glide_lipo>  (242) 
-0.902631

>  <r_i_glide_hbond>  (242) 
0

>  <r_i_glide_metal>  (242) 
-0

>  <r_i_glide_rewards>  (242) 
-1.86874

>  <r_i_glide_evdw>  (242) 
-27.5757

>  <r_i_glide_ecoul>  (242) 
-1.22458

>  <r_i_glide_erotb>  (242) 
0.27384

>  <r_i_glide_esite>  (242) 
-0.111879

>  <r_i_glide_emodel>  (242) 
-35.204

>  <r_i_glide_energy>  (242) 
-28.8002

>  <r_i_glide_einternal>  (242) 
0.991274

>  <r_i_glide_intrahb_reward>  (242) 
-0

>  <i_i_glide_confnum>  (242) 
5

>  <i_i_glide_posenum>  (242) 
33

>  <r_i_glide_eff_state_penalty>  (242) 
0

>  <ligand_id>  (242) 
70

>  <original_smiles>  (242) 
Cc1nn(C)c2n[nH]c(-c3cnc4cccnn34)c12

>  <smiles>  (242) 
[H]c1nn2c(-c3c4c(C([H])([H])[H])nn(C([H])([H])[H])c4nn3[H])c([H])nc2c([H])c1[H]

$$$$
70:0:2
     RDKit          3D

 30 33  0  0  1  0  0  0  0  0999 V2000
    6.3721   -1.9046    0.1148 C   0  0  0  0  0  0  0  0  0  0  0  0
    5.2176   -1.9759   -0.8438 C   0  0  0  0  0  0  0  0  0  0  0  0
    5.2467   -1.0924   -1.8740 N   0  0  0  0  0  0  0  0  0  0  0  0
    4.1259   -1.3051   -2.6316 N   0  0  0  0  0  0  0  0  0  0  0  0
    3.7823   -0.5547   -3.8183 C   0  0  0  0  0  0  0  0  0  0  0  0
    3.3948   -2.3066   -2.1168 C   0  0  0  0  0  0  0  0  0  0  0  0
    2.2924   -2.9642   -2.3915 N   0  0  0  0  0  0  0  0  0  0  0  0
    2.2504   -3.8163   -1.3108 N   0  0  0  0  0  0  0  0  0  0  0  0
    3.3227   -3.7712   -0.4034 C   0  0  0  0  0  0  0  0  0  0  0  0
    3.4431   -4.6720    0.7486 C   0  0  0  0  0  0  0  0  0  0  0  0
    4.4342   -4.7351    1.6908 C   0  0  0  0  0  0  0  0  0  0  0  0
    4.1958   -5.7169    2.6393 N   0  0  0  0  0  0  0  0  0  0  0  0
    3.0460   -6.2896    2.2914 C   0  0  0  0  0  0  0  0  0  0  0  0
    2.2822   -7.3385    2.8622 C   0  0  0  0  0  0  0  0  0  0  0  0
    1.1057   -7.7053    2.2559 C   0  0  0  0  0  0  0  0  0  0  0  0
    0.7111   -7.0196    1.0835 C   0  0  0  0  0  0  0  0  0  0  0  0
    1.3543   -6.0176    0.4809 N   0  0  0  0  0  0  0  0  0  0  0  0
    2.5325   -5.6803    1.1139 N   0  0  0  0  0  0  0  0  0  0  0  0
    4.0213   -2.7521   -0.9923 C   0  0  0  0  0  0  0  0  0  0  0  0
    1.5256   -4.5182   -1.2340 H   0  0  0  0  0  0  0  0  0  0  0  0
    6.3348   -2.6190    0.9280 H   0  0  0  0  0  0  0  0  0  0  0  0
    6.4344   -0.9039    0.5406 H   0  0  0  0  0  0  0  0  0  0  0  0
    7.3069   -2.0540   -0.4230 H   0  0  0  0  0  0  0  0  0  0  0  0
    2.8413   -0.8963   -4.2530 H   0  0  0  0  0  0  0  0  0  0  0  0
    4.5810   -0.6610   -4.5542 H   0  0  0  0  0  0  0  0  0  0  0  0
    3.6938    0.5041   -3.5639 H   0  0  0  0  0  0  0  0  0  0  0  0
    5.3255   -4.1470    1.7930 H   0  0  0  0  0  0  0  0  0  0  0  0
    2.6260   -7.8405    3.7575 H   0  0  0  0  0  0  0  0  0  0  0  0
    0.5056   -8.5162    2.6616 H   0  0  0  0  0  0  0  0  0  0  0  0
   -0.2153   -7.3404    0.6109 H   0  0  0  0  0  0  0  0  0  0  0  0
  1  2  1  0
  1 21  1  0
  1 22  1  0
  1 23  1  0
  2 19  1  0
  2  3  2  0
  3  4  1  0
  4  5  1  0
  4  6  1  0
  5 24  1  0
  5 25  1  0
  5 26  1  0
  6 19  1  0
  6  7  2  0
  7  8  1  0
  8 20  1  0
  8  9  1  0
  9 10  1  0
  9 19  2  0
 10 18  1  0
 10 11  2  0
 11 12  1  0
 11 27  1  0
 12 13  2  0
 13 18  1  0
 13 14  1  0
 14 15  2  0
 14 28  1  0
 15 16  1  0
 15 29  1  0
 16 17  2  0
 16 30  1  0
 17 18  1  0
M  END
>  <i_m_ct_stereo_status>  (243) 
1

>  <s_m_source_file>  (243) 
/var/tmp/pbs.5076255.sched01/tmpagfdxo7m/88tnrj_5ym.sdf

>  <i_m_source_file_index>  (243) 
13

>  <i_lp_mmshare_version>  (243) 
48012

>  <i_f3d_flags>  (243) 
0

>  <s_epik_input>  (243) 
W0NIM11uMW5jKFtDSDNdKWMoYzEyKWMoW25IXW4yKS1jKFtjSF1uMyluKGMzNCluW2NIXVtjSF1bY0hdNA==

>  <s_epik_cmdline>  (243) 
J2VwaWtfcHl0aG9uJywgJy1waHQnLCAnMi4wJywgJy1waCcsICc3LjAnLCAnLXRuJywgJzgnLCAnLW1hJywgJzIwMCcsICctaW1hZScsICc8aW5maWxlLm1hZT4nLCAnLW9tYWUnLCAnPG91dGZpbGUubWFlPic=

>  <r_lp_tautomer_probability>  (243) 
1

>  <r_epik_Ionization_Penalty>  (243) 
0.00187964

>  <r_epik_Ionization_Penalty_Charging>  (243) 
0

>  <r_epik_Ionization_Penalty_Neutral>  (243) 
0.00187964

>  <r_epik_State_Penalty>  (243) 
-0

>  <r_epik_Charging_Adjusted_Penalty>  (243) 
0

>  <i_epik_Tot_Q>  (243) 
0

>  <i_epik_Tot_abs_Q>  (243) 
0

>  <s_lp_Force_Field>  (243) 
OPLS3e

>  <r_lp_Energy>  (243) 
14.9303

>  <b_lp_Chiralities_Consistent>  (243) 
1

>  <s_lp_Variant>  (243) 
70:0-1

>  <s_i_glide_gridfile>  (243) 
pfpi4k_grid

>  <i_i_glide_lignum>  (243) 
13

>  <i_i_glide_rotatable_bonds>  (243) 
1

>  <r_i_docking_score>  (243) 
-3.87876

>  <r_i_glide_ligand_efficiency>  (243) 
-0.204145

>  <r_i_glide_ligand_efficiency_sa>  (243) 
-0.544741

>  <r_i_glide_ligand_efficiency_ln>  (243) 
-0.983348

>  <r_i_glide_gscore>  (243) 
-3.87876

>  <r_i_glide_lipo>  (243) 
-0.269753

>  <r_i_glide_hbond>  (243) 
-0.16

>  <r_i_glide_metal>  (243) 
-0

>  <r_i_glide_rewards>  (243) 
-2.18385

>  <r_i_glide_evdw>  (243) 
-24.9376

>  <r_i_glide_ecoul>  (243) 
-1.16547

>  <r_i_glide_erotb>  (243) 
0.27384

>  <r_i_glide_esite>  (243) 
-0.117293

>  <r_i_glide_emodel>  (243) 
-37.6699

>  <r_i_glide_energy>  (243) 
-26.1031

>  <r_i_glide_einternal>  (243) 
0.890234

>  <r_i_glide_intrahb_reward>  (243) 
-0.5

>  <i_i_glide_confnum>  (243) 
2

>  <i_i_glide_posenum>  (243) 
2

>  <r_i_glide_eff_state_penalty>  (243) 
0

>  <ligand_id>  (243) 
70

>  <original_smiles>  (243) 
Cc1nn(C)c2n[nH]c(-c3cnc4cccnn34)c12

>  <smiles>  (243) 
[H]c1nn2c(-c3c4c(C([H])([H])[H])nn(C([H])([H])[H])c4nn3[H])c([H])nc2c([H])c1[H]

$$$$
71:0:0
     RDKit          3D

 30 32  0  0  1  0  0  0  0  0999 V2000
    8.9188   -4.6648    1.1884 O   0  0  0  0  0  0  0  0  0  0  0  0
    7.7377   -4.9020    1.4091 N   0  0  0  0  0  0  0  0  0  0  0  0
    7.3352   -5.5548    2.3721 O   0  0  0  0  0  0  0  0  0  0  0  0
    6.7729   -4.3630    0.4961 C   0  0  0  0  0  0  0  0  0  0  0  0
    7.0524   -3.5957   -0.6130 C   0  0  0  0  0  0  0  0  0  0  0  0
    5.8409   -3.3617   -1.2184 N   0  0  0  0  0  0  0  0  0  0  0  0
    4.8868   -3.9161   -0.4390 C   0  0  0  0  0  0  0  0  0  0  0  0
    5.3939   -4.5643    0.6069 N   0  0  0  0  0  0  0  0  0  0  0  0
    3.5932   -3.8581   -0.7605 O   0  0  0  0  0  0  0  0  0  0  0  0
    3.2223   -2.8310   -1.6523 C   0  0  0  0  0  0  0  0  0  0  0  0
    4.1632   -2.7653   -2.8757 C   0  0  1  0  0  0  0  0  0  0  0  0
    3.8188   -1.7432   -3.7952 O   0  0  0  0  0  0  0  0  0  0  0  0
    3.6868   -0.4196   -3.2732 C   0  0  0  0  0  0  0  0  0  0  0  0
    3.4742    0.5508   -4.3883 C   0  0  0  0  0  0  0  0  0  0  0  0
    2.1612    0.5519   -5.1085 C   0  0  0  0  0  0  0  0  0  0  0  0
    3.4202    0.1347   -5.8204 C   0  0  0  0  0  0  0  0  0  0  0  0
    5.6222   -2.6207   -2.4249 C   0  0  0  0  0  0  0  0  0  0  0  0
    7.9874   -3.2700   -1.0353 H   0  0  0  0  0  0  0  0  0  0  0  0
    2.2061   -3.0147   -1.9854 H   0  0  0  0  0  0  0  0  0  0  0  0
    3.2125   -1.9124   -1.0588 H   0  0  0  0  0  0  0  0  0  0  0  0
    4.0670   -3.7135   -3.4132 H   0  0  0  0  0  0  0  0  0  0  0  0
    2.8231   -0.3222   -2.6172 H   0  0  0  0  0  0  0  0  0  0  0  0
    4.5547   -0.0546   -2.7296 H   0  0  0  0  0  0  0  0  0  0  0  0
    3.8626    1.5464   -4.1737 H   0  0  0  0  0  0  0  0  0  0  0  0
    1.4533   -0.2388   -4.9650 H   0  0  0  0  0  0  0  0  0  0  0  0
    1.7382    1.5136   -5.4099 H   0  0  0  0  0  0  0  0  0  0  0  0
    3.8122    0.7872   -6.5598 H   0  0  0  0  0  0  0  0  0  0  0  0
    3.5264   -0.9256   -6.0117 H   0  0  0  0  0  0  0  0  0  0  0  0
    5.8782   -1.6070   -2.1382 H   0  0  0  0  0  0  0  0  0  0  0  0
    6.3156   -2.9494   -3.1949 H   0  0  0  0  0  0  0  0  0  0  0  0
  1  2  2  0
  2  3  1  0
  2  4  1  0
  4  8  1  0
  4  5  2  0
  5  6  1  0
  5 18  1  0
  6 17  1  0
  6  7  1  0
  7  8  2  0
  7  9  1  0
  9 10  1  0
 10 11  1  0
 10 19  1  0
 10 20  1  0
 11 12  1  0
 11 17  1  0
 11 21  1  6
 12 13  1  0
 13 14  1  0
 13 22  1  0
 13 23  1  0
 14 16  1  0
 14 15  1  0
 14 24  1  0
 15 16  1  0
 15 25  1  0
 15 26  1  0
 16 27  1  0
 16 28  1  0
 17 29  1  0
 17 30  1  0
M  CHG  2   2   1   3  -1
M  END
>  <i_m_ct_stereo_status>  (244) 
1

>  <s_m_source_file>  (244) 
/var/tmp/pbs.5076255.sched01/tmpagfdxo7m/88tnrj_5ym.sdf

>  <i_m_source_file_index>  (244) 
14

>  <i_lp_mmshare_version>  (244) 
48012

>  <i_f3d_flags>  (244) 
0

>  <s_epik_input>  (244) 
Tz1bTitdKFtPLV0pYyhbY0hdMSluYyhuMTIpT1tDSDJdW0NASF0oW0NIMl0yKU9bQ0gyXVtDSF0zW0NIMl1bQ0gyXTM=

>  <s_epik_cmdline>  (244) 
J2VwaWtfcHl0aG9uJywgJy1waHQnLCAnMi4wJywgJy1waCcsICc3LjAnLCAnLXRuJywgJzgnLCAnLW1hJywgJzIwMCcsICctaW1hZScsICc8aW5maWxlLm1hZT4nLCAnLW9tYWUnLCAnPG91dGZpbGUubWFlPic=

>  <r_lp_tautomer_probability>  (244) 
1

>  <r_epik_Ionization_Penalty>  (244) 
1.92794e-05

>  <r_epik_Ionization_Penalty_Charging>  (244) 
1.92794e-05

>  <r_epik_Ionization_Penalty_Neutral>  (244) 
6.21218e-13

>  <r_epik_State_Penalty>  (244) 
-0

>  <r_epik_Charging_Adjusted_Penalty>  (244) 
1.92794e-05

>  <i_epik_Tot_Q>  (244) 
0

>  <i_epik_Tot_abs_Q>  (244) 
2

>  <s_lp_Force_Field>  (244) 
OPLS3e

>  <r_lp_Energy>  (244) 
24.2665

>  <b_lp_Chiralities_Consistent>  (244) 
1

>  <s_lp_Variant>  (244) 
71:0-1

>  <s_i_glide_gridfile>  (244) 
pfpi4k_grid

>  <i_i_glide_lignum>  (244) 
14

>  <i_i_glide_rotatable_bonds>  (244) 
4

>  <r_i_docking_score>  (244) 
-3.25677

>  <r_i_glide_ligand_efficiency>  (244) 
-0.191575

>  <r_i_glide_ligand_efficiency_sa>  (244) 
-0.492593

>  <r_i_glide_ligand_efficiency_ln>  (244) 
-0.84962

>  <r_i_glide_gscore>  (244) 
-3.25677

>  <r_i_glide_lipo>  (244) 
-0.657999

>  <r_i_glide_hbond>  (244) 
0

>  <r_i_glide_metal>  (244) 
-0

>  <r_i_glide_rewards>  (244) 
-2.20712

>  <r_i_glide_evdw>  (244) 
-21.5194

>  <r_i_glide_ecoul>  (244) 
-1.23561

>  <r_i_glide_erotb>  (244) 
0.905699

>  <r_i_glide_esite>  (244) 
-0.036037

>  <r_i_glide_emodel>  (244) 
-25.3463

>  <r_i_glide_energy>  (244) 
-22.755

>  <r_i_glide_einternal>  (244) 
4.96077

>  <r_i_glide_intrahb_reward>  (244) 
-0

>  <i_i_glide_confnum>  (244) 
3

>  <i_i_glide_posenum>  (244) 
3

>  <r_i_glide_eff_state_penalty>  (244) 
0

>  <ligand_id>  (244) 
71

>  <original_smiles>  (244) 
O=[N+]([O-])c1cn2c(n1)OCC(OCC1CC1)C2

>  <smiles>  (244) 
[H]c1c([N+](=O)[O-])nc2n1C([H])([H])C([H])(OC([H])([H])C1([H])C([H])([H])C1([H])[H])C([H])([H])O2

$$$$
71:0:1
     RDKit          3D

 30 32  0  0  1  0  0  0  0  0999 V2000
    6.2134   -3.8580   -0.0842 O   0  0  0  0  0  0  0  0  0  0  0  0
    5.8810   -2.6773   -0.2003 N   0  0  0  0  0  0  0  0  0  0  0  0
    6.4823   -1.8602   -0.8976 O   0  0  0  0  0  0  0  0  0  0  0  0
    4.7277   -2.2095    0.5337 C   0  0  0  0  0  0  0  0  0  0  0  0
    4.2571   -0.9178    0.5742 C   0  0  0  0  0  0  0  0  0  0  0  0
    3.1499   -0.9397    1.4062 N   0  0  0  0  0  0  0  0  0  0  0  0
    3.0239   -2.2037    1.8315 C   0  0  0  0  0  0  0  0  0  0  0  0
    3.9299   -3.0343    1.3375 N   0  0  0  0  0  0  0  0  0  0  0  0
    2.0147   -2.5566    2.6589 O   0  0  0  0  0  0  0  0  0  0  0  0
    1.3692   -1.5040    3.3691 C   0  0  0  0  0  0  0  0  0  0  0  0
    1.0255   -0.3268    2.4422 C   0  0  1  0  0  0  0  0  0  0  0  0
    0.4130    0.7110    3.1964 O   0  0  0  0  0  0  0  0  0  0  0  0
   -0.2971    1.6413    2.3889 C   0  0  0  0  0  0  0  0  0  0  0  0
   -0.9021    2.7063    3.2748 C   0  0  0  0  0  0  0  0  0  0  0  0
   -1.8934    2.3263    4.3451 C   0  0  0  0  0  0  0  0  0  0  0  0
   -2.3528    3.1079    3.1403 C   0  0  0  0  0  0  0  0  0  0  0  0
    2.3124    0.1747    1.7686 C   0  0  0  0  0  0  0  0  0  0  0  0
    4.6005   -0.0113    0.0937 H   0  0  0  0  0  0  0  0  0  0  0  0
    0.4591   -1.9065    3.8098 H   0  0  0  0  0  0  0  0  0  0  0  0
    2.0054   -1.1924    4.1972 H   0  0  0  0  0  0  0  0  0  0  0  0
    0.3313   -0.6946    1.6809 H   0  0  0  0  0  0  0  0  0  0  0  0
    0.3426    2.1210    1.6479 H   0  0  0  0  0  0  0  0  0  0  0  0
   -1.0902    1.1298    1.8436 H   0  0  0  0  0  0  0  0  0  0  0  0
   -0.2040    3.4984    3.5359 H   0  0  0  0  0  0  0  0  0  0  0  0
   -2.1861    1.2805    4.4051 H   0  0  0  0  0  0  0  0  0  0  0  0
   -1.8345    2.8539    5.2940 H   0  0  0  0  0  0  0  0  0  0  0  0
   -2.5950    4.1575    3.2843 H   0  0  0  0  0  0  0  0  0  0  0  0
   -2.9563    2.5889    2.3974 H   0  0  0  0  0  0  0  0  0  0  0  0
    2.8857    0.7959    2.4593 H   0  0  0  0  0  0  0  0  0  0  0  0
    2.0826    0.7545    0.8782 H   0  0  0  0  0  0  0  0  0  0  0  0
  1  2  2  0
  2  3  1  0
  2  4  1  0
  4  8  1  0
  4  5  2  0
  5  6  1  0
  5 18  1  0
  6 17  1  0
  6  7  1  0
  7  8  2  0
  7  9  1  0
  9 10  1  0
 10 11  1  0
 10 19  1  0
 10 20  1  0
 11 12  1  0
 11 17  1  0
 11 21  1  6
 12 13  1  0
 13 14  1  0
 13 22  1  0
 13 23  1  0
 14 16  1  0
 14 15  1  0
 14 24  1  0
 15 16  1  0
 15 25  1  0
 15 26  1  0
 16 27  1  0
 16 28  1  0
 17 29  1  0
 17 30  1  0
M  CHG  2   2   1   3  -1
M  END
>  <i_m_ct_stereo_status>  (245) 
1

>  <s_m_source_file>  (245) 
/var/tmp/pbs.5076255.sched01/tmpagfdxo7m/88tnrj_5ym.sdf

>  <i_m_source_file_index>  (245) 
14

>  <i_lp_mmshare_version>  (245) 
48012

>  <i_f3d_flags>  (245) 
0

>  <s_epik_input>  (245) 
Tz1bTitdKFtPLV0pYyhbY0hdMSluYyhuMTIpT1tDSDJdW0NASF0oW0NIMl0yKU9bQ0gyXVtDSF0zW0NIMl1bQ0gyXTM=

>  <s_epik_cmdline>  (245) 
J2VwaWtfcHl0aG9uJywgJy1waHQnLCAnMi4wJywgJy1waCcsICc3LjAnLCAnLXRuJywgJzgnLCAnLW1hJywgJzIwMCcsICctaW1hZScsICc8aW5maWxlLm1hZT4nLCAnLW9tYWUnLCAnPG91dGZpbGUubWFlPic=

>  <r_lp_tautomer_probability>  (245) 
1

>  <r_epik_Ionization_Penalty>  (245) 
1.92794e-05

>  <r_epik_Ionization_Penalty_Charging>  (245) 
1.92794e-05

>  <r_epik_Ionization_Penalty_Neutral>  (245) 
6.21218e-13

>  <r_epik_State_Penalty>  (245) 
-0

>  <r_epik_Charging_Adjusted_Penalty>  (245) 
1.92794e-05

>  <i_epik_Tot_Q>  (245) 
0

>  <i_epik_Tot_abs_Q>  (245) 
2

>  <s_lp_Force_Field>  (245) 
OPLS3e

>  <r_lp_Energy>  (245) 
24.2665

>  <b_lp_Chiralities_Consistent>  (245) 
1

>  <s_lp_Variant>  (245) 
71:0-1

>  <s_i_glide_gridfile>  (245) 
pfpi4k_grid

>  <i_i_glide_lignum>  (245) 
14

>  <i_i_glide_rotatable_bonds>  (245) 
4

>  <r_i_docking_score>  (245) 
-2.55

>  <r_i_glide_ligand_efficiency>  (245) 
-0.15

>  <r_i_glide_ligand_efficiency_sa>  (245) 
-0.385693

>  <r_i_glide_ligand_efficiency_ln>  (245) 
-0.665239

>  <r_i_glide_gscore>  (245) 
-2.55

>  <r_i_glide_lipo>  (245) 
-0.0408333

>  <r_i_glide_hbond>  (245) 
0

>  <r_i_glide_metal>  (245) 
-0

>  <r_i_glide_rewards>  (245) 
-1.79158

>  <r_i_glide_evdw>  (245) 
-21.5809

>  <r_i_glide_ecoul>  (245) 
-2.86821

>  <r_i_glide_erotb>  (245) 
0.905699

>  <r_i_glide_esite>  (245) 
-0.114013

>  <r_i_glide_emodel>  (245) 
-28.0427

>  <r_i_glide_energy>  (245) 
-24.4491

>  <r_i_glide_einternal>  (245) 
1.17929

>  <r_i_glide_intrahb_reward>  (245) 
-0

>  <i_i_glide_confnum>  (245) 
1

>  <i_i_glide_posenum>  (245) 
2

>  <r_i_glide_eff_state_penalty>  (245) 
0

>  <ligand_id>  (245) 
71

>  <original_smiles>  (245) 
O=[N+]([O-])c1cn2c(n1)OCC(OCC1CC1)C2

>  <smiles>  (245) 
[H]c1c([N+](=O)[O-])nc2n1C([H])([H])C([H])(OC([H])([H])C1([H])C([H])([H])C1([H])[H])C([H])([H])O2

$$$$
71:0:2
     RDKit          3D

 30 32  0  0  1  0  0  0  0  0999 V2000
    5.4105   -0.3672    2.7921 O   0  0  0  0  0  0  0  0  0  0  0  0
    4.5025   -0.2653    1.9676 N   0  0  0  0  0  0  0  0  0  0  0  0
    4.5862   -0.6221    0.7919 O   0  0  0  0  0  0  0  0  0  0  0  0
    3.2690    0.3170    2.4256 C   0  0  0  0  0  0  0  0  0  0  0  0
    3.0211    0.8179    3.6807 C   0  0  0  0  0  0  0  0  0  0  0  0
    1.7056    1.2609    3.6460 N   0  0  0  0  0  0  0  0  0  0  0  0
    1.2356    0.9991    2.4261 C   0  0  0  0  0  0  0  0  0  0  0  0
    2.1245    0.4475    1.6238 N   0  0  0  0  0  0  0  0  0  0  0  0
   -0.0345    1.3239    2.0970 O   0  0  0  0  0  0  0  0  0  0  0  0
   -0.9356    1.5818    3.1560 C   0  0  0  0  0  0  0  0  0  0  0  0
   -0.3091    2.5108    4.2187 C   0  0  1  0  0  0  0  0  0  0  0  0
   -1.2048    2.6788    5.3075 O   0  0  0  0  0  0  0  0  0  0  0  0
   -0.8372    3.7129    6.2140 C   0  0  0  0  0  0  0  0  0  0  0  0
   -1.6199    3.5761    7.4959 C   0  0  0  0  0  0  0  0  0  0  0  0
   -1.8285    2.2008    8.1040 C   0  0  0  0  0  0  0  0  0  0  0  0
   -2.9906    2.9376    7.4996 C   0  0  0  0  0  0  0  0  0  0  0  0
    0.9918    1.8650    4.7380 C   0  0  0  0  0  0  0  0  0  0  0  0
    3.6525    0.8973    4.5526 H   0  0  0  0  0  0  0  0  0  0  0  0
   -1.8439    2.0438    2.7554 H   0  0  0  0  0  0  0  0  0  0  0  0
   -1.2511    0.6311    3.6004 H   0  0  0  0  0  0  0  0  0  0  0  0
   -0.1040    3.4762    3.7479 H   0  0  0  0  0  0  0  0  0  0  0  0
    0.2183    3.6860    6.4774 H   0  0  0  0  0  0  0  0  0  0  0  0
   -1.0254    4.6873    5.7652 H   0  0  0  0  0  0  0  0  0  0  0  0
   -1.4552    4.3820    8.2076 H   0  0  0  0  0  0  0  0  0  0  0  0
   -1.4260    1.3481    7.5606 H   0  0  0  0  0  0  0  0  0  0  0  0
   -1.7985    2.1190    9.1882 H   0  0  0  0  0  0  0  0  0  0  0  0
   -3.7338    3.3471    8.1794 H   0  0  0  0  0  0  0  0  0  0  0  0
   -3.3812    2.5829    6.5468 H   0  0  0  0  0  0  0  0  0  0  0  0
    0.7627    1.0730    5.4538 H   0  0  0  0  0  0  0  0  0  0  0  0
    1.6401    2.5973    5.2175 H   0  0  0  0  0  0  0  0  0  0  0  0
  1  2  2  0
  2  3  1  0
  2  4  1  0
  4  8  1  0
  4  5  2  0
  5  6  1  0
  5 18  1  0
  6 17  1  0
  6  7  1  0
  7  8  2  0
  7  9  1  0
  9 10  1  0
 10 11  1  0
 10 19  1  0
 10 20  1  0
 11 12  1  0
 11 17  1  0
 11 21  1  6
 12 13  1  0
 13 14  1  0
 13 22  1  0
 13 23  1  0
 14 16  1  0
 14 15  1  0
 14 24  1  0
 15 16  1  0
 15 25  1  0
 15 26  1  0
 16 27  1  0
 16 28  1  0
 17 29  1  0
 17 30  1  0
M  CHG  2   2   1   3  -1
M  END
>  <i_m_ct_stereo_status>  (246) 
1

>  <s_m_source_file>  (246) 
/var/tmp/pbs.5076255.sched01/tmpagfdxo7m/88tnrj_5ym.sdf

>  <i_m_source_file_index>  (246) 
14

>  <i_lp_mmshare_version>  (246) 
48012

>  <i_f3d_flags>  (246) 
0

>  <s_epik_input>  (246) 
Tz1bTitdKFtPLV0pYyhbY0hdMSluYyhuMTIpT1tDSDJdW0NASF0oW0NIMl0yKU9bQ0gyXVtDSF0zW0NIMl1bQ0gyXTM=

>  <s_epik_cmdline>  (246) 
J2VwaWtfcHl0aG9uJywgJy1waHQnLCAnMi4wJywgJy1waCcsICc3LjAnLCAnLXRuJywgJzgnLCAnLW1hJywgJzIwMCcsICctaW1hZScsICc8aW5maWxlLm1hZT4nLCAnLW9tYWUnLCAnPG91dGZpbGUubWFlPic=

>  <r_lp_tautomer_probability>  (246) 
1

>  <r_epik_Ionization_Penalty>  (246) 
1.92794e-05

>  <r_epik_Ionization_Penalty_Charging>  (246) 
1.92794e-05

>  <r_epik_Ionization_Penalty_Neutral>  (246) 
6.21218e-13

>  <r_epik_State_Penalty>  (246) 
-0

>  <r_epik_Charging_Adjusted_Penalty>  (246) 
1.92794e-05

>  <i_epik_Tot_Q>  (246) 
0

>  <i_epik_Tot_abs_Q>  (246) 
2

>  <s_lp_Force_Field>  (246) 
OPLS3e

>  <r_lp_Energy>  (246) 
24.2665

>  <b_lp_Chiralities_Consistent>  (246) 
1

>  <s_lp_Variant>  (246) 
71:0-1

>  <s_i_glide_gridfile>  (246) 
pfpi4k_grid

>  <i_i_glide_lignum>  (246) 
14

>  <i_i_glide_rotatable_bonds>  (246) 
4

>  <r_i_docking_score>  (246) 
-2.26272

>  <r_i_glide_ligand_efficiency>  (246) 
-0.133101

>  <r_i_glide_ligand_efficiency_sa>  (246) 
-0.34224

>  <r_i_glide_ligand_efficiency_ln>  (246) 
-0.590292

>  <r_i_glide_gscore>  (246) 
-2.26272

>  <r_i_glide_lipo>  (246) 
-0.245679

>  <r_i_glide_hbond>  (246) 
0

>  <r_i_glide_metal>  (246) 
-0

>  <r_i_glide_rewards>  (246) 
-1.91274

>  <r_i_glide_evdw>  (246) 
-20.8154

>  <r_i_glide_ecoul>  (246) 
0.497309

>  <r_i_glide_erotb>  (246) 
0.905699

>  <r_i_glide_esite>  (246) 
-0.0438186

>  <r_i_glide_emodel>  (246) 
-23.6638

>  <r_i_glide_energy>  (246) 
-20.3181

>  <r_i_glide_einternal>  (246) 
0.453648

>  <r_i_glide_intrahb_reward>  (246) 
-0

>  <i_i_glide_confnum>  (246) 
1

>  <i_i_glide_posenum>  (246) 
31

>  <r_i_glide_eff_state_penalty>  (246) 
0

>  <ligand_id>  (246) 
71

>  <original_smiles>  (246) 
O=[N+]([O-])c1cn2c(n1)OCC(OCC1CC1)C2

>  <smiles>  (246) 
[H]c1c([N+](=O)[O-])nc2n1C([H])([H])C([H])(OC([H])([H])C1([H])C([H])([H])C1([H])[H])C([H])([H])O2

$$$$
72:0:0
     RDKit          3D

 22 23  0  0  1  0  0  0  0  0999 V2000
    4.0429   -7.4276    1.2348 C   0  0  0  0  0  0  0  0  0  0  0  0
    2.6412   -7.1093    1.4307 N   0  0  0  0  0  0  0  0  0  0  0  0
    1.8715   -7.9027    2.2180 N   0  0  0  0  0  0  0  0  0  0  0  0
    0.6720   -7.3907    2.2074 N   0  0  0  0  0  0  0  0  0  0  0  0
    0.6105   -6.2542    1.4221 N   0  0  0  0  0  0  0  0  0  0  0  0
    1.8507   -6.1295    0.9679 C   0  0  0  0  0  0  0  0  0  0  0  0
    2.3118   -5.0951    0.1077 C   0  0  0  0  0  0  0  0  0  0  0  0
    2.6774   -4.1812   -0.6187 C   0  0  0  0  0  0  0  0  0  0  0  0
    3.0982   -3.0954   -1.5019 C   0  0  0  0  0  0  0  0  0  0  0  0
    2.6226   -3.0565   -2.8323 C   0  0  0  0  0  0  0  0  0  0  0  0
    3.0154   -2.0237   -3.7078 C   0  0  0  0  0  0  0  0  0  0  0  0
    3.8872   -1.0119   -3.2604 C   0  0  0  0  0  0  0  0  0  0  0  0
    4.3682   -1.0480   -1.9388 C   0  0  0  0  0  0  0  0  0  0  0  0
    3.9795   -2.0777   -1.0572 C   0  0  0  0  0  0  0  0  0  0  0  0
    4.6055   -2.0554    0.5569 Cl  0  0  0  0  0  0  0  0  0  0  0  0
    4.5137   -6.7022    0.5714 H   0  0  0  0  0  0  0  0  0  0  0  0
    4.1362   -8.4213    0.7951 H   0  0  0  0  0  0  0  0  0  0  0  0
    4.5578   -7.4164    2.1956 H   0  0  0  0  0  0  0  0  0  0  0  0
    1.9573   -3.8282   -3.1959 H   0  0  0  0  0  0  0  0  0  0  0  0
    2.6364   -1.9969   -4.7184 H   0  0  0  0  0  0  0  0  0  0  0  0
    4.1737   -0.2079   -3.9255 H   0  0  0  0  0  0  0  0  0  0  0  0
    5.0229   -0.2608   -1.5935 H   0  0  0  0  0  0  0  0  0  0  0  0
  1  2  1  0
  1 16  1  0
  1 17  1  0
  1 18  1  0
  2  6  1  0
  2  3  1  0
  3  4  2  0
  4  5  1  0
  5  6  2  0
  6  7  1  0
  7  8  3  0
  8  9  1  0
  9 14  1  0
  9 10  2  0
 10 11  1  0
 10 19  1  0
 11 12  2  0
 11 20  1  0
 12 13  1  0
 12 21  1  0
 13 14  2  0
 13 22  1  0
 14 15  1  0
M  END
>  <i_m_ct_stereo_status>  (247) 
1

>  <s_m_source_file>  (247) 
/var/tmp/pbs.5076255.sched01/tmpagfdxo7m/88tnrj_5ym.sdf

>  <i_m_source_file_index>  (247) 
15

>  <i_lp_mmshare_version>  (247) 
48012

>  <i_f3d_flags>  (247) 
0

>  <s_epik_input>  (247) 
W0NIM11uMW5ubmMxQyNDYzJbY0hdW2NIXVtjSF1bY0hdYzJDbA==

>  <s_epik_cmdline>  (247) 
J2VwaWtfcHl0aG9uJywgJy1waHQnLCAnMi4wJywgJy1waCcsICc3LjAnLCAnLXRuJywgJzgnLCAnLW1hJywgJzIwMCcsICctaW1hZScsICc8aW5maWxlLm1hZT4nLCAnLW9tYWUnLCAnPG91dGZpbGUubWFlPic=

>  <r_lp_tautomer_probability>  (247) 
1

>  <r_epik_Ionization_Penalty>  (247) 
6.65898e-11

>  <r_epik_Ionization_Penalty_Charging>  (247) 
0

>  <r_epik_Ionization_Penalty_Neutral>  (247) 
6.65898e-11

>  <r_epik_State_Penalty>  (247) 
-0

>  <r_epik_Charging_Adjusted_Penalty>  (247) 
0

>  <i_epik_Tot_Q>  (247) 
0

>  <i_epik_Tot_abs_Q>  (247) 
0

>  <s_lp_Force_Field>  (247) 
OPLS3e

>  <r_lp_Energy>  (247) 
15.7599

>  <b_lp_Chiralities_Consistent>  (247) 
1

>  <s_lp_Variant>  (247) 
72:0-1

>  <s_i_glide_gridfile>  (247) 
pfpi4k_grid

>  <i_i_glide_lignum>  (247) 
15

>  <i_i_glide_rotatable_bonds>  (247) 
2

>  <r_i_docking_score>  (247) 
-3.48348

>  <r_i_glide_ligand_efficiency>  (247) 
-0.232232

>  <r_i_glide_ligand_efficiency_sa>  (247) 
-0.572733

>  <r_i_glide_ligand_efficiency_ln>  (247) 
-0.939437

>  <r_i_glide_gscore>  (247) 
-3.48348

>  <r_i_glide_lipo>  (247) 
-0.516012

>  <r_i_glide_hbond>  (247) 
0

>  <r_i_glide_metal>  (247) 
-0

>  <r_i_glide_rewards>  (247) 
-1.92283

>  <r_i_glide_evdw>  (247) 
-22.3372

>  <r_i_glide_ecoul>  (247) 
-2.74902

>  <r_i_glide_erotb>  (247) 
0.70333

>  <r_i_glide_esite>  (247) 
-0.218759

>  <r_i_glide_emodel>  (247) 
-30.3627

>  <r_i_glide_energy>  (247) 
-25.0862

>  <r_i_glide_einternal>  (247) 
0.773045

>  <r_i_glide_intrahb_reward>  (247) 
-0

>  <i_i_glide_confnum>  (247) 
1

>  <i_i_glide_posenum>  (247) 
1

>  <r_i_glide_eff_state_penalty>  (247) 
0

>  <ligand_id>  (247) 
72

>  <original_smiles>  (247) 
Cn1nnnc1C#Cc1ccccc1Cl

>  <smiles>  (247) 
[H]c1c([H])c([H])c(C#Cc2nnnn2C([H])([H])[H])c(Cl)c1[H]

$$$$
72:0:1
     RDKit          3D

 22 23  0  0  1  0  0  0  0  0999 V2000
    1.4676   -2.6751    3.3183 C   0  0  0  0  0  0  0  0  0  0  0  0
    0.6294   -2.6126    4.5041 N   0  0  0  0  0  0  0  0  0  0  0  0
    0.2578   -1.4101    5.0079 N   0  0  0  0  0  0  0  0  0  0  0  0
   -0.4887   -1.6510    6.0483 N   0  0  0  0  0  0  0  0  0  0  0  0
   -0.6331   -3.0095    6.2616 N   0  0  0  0  0  0  0  0  0  0  0  0
    0.0788   -3.5570    5.2824 C   0  0  0  0  0  0  0  0  0  0  0  0
    0.2222   -4.9505    5.0258 C   0  0  0  0  0  0  0  0  0  0  0  0
    0.3353   -6.1456    4.7909 C   0  0  0  0  0  0  0  0  0  0  0  0
    0.4849   -7.5705    4.5020 C   0  0  0  0  0  0  0  0  0  0  0  0
    0.8592   -8.4524    5.5417 C   0  0  0  0  0  0  0  0  0  0  0  0
    1.0174   -9.8313    5.2883 C   0  0  0  0  0  0  0  0  0  0  0  0
    0.8039  -10.3392    3.9946 C   0  0  0  0  0  0  0  0  0  0  0  0
    0.4296   -9.4674    2.9560 C   0  0  0  0  0  0  0  0  0  0  0  0
    0.2692   -8.0856    3.1980 C   0  0  0  0  0  0  0  0  0  0  0  0
   -0.1841   -7.0539    1.8823 Cl  0  0  0  0  0  0  0  0  0  0  0  0
    1.6673   -3.7074    3.0286 H   0  0  0  0  0  0  0  0  0  0  0  0
    2.4164   -2.1757    3.5188 H   0  0  0  0  0  0  0  0  0  0  0  0
    0.9743   -2.1651    2.4888 H   0  0  0  0  0  0  0  0  0  0  0  0
    1.0319   -8.0809    6.5420 H   0  0  0  0  0  0  0  0  0  0  0  0
    1.2996  -10.5079    6.0833 H   0  0  0  0  0  0  0  0  0  0  0  0
    0.9194  -11.3981    3.8032 H   0  0  0  0  0  0  0  0  0  0  0  0
    0.2656   -9.8701    1.9693 H   0  0  0  0  0  0  0  0  0  0  0  0
  1  2  1  0
  1 16  1  0
  1 17  1  0
  1 18  1  0
  2  6  1  0
  2  3  1  0
  3  4  2  0
  4  5  1  0
  5  6  2  0
  6  7  1  0
  7  8  3  0
  8  9  1  0
  9 14  1  0
  9 10  2  0
 10 11  1  0
 10 19  1  0
 11 12  2  0
 11 20  1  0
 12 13  1  0
 12 21  1  0
 13 14  2  0
 13 22  1  0
 14 15  1  0
M  END
>  <i_m_ct_stereo_status>  (248) 
1

>  <s_m_source_file>  (248) 
/var/tmp/pbs.5076255.sched01/tmpagfdxo7m/88tnrj_5ym.sdf

>  <i_m_source_file_index>  (248) 
15

>  <i_lp_mmshare_version>  (248) 
48012

>  <i_f3d_flags>  (248) 
0

>  <s_epik_input>  (248) 
W0NIM11uMW5ubmMxQyNDYzJbY0hdW2NIXVtjSF1bY0hdYzJDbA==

>  <s_epik_cmdline>  (248) 
J2VwaWtfcHl0aG9uJywgJy1waHQnLCAnMi4wJywgJy1waCcsICc3LjAnLCAnLXRuJywgJzgnLCAnLW1hJywgJzIwMCcsICctaW1hZScsICc8aW5maWxlLm1hZT4nLCAnLW9tYWUnLCAnPG91dGZpbGUubWFlPic=

>  <r_lp_tautomer_probability>  (248) 
1

>  <r_epik_Ionization_Penalty>  (248) 
6.65898e-11

>  <r_epik_Ionization_Penalty_Charging>  (248) 
0

>  <r_epik_Ionization_Penalty_Neutral>  (248) 
6.65898e-11

>  <r_epik_State_Penalty>  (248) 
-0

>  <r_epik_Charging_Adjusted_Penalty>  (248) 
0

>  <i_epik_Tot_Q>  (248) 
0

>  <i_epik_Tot_abs_Q>  (248) 
0

>  <s_lp_Force_Field>  (248) 
OPLS3e

>  <r_lp_Energy>  (248) 
15.7599

>  <b_lp_Chiralities_Consistent>  (248) 
1

>  <s_lp_Variant>  (248) 
72:0-1

>  <s_i_glide_gridfile>  (248) 
pfpi4k_grid

>  <i_i_glide_lignum>  (248) 
15

>  <i_i_glide_rotatable_bonds>  (248) 
2

>  <r_i_docking_score>  (248) 
-2.97799

>  <r_i_glide_ligand_efficiency>  (248) 
-0.198533

>  <r_i_glide_ligand_efficiency_sa>  (248) 
-0.489624

>  <r_i_glide_ligand_efficiency_ln>  (248) 
-0.803116

>  <r_i_glide_gscore>  (248) 
-2.97799

>  <r_i_glide_lipo>  (248) 
-0.0406503

>  <r_i_glide_hbond>  (248) 
0

>  <r_i_glide_metal>  (248) 
-0

>  <r_i_glide_rewards>  (248) 
-1.96167

>  <r_i_glide_evdw>  (248) 
-17.6493

>  <r_i_glide_ecoul>  (248) 
-4.71593

>  <r_i_glide_erotb>  (248) 
0.70333

>  <r_i_glide_esite>  (248) 
-0.0891552

>  <r_i_glide_emodel>  (248) 
-26.8274

>  <r_i_glide_energy>  (248) 
-22.3652

>  <r_i_glide_einternal>  (248) 
0.771239

>  <r_i_glide_intrahb_reward>  (248) 
-0

>  <i_i_glide_confnum>  (248) 
1

>  <i_i_glide_posenum>  (248) 
40

>  <r_i_glide_eff_state_penalty>  (248) 
0

>  <ligand_id>  (248) 
72

>  <original_smiles>  (248) 
Cn1nnnc1C#Cc1ccccc1Cl

>  <smiles>  (248) 
[H]c1c([H])c([H])c(C#Cc2nnnn2C([H])([H])[H])c(Cl)c1[H]

$$$$
72:0:2
     RDKit          3D

 22 23  0  0  1  0  0  0  0  0999 V2000
    1.2181   -1.6065    3.3155 C   0  0  0  0  0  0  0  0  0  0  0  0
    0.6002   -1.7911    4.6175 N   0  0  0  0  0  0  0  0  0  0  0  0
    0.3707   -0.7211    5.4157 N   0  0  0  0  0  0  0  0  0  0  0  0
   -0.1916   -1.1711    6.4999 N   0  0  0  0  0  0  0  0  0  0  0  0
   -0.3608   -2.5429    6.4498 N   0  0  0  0  0  0  0  0  0  0  0  0
    0.1568   -2.8765    5.2736 C   0  0  0  0  0  0  0  0  0  0  0  0
    0.2341   -4.1886    4.7318 C   0  0  0  0  0  0  0  0  0  0  0  0
    0.2977   -5.3106    4.2504 C   0  0  0  0  0  0  0  0  0  0  0  0
    0.3676   -6.6385    3.6495 C   0  0  0  0  0  0  0  0  0  0  0  0
   -0.6096   -7.6016    3.9859 C   0  0  0  0  0  0  0  0  0  0  0  0
   -0.5623   -8.8884    3.4142 C   0  0  0  0  0  0  0  0  0  0  0  0
    0.4620   -9.2250    2.5124 C   0  0  0  0  0  0  0  0  0  0  0  0
    1.4317   -8.2671    2.1638 C   0  0  0  0  0  0  0  0  0  0  0  0
    1.3898   -6.9737    2.7247 C   0  0  0  0  0  0  0  0  0  0  0  0
    2.5903   -5.8211    2.2501 Cl  0  0  0  0  0  0  0  0  0  0  0  0
    1.3289   -2.5529    2.7836 H   0  0  0  0  0  0  0  0  0  0  0  0
    2.2046   -1.1547    3.4421 H   0  0  0  0  0  0  0  0  0  0  0  0
    0.6048   -0.9339    2.7112 H   0  0  0  0  0  0  0  0  0  0  0  0
   -1.3970   -7.3676    4.6893 H   0  0  0  0  0  0  0  0  0  0  0  0
   -1.3029   -9.6278    3.6807 H   0  0  0  0  0  0  0  0  0  0  0  0
    0.4997  -10.2192    2.0854 H   0  0  0  0  0  0  0  0  0  0  0  0
    2.2091   -8.5304    1.4607 H   0  0  0  0  0  0  0  0  0  0  0  0
  1  2  1  0
  1 16  1  0
  1 17  1  0
  1 18  1  0
  2  6  1  0
  2  3  1  0
  3  4  2  0
  4  5  1  0
  5  6  2  0
  6  7  1  0
  7  8  3  0
  8  9  1  0
  9 14  1  0
  9 10  2  0
 10 11  1  0
 10 19  1  0
 11 12  2  0
 11 20  1  0
 12 13  1  0
 12 21  1  0
 13 14  2  0
 13 22  1  0
 14 15  1  0
M  END
>  <i_m_ct_stereo_status>  (249) 
1

>  <s_m_source_file>  (249) 
/var/tmp/pbs.5076255.sched01/tmpagfdxo7m/88tnrj_5ym.sdf

>  <i_m_source_file_index>  (249) 
15

>  <i_lp_mmshare_version>  (249) 
48012

>  <i_f3d_flags>  (249) 
0

>  <s_epik_input>  (249) 
W0NIM11uMW5ubmMxQyNDYzJbY0hdW2NIXVtjSF1bY0hdYzJDbA==

>  <s_epik_cmdline>  (249) 
J2VwaWtfcHl0aG9uJywgJy1waHQnLCAnMi4wJywgJy1waCcsICc3LjAnLCAnLXRuJywgJzgnLCAnLW1hJywgJzIwMCcsICctaW1hZScsICc8aW5maWxlLm1hZT4nLCAnLW9tYWUnLCAnPG91dGZpbGUubWFlPic=

>  <r_lp_tautomer_probability>  (249) 
1

>  <r_epik_Ionization_Penalty>  (249) 
6.65898e-11

>  <r_epik_Ionization_Penalty_Charging>  (249) 
0

>  <r_epik_Ionization_Penalty_Neutral>  (249) 
6.65898e-11

>  <r_epik_State_Penalty>  (249) 
-0

>  <r_epik_Charging_Adjusted_Penalty>  (249) 
0

>  <i_epik_Tot_Q>  (249) 
0

>  <i_epik_Tot_abs_Q>  (249) 
0

>  <s_lp_Force_Field>  (249) 
OPLS3e

>  <r_lp_Energy>  (249) 
15.7599

>  <b_lp_Chiralities_Consistent>  (249) 
1

>  <s_lp_Variant>  (249) 
72:0-1

>  <s_i_glide_gridfile>  (249) 
pfpi4k_grid

>  <i_i_glide_lignum>  (249) 
15

>  <i_i_glide_rotatable_bonds>  (249) 
2

>  <r_i_docking_score>  (249) 
-2.59338

>  <r_i_glide_ligand_efficiency>  (249) 
-0.172892

>  <r_i_glide_ligand_efficiency_sa>  (249) 
-0.426389

>  <r_i_glide_ligand_efficiency_ln>  (249) 
-0.699393

>  <r_i_glide_gscore>  (249) 
-2.59338

>  <r_i_glide_lipo>  (249) 
0

>  <r_i_glide_hbond>  (249) 
0

>  <r_i_glide_metal>  (249) 
-0

>  <r_i_glide_rewards>  (249) 
-1.92117

>  <r_i_glide_evdw>  (249) 
-15.4291

>  <r_i_glide_ecoul>  (249) 
-3.39286

>  <r_i_glide_erotb>  (249) 
0.70333

>  <r_i_glide_esite>  (249) 
-0.0951609

>  <r_i_glide_emodel>  (249) 
-22.6438

>  <r_i_glide_energy>  (249) 
-18.822

>  <r_i_glide_einternal>  (249) 
0.798444

>  <r_i_glide_intrahb_reward>  (249) 
-0

>  <i_i_glide_confnum>  (249) 
2

>  <i_i_glide_posenum>  (249) 
8

>  <r_i_glide_eff_state_penalty>  (249) 
0

>  <ligand_id>  (249) 
72

>  <original_smiles>  (249) 
Cn1nnnc1C#Cc1ccccc1Cl

>  <smiles>  (249) 
[H]c1c([H])c([H])c(C#Cc2nnnn2C([H])([H])[H])c(Cl)c1[H]

$$$$
73:0:0
     RDKit          3D

 48 52  0  0  1  0  0  0  0  0999 V2000
    5.1595   -3.5007   -3.3297 C   0  0  0  0  0  0  0  0  0  0  0  0
    4.9053   -3.1922   -1.9848 C   0  0  0  0  0  0  0  0  0  0  0  0
    3.5765   -2.9290   -1.5995 C   0  0  0  0  0  0  0  0  0  0  0  0
    3.2354   -2.6338   -0.1454 C   0  0  0  0  0  0  0  0  0  0  0  0
    3.5732   -1.2437    0.2588 N   0  0  2  0  0  0  0  0  0  0  0  0
    5.0126   -1.0337    0.5856 C   0  0  0  0  0  0  0  0  0  0  0  0
    5.0718   -0.5714    2.0432 C   0  0  2  0  0  0  0  0  0  0  0  0
    5.1873   -1.7523    3.0288 C   0  0  0  0  0  0  0  0  0  0  0  0
    5.0586   -1.2772    4.4817 C   0  0  0  0  0  0  0  0  0  0  0  0
    3.7616   -0.5062    4.7349 C   0  0  2  0  0  0  0  0  0  0  0  0
    2.4967   -1.3508    4.9027 C   0  0  0  0  0  0  0  0  0  0  0  0
    1.4203   -0.5203    4.3879 N   0  0  0  0  0  0  0  0  0  0  0  0
    0.0886   -0.6770    4.8232 C   0  0  0  0  0  0  0  0  0  0  0  0
   -0.4674   -1.9143    5.2816 C   0  0  0  0  0  0  0  0  0  0  0  0
   -1.7176   -1.8488    5.6777 N   0  0  0  0  0  0  0  0  0  0  0  0
   -2.1799   -0.2665    5.3827 S   0  0  0  0  0  0  0  0  0  0  0  0
   -0.7382    0.3388    4.8128 N   0  0  0  0  0  0  0  0  0  0  0  0
    1.9209    0.7668    3.9394 C   0  0  0  0  0  0  0  0  0  0  0  0
    3.4081    0.5460    3.6755 C   0  0  2  0  0  0  0  0  0  0  0  0
    3.7397    0.1541    2.2091 C   0  0  2  0  0  0  0  0  0  0  0  0
    2.7825   -0.7416    1.4166 C   0  0  0  0  0  0  0  0  0  0  0  0
    2.5683   -3.0033   -2.5861 C   0  0  0  0  0  0  0  0  0  0  0  0
    2.9339   -3.3344   -3.9043 C   0  0  0  0  0  0  0  0  0  0  0  0
    4.2073   -3.5662   -4.2803 N   0  0  0  0  0  0  0  0  0  0  0  0
    6.1620   -3.7164   -3.6570 H   0  0  0  0  0  0  0  0  0  0  0  0
    5.7287   -3.2174   -1.2878 H   0  0  0  0  0  0  0  0  0  0  0  0
    2.1617   -2.7757   -0.0265 H   0  0  0  0  0  0  0  0  0  0  0  0
    3.7153   -3.3581    0.5125 H   0  0  0  0  0  0  0  0  0  0  0  0
    5.6308   -1.9195    0.4505 H   0  0  0  0  0  0  0  0  0  0  0  0
    5.4052   -0.2553   -0.0778 H   0  0  0  0  0  0  0  0  0  0  0  0
    5.9096    0.1093    2.1931 H   0  0  0  0  0  0  0  0  0  0  0  0
    4.4254   -2.5061    2.8271 H   0  0  0  0  0  0  0  0  0  0  0  0
    6.1503   -2.2413    2.8851 H   0  0  0  0  0  0  0  0  0  0  0  0
    5.1259   -2.1274    5.1581 H   0  0  0  0  0  0  0  0  0  0  0  0
    5.9056   -0.6327    4.7195 H   0  0  0  0  0  0  0  0  0  0  0  0
    3.8847    0.0298    5.6753 H   0  0  0  0  0  0  0  0  0  0  0  0
    2.5612   -2.2794    4.3381 H   0  0  0  0  0  0  0  0  0  0  0  0
    2.3362   -1.6016    5.9511 H   0  0  0  0  0  0  0  0  0  0  0  0
    0.0385   -2.8707    5.3353 H   0  0  0  0  0  0  0  0  0  0  0  0
    1.3860    1.1549    3.0712 H   0  0  0  0  0  0  0  0  0  0  0  0
    1.7894    1.4744    4.7575 H   0  0  0  0  0  0  0  0  0  0  0  0
    3.9537    1.4672    3.8915 H   0  0  0  0  0  0  0  0  0  0  0  0
    3.8060    1.0826    1.6393 H   0  0  0  0  0  0  0  0  0  0  0  0
    1.9004   -0.1897    1.0784 H   0  0  0  0  0  0  0  0  0  0  0  0
    2.4507   -1.5836    2.0237 H   0  0  0  0  0  0  0  0  0  0  0  0
    1.5231   -2.8563   -2.3462 H   0  0  0  0  0  0  0  0  0  0  0  0
    2.1853   -3.4384   -4.6795 H   0  0  0  0  0  0  0  0  0  0  0  0
    3.3277   -0.6597   -0.5303 H   0  0  0  0  0  0  0  0  0  0  0  0
  1 24  2  0
  1  2  1  0
  1 25  1  0
  2  3  2  0
  2 26  1  0
  3  4  1  0
  3 22  1  0
  4  5  1  0
  4 27  1  0
  4 28  1  0
  5 21  1  0
  5  6  1  0
  5 48  1  6
  6  7  1  0
  6 29  1  0
  6 30  1  0
  7 20  1  0
  7  8  1  0
  7 31  1  6
  8  9  1  0
  8 32  1  0
  8 33  1  0
  9 10  1  0
  9 34  1  0
  9 35  1  0
 10 19  1  0
 10 11  1  0
 10 36  1  1
 11 12  1  0
 11 37  1  0
 11 38  1  0
 12 13  1  0
 12 18  1  0
 13 17  2  0
 13 14  1  0
 14 15  2  0
 14 39  1  0
 15 16  1  0
 16 17  1  0
 18 19  1  0
 18 40  1  0
 18 41  1  0
 19 20  1  0
 19 42  1  1
 20 21  1  0
 20 43  1  6
 21 44  1  0
 21 45  1  0
 22 23  2  0
 22 46  1  0
 23 24  1  0
 23 47  1  0
M  CHG  1   5   1
M  END
>  <i_m_ct_stereo_status>  (250) 
1

>  <s_m_source_file>  (250) 
/var/tmp/pbs.5076255.sched01/tmpagfdxo7m/88tnrj_5ym.sdf

>  <i_m_source_file_index>  (250) 
16

>  <i_lp_mmshare_version>  (250) 
48012

>  <i_f3d_flags>  (250) 
0

>  <s_epik_input>  (250) 
W2NIXTFbY0hdbltjSF1bY0hdYzFbQ0gyXU4oW0NIMl0yKVtDSDJdW0NASF0oW0NASF0yMylbQ0BASF00W0NASF0oW0NIMl1bQ0gyXTMpW0NIMl1OKFtDSDJdNCljNVtjSF1uc241

>  <s_epik_cmdline>  (250) 
J2VwaWtfcHl0aG9uJywgJy1waHQnLCAnMi4wJywgJy1waCcsICc3LjAnLCAnLXRuJywgJzgnLCAnLW1hJywgJzIwMCcsICctaW1hZScsICc8aW5maWxlLm1hZT4nLCAnLW9tYWUnLCAnPG91dGZpbGUubWFlPic=

>  <r_lp_tautomer_probability>  (250) 
1

>  <r_epik_Ionization_Penalty>  (250) 
0.0101313

>  <r_epik_Ionization_Penalty_Charging>  (250) 
0.00990305

>  <r_epik_Ionization_Penalty_Neutral>  (250) 
0.000228296

>  <r_epik_State_Penalty>  (250) 
0.00754542

>  <r_epik_Charging_Adjusted_Penalty>  (250) 
0.0174485

>  <i_epik_Tot_Q>  (250) 
1

>  <i_epik_Tot_abs_Q>  (250) 
1

>  <s_lp_Force_Field>  (250) 
OPLS3e

>  <r_lp_Energy>  (250) 
33.2781

>  <b_lp_Chiralities_Consistent>  (250) 
1

>  <s_lp_Variant>  (250) 
73:0-1

>  <s_i_glide_gridfile>  (250) 
pfpi4k_grid

>  <i_i_glide_lignum>  (250) 
16

>  <i_i_glide_rotatable_bonds>  (250) 
3

>  <r_i_docking_score>  (250) 
-3.8831

>  <r_i_glide_ligand_efficiency>  (250) 
-0.161796

>  <r_i_glide_ligand_efficiency_sa>  (250) 
-0.4667

>  <r_i_glide_ligand_efficiency_ln>  (250) 
-0.929403

>  <r_i_glide_gscore>  (250) 
-3.8831

>  <r_i_glide_lipo>  (250) 
-0.787371

>  <r_i_glide_hbond>  (250) 
-0.101536

>  <r_i_glide_metal>  (250) 
-0

>  <r_i_glide_rewards>  (250) 
-1.07398

>  <r_i_glide_evdw>  (250) 
-26.7409

>  <r_i_glide_ecoul>  (250) 
-6.68357

>  <r_i_glide_erotb>  (250) 
0.485012

>  <r_i_glide_esite>  (250) 
-0.065637

>  <r_i_glide_emodel>  (250) 
-43.3569

>  <r_i_glide_energy>  (250) 
-33.4245

>  <r_i_glide_einternal>  (250) 
1.15317

>  <r_i_glide_intrahb_reward>  (250) 
-0

>  <i_i_glide_confnum>  (250) 
6

>  <i_i_glide_posenum>  (250) 
18

>  <r_i_glide_eff_state_penalty>  (250) 
0

>  <ligand_id>  (250) 
73

>  <original_smiles>  (250) 
c1cc(CN2CC3CCC4CN(c5cnsn5)CC4C3C2)ccn1

>  <smiles>  (250) 
[H]c1nsnc1N1C([H])([H])C2([H])C([H])([H])C([H])([H])C3([H])C([H])(C2([H])C1([H])[H])C([H])([H])[N+]([H])(C([H])([H])c1c([H])c([H])nc([H])c1[H])C3([H])[H]

$$$$
73:0:1
     RDKit          3D

 48 52  0  0  1  0  0  0  0  0999 V2000
    2.9956   -1.5636   -3.7990 C   0  0  0  0  0  0  0  0  0  0  0  0
    2.7845   -2.6448   -2.9194 C   0  0  0  0  0  0  0  0  0  0  0  0
    3.5507   -2.7079   -1.7364 C   0  0  0  0  0  0  0  0  0  0  0  0
    3.3777   -3.8754   -0.7758 C   0  0  0  0  0  0  0  0  0  0  0  0
    3.6224   -3.5534    0.6585 N   0  0  2  0  0  0  0  0  0  0  0  0
    5.0586   -3.5767    1.0569 C   0  0  0  0  0  0  0  0  0  0  0  0
    5.2098   -4.6195    2.1667 C   0  0  2  0  0  0  0  0  0  0  0  0
    5.5373   -6.0187    1.5988 C   0  0  0  0  0  0  0  0  0  0  0  0
    5.4979   -7.0832    2.6985 C   0  0  0  0  0  0  0  0  0  0  0  0
    4.1504   -7.1062    3.4389 C   0  0  2  0  0  0  0  0  0  0  0  0
    2.9921   -7.8111    2.7254 C   0  0  0  0  0  0  0  0  0  0  0  0
    1.7838   -7.1179    3.1566 N   0  0  0  0  0  0  0  0  0  0  0  0
    0.5170   -7.7412    3.1500 C   0  0  0  0  0  0  0  0  0  0  0  0
    0.2476   -9.0079    2.5448 C   0  0  0  0  0  0  0  0  0  0  0  0
   -0.9933   -9.4213    2.6515 N   0  0  0  0  0  0  0  0  0  0  0  0
   -1.7857   -8.2466    3.5284 S   0  0  0  0  0  0  0  0  0  0  0  0
   -0.5245   -7.1607    3.7109 N   0  0  0  0  0  0  0  0  0  0  0  0
    2.1128   -6.0545    4.0910 C   0  0  0  0  0  0  0  0  0  0  0  0
    3.5914   -5.7344    3.8465 C   0  0  2  0  0  0  0  0  0  0  0  0
    3.8309   -4.5825    2.8305 C   0  0  2  0  0  0  0  0  0  0  0  0
    2.8986   -4.4336    1.6162 C   0  0  0  0  0  0  0  0  0  0  0  0
    4.4959   -1.6829   -1.5027 C   0  0  0  0  0  0  0  0  0  0  0  0
    4.6097   -0.6543   -2.4450 C   0  0  0  0  0  0  0  0  0  0  0  0
    3.8929   -0.5889   -3.5805 N   0  0  0  0  0  0  0  0  0  0  0  0
    2.4171   -1.4461   -4.7022 H   0  0  0  0  0  0  0  0  0  0  0  0
    2.0429   -3.3936   -3.1704 H   0  0  0  0  0  0  0  0  0  0  0  0
    2.3554   -4.2478   -0.8889 H   0  0  0  0  0  0  0  0  0  0  0  0
    4.0360   -4.6875   -1.0909 H   0  0  0  0  0  0  0  0  0  0  0  0
    5.7371   -3.7751    0.2259 H   0  0  0  0  0  0  0  0  0  0  0  0
    5.3140   -2.5918    1.4552 H   0  0  0  0  0  0  0  0  0  0  0  0
    5.9891   -4.3185    2.8693 H   0  0  0  0  0  0  0  0  0  0  0  0
    4.8362   -6.2901    0.8089 H   0  0  0  0  0  0  0  0  0  0  0  0
    6.5253   -6.0065    1.1387 H   0  0  0  0  0  0  0  0  0  0  0  0
    5.7030   -8.0643    2.2722 H   0  0  0  0  0  0  0  0  0  0  0  0
    6.3040   -6.8872    3.4077 H   0  0  0  0  0  0  0  0  0  0  0  0
    4.3066   -7.6633    4.3616 H   0  0  0  0  0  0  0  0  0  0  0  0
    3.0976   -7.7476    1.6430 H   0  0  0  0  0  0  0  0  0  0  0  0
    2.9666   -8.8663    2.9973 H   0  0  0  0  0  0  0  0  0  0  0  0
    0.9508   -9.6377    2.0166 H   0  0  0  0  0  0  0  0  0  0  0  0
    1.4675   -5.1803    3.9957 H   0  0  0  0  0  0  0  0  0  0  0  0
    1.9838   -6.4589    5.0949 H   0  0  0  0  0  0  0  0  0  0  0  0
    4.0582   -5.4286    4.7861 H   0  0  0  0  0  0  0  0  0  0  0  0
    3.7577   -3.6453    3.3876 H   0  0  0  0  0  0  0  0  0  0  0  0
    1.9329   -4.0027    1.8880 H   0  0  0  0  0  0  0  0  0  0  0  0
    2.7193   -5.4046    1.1516 H   0  0  0  0  0  0  0  0  0  0  0  0
    5.1407   -1.6509   -0.6422 H   0  0  0  0  0  0  0  0  0  0  0  0
    5.3217    0.1406   -2.2977 H   0  0  0  0  0  0  0  0  0  0  0  0
    3.2840   -2.6066    0.7978 H   0  0  0  0  0  0  0  0  0  0  0  0
  1 24  2  0
  1  2  1  0
  1 25  1  0
  2  3  2  0
  2 26  1  0
  3  4  1  0
  3 22  1  0
  4  5  1  0
  4 27  1  0
  4 28  1  0
  5 21  1  0
  5  6  1  0
  5 48  1  6
  6  7  1  0
  6 29  1  0
  6 30  1  0
  7 20  1  0
  7  8  1  0
  7 31  1  1
  8  9  1  0
  8 32  1  0
  8 33  1  0
  9 10  1  0
  9 34  1  0
  9 35  1  0
 10 19  1  0
 10 11  1  0
 10 36  1  1
 11 12  1  0
 11 37  1  0
 11 38  1  0
 12 13  1  0
 12 18  1  0
 13 17  2  0
 13 14  1  0
 14 15  2  0
 14 39  1  0
 15 16  1  0
 16 17  1  0
 18 19  1  0
 18 40  1  0
 18 41  1  0
 19 20  1  0
 19 42  1  1
 20 21  1  0
 20 43  1  1
 21 44  1  0
 21 45  1  0
 22 23  2  0
 22 46  1  0
 23 24  1  0
 23 47  1  0
M  CHG  1   5   1
M  END
>  <i_m_ct_stereo_status>  (251) 
1

>  <s_m_source_file>  (251) 
/var/tmp/pbs.5076255.sched01/tmpagfdxo7m/88tnrj_5ym.sdf

>  <i_m_source_file_index>  (251) 
16

>  <i_lp_mmshare_version>  (251) 
48012

>  <i_f3d_flags>  (251) 
0

>  <s_epik_input>  (251) 
W2NIXTFbY0hdbltjSF1bY0hdYzFbQ0gyXU4oW0NIMl0yKVtDSDJdW0NASF0oW0NASF0yMylbQ0BASF00W0NASF0oW0NIMl1bQ0gyXTMpW0NIMl1OKFtDSDJdNCljNVtjSF1uc241

>  <s_epik_cmdline>  (251) 
J2VwaWtfcHl0aG9uJywgJy1waHQnLCAnMi4wJywgJy1waCcsICc3LjAnLCAnLXRuJywgJzgnLCAnLW1hJywgJzIwMCcsICctaW1hZScsICc8aW5maWxlLm1hZT4nLCAnLW9tYWUnLCAnPG91dGZpbGUubWFlPic=

>  <r_lp_tautomer_probability>  (251) 
1

>  <r_epik_Ionization_Penalty>  (251) 
0.0101313

>  <r_epik_Ionization_Penalty_Charging>  (251) 
0.00990305

>  <r_epik_Ionization_Penalty_Neutral>  (251) 
0.000228296

>  <r_epik_State_Penalty>  (251) 
0.00754542

>  <r_epik_Charging_Adjusted_Penalty>  (251) 
0.0174485

>  <i_epik_Tot_Q>  (251) 
1

>  <i_epik_Tot_abs_Q>  (251) 
1

>  <s_lp_Force_Field>  (251) 
OPLS3e

>  <r_lp_Energy>  (251) 
33.2781

>  <b_lp_Chiralities_Consistent>  (251) 
1

>  <s_lp_Variant>  (251) 
73:0-1

>  <s_i_glide_gridfile>  (251) 
pfpi4k_grid

>  <i_i_glide_lignum>  (251) 
16

>  <i_i_glide_rotatable_bonds>  (251) 
3

>  <r_i_docking_score>  (251) 
-3.18263

>  <r_i_glide_ligand_efficiency>  (251) 
-0.132609

>  <r_i_glide_ligand_efficiency_sa>  (251) 
-0.382512

>  <r_i_glide_ligand_efficiency_ln>  (251) 
-0.761749

>  <r_i_glide_gscore>  (251) 
-3.18263

>  <r_i_glide_lipo>  (251) 
-0.281121

>  <r_i_glide_hbond>  (251) 
0

>  <r_i_glide_metal>  (251) 
-0

>  <r_i_glide_rewards>  (251) 
-1.07398

>  <r_i_glide_evdw>  (251) 
-31.2847

>  <r_i_glide_ecoul>  (251) 
-4.9111

>  <r_i_glide_erotb>  (251) 
0.485012

>  <r_i_glide_esite>  (251) 
-0.0116365

>  <r_i_glide_emodel>  (251) 
-43.273

>  <r_i_glide_energy>  (251) 
-36.1958

>  <r_i_glide_einternal>  (251) 
3.06657

>  <r_i_glide_intrahb_reward>  (251) 
-0

>  <i_i_glide_confnum>  (251) 
3

>  <i_i_glide_posenum>  (251) 
31

>  <r_i_glide_eff_state_penalty>  (251) 
0

>  <ligand_id>  (251) 
73

>  <original_smiles>  (251) 
c1cc(CN2CC3CCC4CN(c5cnsn5)CC4C3C2)ccn1

>  <smiles>  (251) 
[H]c1nsnc1N1C([H])([H])C2([H])C([H])([H])C([H])([H])C3([H])C([H])(C2([H])C1([H])[H])C([H])([H])[N+]([H])(C([H])([H])c1c([H])c([H])nc([H])c1[H])C3([H])[H]

$$$$
73:0:2
     RDKit          3D

 48 52  0  0  1  0  0  0  0  0999 V2000
   -0.4333   -7.0611    4.0411 C   0  0  0  0  0  0  0  0  0  0  0  0
    0.5167   -8.0353    4.4014 C   0  0  0  0  0  0  0  0  0  0  0  0
    0.4848   -9.2880    3.7502 C   0  0  0  0  0  0  0  0  0  0  0  0
    1.4984  -10.3724    4.0917 C   0  0  0  0  0  0  0  0  0  0  0  0
    2.5435  -10.5689    3.0478 N   0  0  2  0  0  0  0  0  0  0  0  0
    3.7007  -11.3759    3.5144 C   0  0  0  0  0  0  0  0  0  0  0  0
    4.9536  -10.5031    3.3238 C   0  0  2  0  0  0  0  0  0  0  0  0
    5.2654   -9.6511    4.5752 C   0  0  0  0  0  0  0  0  0  0  0  0
    6.3920   -8.6500    4.3019 C   0  0  0  0  0  0  0  0  0  0  0  0
    6.0916   -7.7406    3.0976 C   0  0  2  0  0  0  0  0  0  0  0  0
    5.1219   -6.5847    3.3525 C   0  0  0  0  0  0  0  0  0  0  0  0
    4.4387   -6.3526    2.0866 N   0  0  0  0  0  0  0  0  0  0  0  0
    3.8587   -5.1066    1.7750 C   0  0  0  0  0  0  0  0  0  0  0  0
    3.4852   -4.6990    0.4516 C   0  0  0  0  0  0  0  0  0  0  0  0
    3.0029   -3.4839    0.3587 N   0  0  0  0  0  0  0  0  0  0  0  0
    3.0125   -2.8753    1.9162 S   0  0  0  0  0  0  0  0  0  0  0  0
    3.6272   -4.2108    2.7107 N   0  0  0  0  0  0  0  0  0  0  0  0
    4.9166   -7.2818    1.0726 C   0  0  0  0  0  0  0  0  0  0  0  0
    5.5407   -8.4465    1.8493 C   0  0  2  0  0  0  0  0  0  0  0  0
    4.5629   -9.6237    2.1326 C   0  0  2  0  0  0  0  0  0  0  0  0
    3.0851   -9.3280    2.4291 C   0  0  0  0  0  0  0  0  0  0  0  0
   -0.5051   -9.4984    2.7701 C   0  0  0  0  0  0  0  0  0  0  0  0
   -1.4073   -8.4588    2.4844 C   0  0  0  0  0  0  0  0  0  0  0  0
   -1.3724   -7.2513    3.0898 N   0  0  0  0  0  0  0  0  0  0  0  0
   -0.4389   -6.0951    4.5225 H   0  0  0  0  0  0  0  0  0  0  0  0
    1.2476   -7.8189    5.1692 H   0  0  0  0  0  0  0  0  0  0  0  0
    1.9694  -10.1089    5.0380 H   0  0  0  0  0  0  0  0  0  0  0  0
    0.9733  -11.3130    4.2632 H   0  0  0  0  0  0  0  0  0  0  0  0
    3.6003  -11.7307    4.5414 H   0  0  0  0  0  0  0  0  0  0  0  0
    3.7725  -12.2633    2.8814 H   0  0  0  0  0  0  0  0  0  0  0  0
    5.8210  -11.1237    3.0793 H   0  0  0  0  0  0  0  0  0  0  0  0
    4.3749   -9.1116    4.9020 H   0  0  0  0  0  0  0  0  0  0  0  0
    5.5462  -10.3025    5.4027 H   0  0  0  0  0  0  0  0  0  0  0  0
    6.5675   -8.0410    5.1883 H   0  0  0  0  0  0  0  0  0  0  0  0
    7.3182   -9.1984    4.1243 H   0  0  0  0  0  0  0  0  0  0  0  0
    7.0335   -7.2780    2.8051 H   0  0  0  0  0  0  0  0  0  0  0  0
    4.3979   -6.8273    4.1300 H   0  0  0  0  0  0  0  0  0  0  0  0
    5.6665   -5.6920    3.6657 H   0  0  0  0  0  0  0  0  0  0  0  0
    3.5871   -5.2798   -0.4531 H   0  0  0  0  0  0  0  0  0  0  0  0
    4.1379   -7.6079    0.3832 H   0  0  0  0  0  0  0  0  0  0  0  0
    5.6809   -6.7646    0.4944 H   0  0  0  0  0  0  0  0  0  0  0  0
    6.3776   -8.8600    1.2825 H   0  0  0  0  0  0  0  0  0  0  0  0
    4.5806  -10.2588    1.2482 H   0  0  0  0  0  0  0  0  0  0  0  0
    2.5237   -9.0722    1.5300 H   0  0  0  0  0  0  0  0  0  0  0  0
    3.0066   -8.5007    3.1304 H   0  0  0  0  0  0  0  0  0  0  0  0
   -0.5861  -10.4382    2.2418 H   0  0  0  0  0  0  0  0  0  0  0  0
   -2.1784   -8.5962    1.7417 H   0  0  0  0  0  0  0  0  0  0  0  0
    2.1234  -11.1042    2.3055 H   0  0  0  0  0  0  0  0  0  0  0  0
  1 24  2  0
  1  2  1  0
  1 25  1  0
  2  3  2  0
  2 26  1  0
  3  4  1  0
  3 22  1  0
  4  5  1  0
  4 27  1  0
  4 28  1  0
  5 21  1  0
  5  6  1  0
  5 48  1  6
  6  7  1  0
  6 29  1  0
  6 30  1  0
  7 20  1  0
  7  8  1  0
  7 31  1  6
  8  9  1  0
  8 32  1  0
  8 33  1  0
  9 10  1  0
  9 34  1  0
  9 35  1  0
 10 19  1  0
 10 11  1  0
 10 36  1  6
 11 12  1  0
 11 37  1  0
 11 38  1  0
 12 13  1  0
 12 18  1  0
 13 17  2  0
 13 14  1  0
 14 15  2  0
 14 39  1  0
 15 16  1  0
 16 17  1  0
 18 19  1  0
 18 40  1  0
 18 41  1  0
 19 20  1  0
 19 42  1  6
 20 21  1  0
 20 43  1  6
 21 44  1  0
 21 45  1  0
 22 23  2  0
 22 46  1  0
 23 24  1  0
 23 47  1  0
M  CHG  1   5   1
M  END
>  <i_m_ct_stereo_status>  (252) 
1

>  <s_m_source_file>  (252) 
/var/tmp/pbs.5076255.sched01/tmpagfdxo7m/88tnrj_5ym.sdf

>  <i_m_source_file_index>  (252) 
16

>  <i_lp_mmshare_version>  (252) 
48012

>  <i_f3d_flags>  (252) 
0

>  <s_epik_input>  (252) 
W2NIXTFbY0hdbltjSF1bY0hdYzFbQ0gyXU4oW0NIMl0yKVtDSDJdW0NASF0oW0NASF0yMylbQ0BASF00W0NASF0oW0NIMl1bQ0gyXTMpW0NIMl1OKFtDSDJdNCljNVtjSF1uc241

>  <s_epik_cmdline>  (252) 
J2VwaWtfcHl0aG9uJywgJy1waHQnLCAnMi4wJywgJy1waCcsICc3LjAnLCAnLXRuJywgJzgnLCAnLW1hJywgJzIwMCcsICctaW1hZScsICc8aW5maWxlLm1hZT4nLCAnLW9tYWUnLCAnPG91dGZpbGUubWFlPic=

>  <r_lp_tautomer_probability>  (252) 
1

>  <r_epik_Ionization_Penalty>  (252) 
0.0101313

>  <r_epik_Ionization_Penalty_Charging>  (252) 
0.00990305

>  <r_epik_Ionization_Penalty_Neutral>  (252) 
0.000228296

>  <r_epik_State_Penalty>  (252) 
0.00754542

>  <r_epik_Charging_Adjusted_Penalty>  (252) 
0.0174485

>  <i_epik_Tot_Q>  (252) 
1

>  <i_epik_Tot_abs_Q>  (252) 
1

>  <s_lp_Force_Field>  (252) 
OPLS3e

>  <r_lp_Energy>  (252) 
33.2781

>  <b_lp_Chiralities_Consistent>  (252) 
1

>  <s_lp_Variant>  (252) 
73:0-1

>  <s_i_glide_gridfile>  (252) 
pfpi4k_grid

>  <i_i_glide_lignum>  (252) 
16

>  <i_i_glide_rotatable_bonds>  (252) 
3

>  <r_i_docking_score>  (252) 
-3.08498

>  <r_i_glide_ligand_efficiency>  (252) 
-0.128541

>  <r_i_glide_ligand_efficiency_sa>  (252) 
-0.370775

>  <r_i_glide_ligand_efficiency_ln>  (252) 
-0.738376

>  <r_i_glide_gscore>  (252) 
-3.08498

>  <r_i_glide_lipo>  (252) 
-0.180774

>  <r_i_glide_hbond>  (252) 
-0.105346

>  <r_i_glide_metal>  (252) 
-0

>  <r_i_glide_rewards>  (252) 
-1.10239

>  <r_i_glide_evdw>  (252) 
-26.3966

>  <r_i_glide_ecoul>  (252) 
-5.70958

>  <r_i_glide_erotb>  (252) 
0.485012

>  <r_i_glide_esite>  (252) 
-0.00521552

>  <r_i_glide_emodel>  (252) 
-39.8397

>  <r_i_glide_energy>  (252) 
-32.1062

>  <r_i_glide_einternal>  (252) 
1.29085

>  <r_i_glide_intrahb_reward>  (252) 
-0

>  <i_i_glide_confnum>  (252) 
3

>  <i_i_glide_posenum>  (252) 
27

>  <r_i_glide_eff_state_penalty>  (252) 
0

>  <ligand_id>  (252) 
73

>  <original_smiles>  (252) 
c1cc(CN2CC3CCC4CN(c5cnsn5)CC4C3C2)ccn1

>  <smiles>  (252) 
[H]c1nsnc1N1C([H])([H])C2([H])C([H])([H])C([H])([H])C3([H])C([H])(C2([H])C1([H])[H])C([H])([H])[N+]([H])(C([H])([H])c1c([H])c([H])nc([H])c1[H])C3([H])[H]

$$$$
73:1:0
     RDKit          3D

 47 51  0  0  1  0  0  0  0  0999 V2000
   -1.4350   -0.8771    5.4265 C   0  0  0  0  0  0  0  0  0  0  0  0
   -0.6415   -0.7202    4.2829 C   0  0  0  0  0  0  0  0  0  0  0  0
   -0.1750    0.5636    3.9444 C   0  0  0  0  0  0  0  0  0  0  0  0
    0.7299    0.7849    2.7393 C   0  0  0  0  0  0  0  0  0  0  0  0
    2.0772    0.2459    2.9252 N   0  0  0  0  0  0  0  0  0  0  0  0
    2.9779    0.6750    1.8656 C   0  0  0  0  0  0  0  0  0  0  0  0
    4.1898   -0.2465    2.0265 C   0  0  2  0  0  0  0  0  0  0  0  0
    5.0132   -0.4686    0.7478 C   0  0  0  0  0  0  0  0  0  0  0  0
    6.0138   -1.6186    0.9386 C   0  0  0  0  0  0  0  0  0  0  0  0
    5.3682   -2.9588    1.3825 C   0  0  2  0  0  0  0  0  0  0  0  0
    5.2335   -3.9755    0.2509 C   0  0  0  0  0  0  0  0  0  0  0  0
    3.9407   -3.7208   -0.3664 N   0  0  0  0  0  0  0  0  0  0  0  0
    3.8354   -3.4313   -1.7457 C   0  0  0  0  0  0  0  0  0  0  0  0
    4.8515   -3.7340   -2.7112 C   0  0  0  0  0  0  0  0  0  0  0  0
    4.5920   -3.3278   -3.9232 N   0  0  0  0  0  0  0  0  0  0  0  0
    3.0845   -2.6122   -3.8561 S   0  0  0  0  0  0  0  0  0  0  0  0
    2.7677   -2.8422   -2.2388 N   0  0  0  0  0  0  0  0  0  0  0  0
    3.0752   -3.0389    0.5845 C   0  0  0  0  0  0  0  0  0  0  0  0
    3.9103   -2.8248    1.8551 C   0  0  2  0  0  0  0  0  0  0  0  0
    3.6192   -1.5249    2.6388 C   0  0  2  0  0  0  0  0  0  0  0  0
    2.1398   -1.2094    2.8555 C   0  0  0  0  0  0  0  0  0  0  0  0
   -0.5575    1.6434    4.7660 C   0  0  0  0  0  0  0  0  0  0  0  0
   -1.3694    1.3842    5.8868 C   0  0  0  0  0  0  0  0  0  0  0  0
   -1.7933    0.1470    6.2288 N   0  0  0  0  0  0  0  0  0  0  0  0
   -1.7870   -1.8543    5.7171 H   0  0  0  0  0  0  0  0  0  0  0  0
   -0.3974   -1.5851    3.6854 H   0  0  0  0  0  0  0  0  0  0  0  0
    0.2624    0.3611    1.8491 H   0  0  0  0  0  0  0  0  0  0  0  0
    0.8037    1.8588    2.5580 H   0  0  0  0  0  0  0  0  0  0  0  0
    2.5158    0.5368    0.8866 H   0  0  0  0  0  0  0  0  0  0  0  0
    3.2435    1.7258    1.9871 H   0  0  0  0  0  0  0  0  0  0  0  0
    4.8485    0.1959    2.7750 H   0  0  0  0  0  0  0  0  0  0  0  0
    4.3694   -0.6565   -0.1125 H   0  0  0  0  0  0  0  0  0  0  0  0
    5.5598    0.4417    0.5097 H   0  0  0  0  0  0  0  0  0  0  0  0
    6.5951   -1.7468    0.0273 H   0  0  0  0  0  0  0  0  0  0  0  0
    6.7330   -1.3129    1.6998 H   0  0  0  0  0  0  0  0  0  0  0  0
    5.9941   -3.3881    2.1665 H   0  0  0  0  0  0  0  0  0  0  0  0
    6.0784   -3.9189   -0.4287 H   0  0  0  0  0  0  0  0  0  0  0  0
    5.2220   -4.9880    0.6515 H   0  0  0  0  0  0  0  0  0  0  0  0
    5.7905   -4.2395   -2.5335 H   0  0  0  0  0  0  0  0  0  0  0  0
    2.7456   -2.0803    0.1842 H   0  0  0  0  0  0  0  0  0  0  0  0
    2.1764   -3.6145    0.7986 H   0  0  0  0  0  0  0  0  0  0  0  0
    3.7072   -3.6688    2.5136 H   0  0  0  0  0  0  0  0  0  0  0  0
    4.0757   -1.6315    3.6233 H   0  0  0  0  0  0  0  0  0  0  0  0
    1.7897   -1.6803    3.7695 H   0  0  0  0  0  0  0  0  0  0  0  0
    1.5289   -1.5556    2.0229 H   0  0  0  0  0  0  0  0  0  0  0  0
   -0.2322    2.6513    4.5443 H   0  0  0  0  0  0  0  0  0  0  0  0
   -1.6799    2.1900    6.5365 H   0  0  0  0  0  0  0  0  0  0  0  0
  1 24  2  0
  1  2  1  0
  1 25  1  0
  2  3  2  0
  2 26  1  0
  3  4  1  0
  3 22  1  0
  4  5  1  0
  4 27  1  0
  4 28  1  0
  5 21  1  0
  5  6  1  0
  6  7  1  0
  6 29  1  0
  6 30  1  0
  7 20  1  0
  7  8  1  0
  7 31  1  1
  8  9  1  0
  8 32  1  0
  8 33  1  0
  9 10  1  0
  9 34  1  0
  9 35  1  0
 10 19  1  0
 10 11  1  0
 10 36  1  1
 11 12  1  0
 11 37  1  0
 11 38  1  0
 12 13  1  0
 12 18  1  0
 13 17  2  0
 13 14  1  0
 14 15  2  0
 14 39  1  0
 15 16  1  0
 16 17  1  0
 18 19  1  0
 18 40  1  0
 18 41  1  0
 19 20  1  0
 19 42  1  1
 20 21  1  0
 20 43  1  1
 21 44  1  0
 21 45  1  0
 22 23  2  0
 22 46  1  0
 23 24  1  0
 23 47  1  0
M  END
>  <i_m_ct_stereo_status>  (253) 
1

>  <s_m_source_file>  (253) 
/var/tmp/pbs.5076255.sched01/tmpagfdxo7m/88tnrj_5ym.sdf

>  <i_m_source_file_index>  (253) 
17

>  <i_lp_mmshare_version>  (253) 
48012

>  <i_f3d_flags>  (253) 
0

>  <s_epik_input>  (253) 
W2NIXTFbY0hdbltjSF1bY0hdYzFbQ0gyXU4oW0NIMl0yKVtDSDJdW0NASF0oW0NASF0yMylbQ0BASF00W0NASF0oW0NIMl1bQ0gyXTMpW0NIMl1OKFtDSDJdNCljNVtjSF1uc241

>  <s_epik_cmdline>  (253) 
J2VwaWtfcHl0aG9uJywgJy1waHQnLCAnMi4wJywgJy1waCcsICc3LjAnLCAnLXRuJywgJzgnLCAnLW1hJywgJzIwMCcsICctaW1hZScsICc8aW5maWxlLm1hZT4nLCAnLW9tYWUnLCAnPG91dGZpbGUubWFlPic=

>  <r_lp_tautomer_probability>  (253) 
1

>  <r_epik_Ionization_Penalty>  (253) 
2.43786

>  <r_epik_Ionization_Penalty_Charging>  (253) 
0

>  <r_epik_Ionization_Penalty_Neutral>  (253) 
2.43786

>  <r_epik_State_Penalty>  (253) 
2.58901

>  <r_epik_Charging_Adjusted_Penalty>  (253) 
2.58901

>  <i_epik_Tot_Q>  (253) 
0

>  <i_epik_Tot_abs_Q>  (253) 
0

>  <s_lp_Force_Field>  (253) 
OPLS3e

>  <r_lp_Energy>  (253) 
29.2036

>  <b_lp_Chiralities_Consistent>  (253) 
1

>  <s_lp_Variant>  (253) 
73:0-2

>  <s_i_glide_gridfile>  (253) 
pfpi4k_grid

>  <i_i_glide_lignum>  (253) 
17

>  <i_i_glide_rotatable_bonds>  (253) 
3

>  <r_i_docking_score>  (253) 
-3.93886

>  <r_i_glide_ligand_efficiency>  (253) 
-0.164119

>  <r_i_glide_ligand_efficiency_sa>  (253) 
-0.473401

>  <r_i_glide_ligand_efficiency_ln>  (253) 
-0.942749

>  <r_i_glide_gscore>  (253) 
-3.93886

>  <r_i_glide_lipo>  (253) 
-0.751026

>  <r_i_glide_hbond>  (253) 
-0.170271

>  <r_i_glide_metal>  (253) 
-0

>  <r_i_glide_rewards>  (253) 
-1.08085

>  <r_i_glide_evdw>  (253) 
-32.5696

>  <r_i_glide_ecoul>  (253) 
-5.30112

>  <r_i_glide_erotb>  (253) 
0.487554

>  <r_i_glide_esite>  (253) 
-0.000610908

>  <r_i_glide_emodel>  (253) 
-46.3625

>  <r_i_glide_energy>  (253) 
-37.8707

>  <r_i_glide_einternal>  (253) 
1.17917

>  <r_i_glide_intrahb_reward>  (253) 
-0

>  <i_i_glide_confnum>  (253) 
3

>  <i_i_glide_posenum>  (253) 
34

>  <r_i_glide_eff_state_penalty>  (253) 
0

>  <ligand_id>  (253) 
73

>  <original_smiles>  (253) 
c1cc(CN2CC3CCC4CN(c5cnsn5)CC4C3C2)ccn1

>  <smiles>  (253) 
[H]c1nsnc1N1C([H])([H])C2([H])C([H])([H])C([H])([H])C3([H])C([H])([H])N(C([H])([H])c4c([H])c([H])nc([H])c4[H])C([H])([H])C3([H])C2([H])C1([H])[H]

$$$$
73:1:1
     RDKit          3D

 47 51  0  0  1  0  0  0  0  0999 V2000
   -2.0901    3.1017    4.7192 C   0  0  0  0  0  0  0  0  0  0  0  0
   -1.7403    1.8138    4.2539 C   0  0  0  0  0  0  0  0  0  0  0  0
   -0.5340    1.6567    3.5322 C   0  0  0  0  0  0  0  0  0  0  0  0
   -0.1203    0.2675    3.0086 C   0  0  0  0  0  0  0  0  0  0  0  0
    1.2954   -0.0688    3.1849 N   0  0  0  0  0  0  0  0  0  0  0  0
    2.1587    0.5554    2.1762 C   0  0  0  0  0  0  0  0  0  0  0  0
    3.4709   -0.1740    2.3320 C   0  0  2  0  0  0  0  0  0  0  0  0
    4.3286   -0.1530    1.0669 C   0  0  0  0  0  0  0  0  0  0  0  0
    5.5258   -1.0956    1.2278 C   0  0  0  0  0  0  0  0  0  0  0  0
    5.1175   -2.5530    1.5787 C   0  0  2  0  0  0  0  0  0  0  0  0
    5.1873   -3.5131    0.3965 C   0  0  0  0  0  0  0  0  0  0  0  0
    3.8788   -3.4663   -0.2535 N   0  0  0  0  0  0  0  0  0  0  0  0
    3.7465   -3.0904   -1.5997 C   0  0  0  0  0  0  0  0  0  0  0  0
    2.4904   -3.0545   -2.2998 C   0  0  0  0  0  0  0  0  0  0  0  0
    2.5656   -2.6512   -3.5526 N   0  0  0  0  0  0  0  0  0  0  0  0
    4.1711   -2.3027   -3.8079 S   0  0  0  0  0  0  0  0  0  0  0  0
    4.7826   -2.7334   -2.3219 N   0  0  0  0  0  0  0  0  0  0  0  0
    2.8907   -2.9941    0.7083 C   0  0  0  0  0  0  0  0  0  0  0  0
    3.6420   -2.7178    2.0181 C   0  0  2  0  0  0  0  0  0  0  0  0
    3.0981   -1.5507    2.8741 C   0  0  2  0  0  0  0  0  0  0  0  0
    1.5715   -1.4974    3.0569 C   0  0  0  0  0  0  0  0  0  0  0  0
    0.2702    2.7962    3.2927 C   0  0  0  0  0  0  0  0  0  0  0  0
   -0.1650    4.0336    3.8279 C   0  0  0  0  0  0  0  0  0  0  0  0
   -1.3136    4.1944    4.5186 N   0  0  0  0  0  0  0  0  0  0  0  0
   -3.0057    3.2838    5.2685 H   0  0  0  0  0  0  0  0  0  0  0  0
   -2.4087    0.9917    4.4347 H   0  0  0  0  0  0  0  0  0  0  0  0
   -0.7239   -0.4802    3.5125 H   0  0  0  0  0  0  0  0  0  0  0  0
   -0.3891    0.1852    1.9559 H   0  0  0  0  0  0  0  0  0  0  0  0
    1.7351    0.3747    1.1748 H   0  0  0  0  0  0  0  0  0  0  0  0
    2.4030    1.5777    2.3267 H   0  0  0  0  0  0  0  0  0  0  0  0
    4.0100    0.3450    3.1216 H   0  0  0  0  0  0  0  0  0  0  0  0
    3.7429   -0.4004    0.1762 H   0  0  0  0  0  0  0  0  0  0  0  0
    4.6742    0.8558    0.8775 H   0  0  0  0  0  0  0  0  0  0  0  0
    6.1373   -1.0594    0.3276 H   0  0  0  0  0  0  0  0  0  0  0  0
    6.1625   -0.7073    2.0395 H   0  0  0  0  0  0  0  0  0  0  0  0
    5.7871   -2.9034    2.3598 H   0  0  0  0  0  0  0  0  0  0  0  0
    6.0246   -3.2812   -0.2613 H   0  0  0  0  0  0  0  0  0  0  0  0
    5.3502   -4.5331    0.7512 H   0  0  0  0  0  0  0  0  0  0  0  0
    1.5170   -3.3148   -1.9173 H   0  0  0  0  0  0  0  0  0  0  0  0
    2.4258   -2.0850    0.3264 H   0  0  0  0  0  0  0  0  0  0  0  0
    2.0901   -3.7225    0.8677 H   0  0  0  0  0  0  0  0  0  0  0  0
    3.5856   -3.6241    2.6186 H   0  0  0  0  0  0  0  0  0  0  0  0
    3.5560   -1.6300    3.8628 H   0  0  0  0  0  0  0  0  0  0  0  0
    1.2431   -2.0696    3.9324 H   0  0  0  0  0  0  0  0  0  0  0  0
    1.0507   -1.8849    2.1802 H   0  0  0  0  0  0  0  0  0  0  0  0
    1.1303    2.8202    2.7066 H   0  0  0  0  0  0  0  0  0  0  0  0
    0.4613    4.8893    3.6668 H   0  0  0  0  0  0  0  0  0  0  0  0
  1 24  2  0
  1  2  1  0
  1 25  1  0
  2  3  2  0
  2 26  1  0
  3  4  1  0
  3 22  1  0
  4  5  1  0
  4 27  1  0
  4 28  1  0
  5 21  1  0
  5  6  1  0
  6  7  1  0
  6 29  1  0
  6 30  1  0
  7 20  1  0
  7  8  1  0
  7 31  1  1
  8  9  1  0
  8 32  1  0
  8 33  1  0
  9 10  1  0
  9 34  1  0
  9 35  1  0
 10 19  1  0
 10 11  1  0
 10 36  1  1
 11 12  1  0
 11 37  1  0
 11 38  1  0
 12 13  1  0
 12 18  1  0
 13 17  2  0
 13 14  1  0
 14 15  2  0
 14 39  1  0
 15 16  1  0
 16 17  1  0
 18 19  1  0
 18 40  1  0
 18 41  1  0
 19 20  1  0
 19 42  1  1
 20 21  1  0
 20 43  1  1
 21 44  1  0
 21 45  1  0
 22 23  2  0
 22 46  1  0
 23 24  1  0
 23 47  1  0
M  END
>  <i_m_ct_stereo_status>  (254) 
1

>  <s_m_source_file>  (254) 
/var/tmp/pbs.5076255.sched01/tmpagfdxo7m/88tnrj_5ym.sdf

>  <i_m_source_file_index>  (254) 
17

>  <i_lp_mmshare_version>  (254) 
48012

>  <i_f3d_flags>  (254) 
0

>  <s_epik_input>  (254) 
W2NIXTFbY0hdbltjSF1bY0hdYzFbQ0gyXU4oW0NIMl0yKVtDSDJdW0NASF0oW0NASF0yMylbQ0BASF00W0NASF0oW0NIMl1bQ0gyXTMpW0NIMl1OKFtDSDJdNCljNVtjSF1uc241

>  <s_epik_cmdline>  (254) 
J2VwaWtfcHl0aG9uJywgJy1waHQnLCAnMi4wJywgJy1waCcsICc3LjAnLCAnLXRuJywgJzgnLCAnLW1hJywgJzIwMCcsICctaW1hZScsICc8aW5maWxlLm1hZT4nLCAnLW9tYWUnLCAnPG91dGZpbGUubWFlPic=

>  <r_lp_tautomer_probability>  (254) 
1

>  <r_epik_Ionization_Penalty>  (254) 
2.43786

>  <r_epik_Ionization_Penalty_Charging>  (254) 
0

>  <r_epik_Ionization_Penalty_Neutral>  (254) 
2.43786

>  <r_epik_State_Penalty>  (254) 
2.58901

>  <r_epik_Charging_Adjusted_Penalty>  (254) 
2.58901

>  <i_epik_Tot_Q>  (254) 
0

>  <i_epik_Tot_abs_Q>  (254) 
0

>  <s_lp_Force_Field>  (254) 
OPLS3e

>  <r_lp_Energy>  (254) 
29.2036

>  <b_lp_Chiralities_Consistent>  (254) 
1

>  <s_lp_Variant>  (254) 
73:0-2

>  <s_i_glide_gridfile>  (254) 
pfpi4k_grid

>  <i_i_glide_lignum>  (254) 
17

>  <i_i_glide_rotatable_bonds>  (254) 
3

>  <r_i_docking_score>  (254) 
-3.19989

>  <r_i_glide_ligand_efficiency>  (254) 
-0.133329

>  <r_i_glide_ligand_efficiency_sa>  (254) 
-0.384586

>  <r_i_glide_ligand_efficiency_ln>  (254) 
-0.76588

>  <r_i_glide_gscore>  (254) 
-3.19989

>  <r_i_glide_lipo>  (254) 
-0.444488

>  <r_i_glide_hbond>  (254) 
0

>  <r_i_glide_metal>  (254) 
-0

>  <r_i_glide_rewards>  (254) 
-1.11776

>  <r_i_glide_evdw>  (254) 
-33.7548

>  <r_i_glide_ecoul>  (254) 
-2.91635

>  <r_i_glide_erotb>  (254) 
0.487554

>  <r_i_glide_esite>  (254) 
0

>  <r_i_glide_emodel>  (254) 
-42.3399

>  <r_i_glide_energy>  (254) 
-36.6712

>  <r_i_glide_einternal>  (254) 
2.13445

>  <r_i_glide_intrahb_reward>  (254) 
-0

>  <i_i_glide_confnum>  (254) 
3

>  <i_i_glide_posenum>  (254) 
1

>  <r_i_glide_eff_state_penalty>  (254) 
0

>  <ligand_id>  (254) 
73

>  <original_smiles>  (254) 
c1cc(CN2CC3CCC4CN(c5cnsn5)CC4C3C2)ccn1

>  <smiles>  (254) 
[H]c1nsnc1N1C([H])([H])C2([H])C([H])([H])C([H])([H])C3([H])C([H])([H])N(C([H])([H])c4c([H])c([H])nc([H])c4[H])C([H])([H])C3([H])C2([H])C1([H])[H]

$$$$
73:1:2
     RDKit          3D

 47 51  0  0  1  0  0  0  0  0999 V2000
    4.9804   -1.6115   -0.9417 C   0  0  0  0  0  0  0  0  0  0  0  0
    3.8173   -1.4930   -0.1647 C   0  0  0  0  0  0  0  0  0  0  0  0
    3.9377   -1.1988    1.2064 C   0  0  0  0  0  0  0  0  0  0  0  0
    2.7006   -1.0637    2.0750 C   0  0  0  0  0  0  0  0  0  0  0  0
    2.0767    0.2499    1.9611 N   0  0  0  0  0  0  0  0  0  0  0  0
    2.5606    1.1918    2.9615 C   0  0  0  0  0  0  0  0  0  0  0  0
    1.5504    2.3379    2.8960 C   0  0  2  0  0  0  0  0  0  0  0  0
    1.3874    3.1341    4.2036 C   0  0  0  0  0  0  0  0  0  0  0  0
    0.1614    4.0603    4.1233 C   0  0  0  0  0  0  0  0  0  0  0  0
   -1.1717    3.3367    3.7931 C   0  0  2  0  0  0  0  0  0  0  0  0
   -2.0786    3.1312    5.0072 C   0  0  0  0  0  0  0  0  0  0  0  0
   -1.7104    1.8460    5.5862 N   0  0  0  0  0  0  0  0  0  0  0  0
   -1.3009    1.7536    6.9386 C   0  0  0  0  0  0  0  0  0  0  0  0
   -1.6616    2.7020    7.9518 C   0  0  0  0  0  0  0  0  0  0  0  0
   -1.1237    2.4887    9.1314 N   0  0  0  0  0  0  0  0  0  0  0  0
   -0.1881    1.1153    8.9576 S   0  0  0  0  0  0  0  0  0  0  0  0
   -0.5460    0.7612    7.3605 N   0  0  0  0  0  0  0  0  0  0  0  0
   -1.0600    1.0378    4.5631 C   0  0  0  0  0  0  0  0  0  0  0  0
   -0.9934    1.8964    3.2903 C   0  0  2  0  0  0  0  0  0  0  0  0
    0.2559    1.6760    2.4029 C   0  0  2  0  0  0  0  0  0  0  0  0
    0.6376    0.2106    2.1667 C   0  0  0  0  0  0  0  0  0  0  0  0
    5.2284   -1.0397    1.7446 C   0  0  0  0  0  0  0  0  0  0  0  0
    6.3323   -1.1819    0.8824 C   0  0  0  0  0  0  0  0  0  0  0  0
    6.2215   -1.4539   -0.4361 N   0  0  0  0  0  0  0  0  0  0  0  0
    4.9241   -1.8290   -1.9984 H   0  0  0  0  0  0  0  0  0  0  0  0
    2.8436   -1.6267   -0.6221 H   0  0  0  0  0  0  0  0  0  0  0  0
    1.9983   -1.8380    1.7688 H   0  0  0  0  0  0  0  0  0  0  0  0
    2.9552   -1.2793    3.1137 H   0  0  0  0  0  0  0  0  0  0  0  0
    2.5279    0.7340    3.9498 H   0  0  0  0  0  0  0  0  0  0  0  0
    3.5806    1.5126    2.7570 H   0  0  0  0  0  0  0  0  0  0  0  0
    1.8785    3.0313    2.1188 H   0  0  0  0  0  0  0  0  0  0  0  0
    1.3057    2.4737    5.0677 H   0  0  0  0  0  0  0  0  0  0  0  0
    2.2822    3.7314    4.3748 H   0  0  0  0  0  0  0  0  0  0  0  0
    0.0819    4.6274    5.0487 H   0  0  0  0  0  0  0  0  0  0  0  0
    0.3536    4.7987    3.3416 H   0  0  0  0  0  0  0  0  0  0  0  0
   -1.6968    3.9376    3.0486 H   0  0  0  0  0  0  0  0  0  0  0  0
   -2.0095    3.9676    5.6958 H   0  0  0  0  0  0  0  0  0  0  0  0
   -3.1186    3.0712    4.6907 H   0  0  0  0  0  0  0  0  0  0  0  0
   -2.3047    3.5661    7.8341 H   0  0  0  0  0  0  0  0  0  0  0  0
   -0.0498    0.7697    4.8706 H   0  0  0  0  0  0  0  0  0  0  0  0
   -1.5922    0.1034    4.3800 H   0  0  0  0  0  0  0  0  0  0  0  0
   -1.8733    1.6550    2.6952 H   0  0  0  0  0  0  0  0  0  0  0  0
    0.0391    2.1250    1.4330 H   0  0  0  0  0  0  0  0  0  0  0  0
    0.1295   -0.1931    1.2932 H   0  0  0  0  0  0  0  0  0  0  0  0
    0.4049   -0.4161    3.0273 H   0  0  0  0  0  0  0  0  0  0  0  0
    5.3742   -0.8189    2.7915 H   0  0  0  0  0  0  0  0  0  0  0  0
    7.3365   -1.0622    1.2587 H   0  0  0  0  0  0  0  0  0  0  0  0
  1 24  2  0
  1  2  1  0
  1 25  1  0
  2  3  2  0
  2 26  1  0
  3  4  1  0
  3 22  1  0
  4  5  1  0
  4 27  1  0
  4 28  1  0
  5 21  1  0
  5  6  1  0
  6  7  1  0
  6 29  1  0
  6 30  1  0
  7 20  1  0
  7  8  1  0
  7 31  1  6
  8  9  1  0
  8 32  1  0
  8 33  1  0
  9 10  1  0
  9 34  1  0
  9 35  1  0
 10 19  1  0
 10 11  1  0
 10 36  1  6
 11 12  1  0
 11 37  1  0
 11 38  1  0
 12 13  1  0
 12 18  1  0
 13 17  2  0
 13 14  1  0
 14 15  2  0
 14 39  1  0
 15 16  1  0
 16 17  1  0
 18 19  1  0
 18 40  1  0
 18 41  1  0
 19 20  1  0
 19 42  1  6
 20 21  1  0
 20 43  1  6
 21 44  1  0
 21 45  1  0
 22 23  2  0
 22 46  1  0
 23 24  1  0
 23 47  1  0
M  END
>  <i_m_ct_stereo_status>  (255) 
1

>  <s_m_source_file>  (255) 
/var/tmp/pbs.5076255.sched01/tmpagfdxo7m/88tnrj_5ym.sdf

>  <i_m_source_file_index>  (255) 
17

>  <i_lp_mmshare_version>  (255) 
48012

>  <i_f3d_flags>  (255) 
0

>  <s_epik_input>  (255) 
W2NIXTFbY0hdbltjSF1bY0hdYzFbQ0gyXU4oW0NIMl0yKVtDSDJdW0NASF0oW0NASF0yMylbQ0BASF00W0NASF0oW0NIMl1bQ0gyXTMpW0NIMl1OKFtDSDJdNCljNVtjSF1uc241

>  <s_epik_cmdline>  (255) 
J2VwaWtfcHl0aG9uJywgJy1waHQnLCAnMi4wJywgJy1waCcsICc3LjAnLCAnLXRuJywgJzgnLCAnLW1hJywgJzIwMCcsICctaW1hZScsICc8aW5maWxlLm1hZT4nLCAnLW9tYWUnLCAnPG91dGZpbGUubWFlPic=

>  <r_lp_tautomer_probability>  (255) 
1

>  <r_epik_Ionization_Penalty>  (255) 
2.43786

>  <r_epik_Ionization_Penalty_Charging>  (255) 
0

>  <r_epik_Ionization_Penalty_Neutral>  (255) 
2.43786

>  <r_epik_State_Penalty>  (255) 
2.58901

>  <r_epik_Charging_Adjusted_Penalty>  (255) 
2.58901

>  <i_epik_Tot_Q>  (255) 
0

>  <i_epik_Tot_abs_Q>  (255) 
0

>  <s_lp_Force_Field>  (255) 
OPLS3e

>  <r_lp_Energy>  (255) 
29.2036

>  <b_lp_Chiralities_Consistent>  (255) 
1

>  <s_lp_Variant>  (255) 
73:0-2

>  <s_i_glide_gridfile>  (255) 
pfpi4k_grid

>  <i_i_glide_lignum>  (255) 
17

>  <i_i_glide_rotatable_bonds>  (255) 
3

>  <r_i_docking_score>  (255) 
-2.90732

>  <r_i_glide_ligand_efficiency>  (255) 
-0.121138

>  <r_i_glide_ligand_efficiency_sa>  (255) 
-0.349423

>  <r_i_glide_ligand_efficiency_ln>  (255) 
-0.695854

>  <r_i_glide_gscore>  (255) 
-2.90732

>  <r_i_glide_lipo>  (255) 
-0.207394

>  <r_i_glide_hbond>  (255) 
-0.0774094

>  <r_i_glide_metal>  (255) 
-0

>  <r_i_glide_rewards>  (255) 
-1.08085

>  <r_i_glide_evdw>  (255) 
-29.9715

>  <r_i_glide_ecoul>  (255) 
-3.44722

>  <r_i_glide_erotb>  (255) 
0.487554

>  <r_i_glide_esite>  (255) 
-0.0135571

>  <r_i_glide_emodel>  (255) 
-38.2818

>  <r_i_glide_energy>  (255) 
-33.4187

>  <r_i_glide_einternal>  (255) 
3.6522

>  <r_i_glide_intrahb_reward>  (255) 
-0

>  <i_i_glide_confnum>  (255) 
5

>  <i_i_glide_posenum>  (255) 
19

>  <r_i_glide_eff_state_penalty>  (255) 
0

>  <ligand_id>  (255) 
73

>  <original_smiles>  (255) 
c1cc(CN2CC3CCC4CN(c5cnsn5)CC4C3C2)ccn1

>  <smiles>  (255) 
[H]c1nsnc1N1C([H])([H])C2([H])C([H])([H])C([H])([H])C3([H])C([H])([H])N(C([H])([H])c4c([H])c([H])nc([H])c4[H])C([H])([H])C3([H])C2([H])C1([H])[H]

$$$$
74:0:0
     RDKit          3D

 60 66  0  0  1  0  0  0  0  0999 V2000
   -2.5654    3.1371   10.1513 C   0  0  0  0  0  0  0  0  0  0  0  0
   -2.9842    3.7950    8.8282 C   0  0  0  0  0  0  0  0  0  0  0  0
   -2.4316    2.7969    7.3851 S   0  0  0  0  0  0  0  0  0  0  0  0
   -2.5697    1.3558    7.6756 O   0  0  0  0  0  0  0  0  0  0  0  0
   -2.9879    3.3650    6.1465 O   0  0  0  0  0  0  0  0  0  0  0  0
   -0.7928    3.1802    7.4434 O   0  0  0  0  0  0  0  0  0  0  0  0
   -0.0880    3.0670    6.2755 C   0  0  0  0  0  0  0  0  0  0  0  0
   -0.1771    4.0715    5.2911 C   0  0  0  0  0  0  0  0  0  0  0  0
    0.3052    3.8191    3.9962 C   0  0  0  0  0  0  0  0  0  0  0  0
    1.0570    2.6531    3.7333 C   0  0  0  0  0  0  0  0  0  0  0  0
    1.4280    1.8388    4.8226 C   0  0  0  0  0  0  0  0  0  0  0  0
    0.6721    1.9089    6.0123 C   0  0  0  0  0  0  0  0  0  0  0  0
    0.5097    0.5689    6.7116 C   0  0  0  0  0  0  0  0  0  0  0  0
    0.9917   -0.6574    5.9060 C   0  0  2  0  0  0  0  0  0  0  0  0
    0.0290   -1.6897    6.0793 O   0  0  0  0  0  0  0  0  0  0  0  0
    2.4436   -0.9166    6.2968 C   0  0  1  0  0  0  0  0  0  0  0  0
    2.5683   -1.7642    5.0576 C   0  0  0  0  0  0  0  0  0  0  0  0
    1.7489   -0.5633    4.5331 C   0  0  1  0  0  0  0  0  0  0  0  0
    1.2333   -0.6320    3.0639 C   0  0  1  0  0  0  0  0  0  0  0  0
    0.3265    0.5113    2.5454 C   0  0  0  0  0  0  0  0  0  0  0  0
    0.9936    1.9116    2.4104 C   0  0  0  0  0  0  0  0  0  0  0  0
    2.3727   -0.7066    2.0913 N   0  0  2  0  0  0  0  0  0  0  0  0
    2.4473   -2.0103    1.3958 C   0  0  0  0  0  0  0  0  0  0  0  0
    3.4013   -1.9968    0.2172 C   0  0  0  0  0  0  0  0  0  0  0  0
    3.7603   -3.2922   -0.4803 C   0  0  0  0  0  0  0  0  0  0  0  0
    4.7886   -2.5829    0.3583 C   0  0  0  0  0  0  0  0  0  0  0  0
    3.7025   -0.2114    2.5754 C   0  0  0  0  0  0  0  0  0  0  0  0
    3.6277    0.8870    3.6687 C   0  0  0  0  0  0  0  0  0  0  0  0
    2.4833    0.7038    4.6942 C   0  0  1  0  0  0  0  0  0  0  0  0
    3.0712    0.3266    5.9502 O   0  0  0  0  0  0  0  0  0  0  0  0
   -2.8886    3.7385   11.0021 H   0  0  0  0  0  0  0  0  0  0  0  0
   -1.4806    3.0280   10.2152 H   0  0  0  0  0  0  0  0  0  0  0  0
   -3.0066    2.1450   10.2655 H   0  0  0  0  0  0  0  0  0  0  0  0
   -4.0694    3.8832    8.7846 H   0  0  0  0  0  0  0  0  0  0  0  0
   -2.5520    4.7923    8.7254 H   0  0  0  0  0  0  0  0  0  0  0  0
   -0.7846    4.9435    5.4733 H   0  0  0  0  0  0  0  0  0  0  0  0
   -0.0076    4.4455    3.1748 H   0  0  0  0  0  0  0  0  0  0  0  0
    1.0033    0.6190    7.6837 H   0  0  0  0  0  0  0  0  0  0  0  0
   -0.5425    0.4430    6.9276 H   0  0  0  0  0  0  0  0  0  0  0  0
    0.3700   -2.4662    5.6673 H   0  0  0  0  0  0  0  0  0  0  0  0
    2.6470   -1.3696    7.2662 H   0  0  0  0  0  0  0  0  0  0  0  0
    3.6085   -1.8485    4.7490 H   0  0  0  0  0  0  0  0  0  0  0  0
    2.0624   -2.7346    5.0716 H   0  0  0  0  0  0  0  0  0  0  0  0
    0.6345   -1.5396    2.9827 H   0  0  0  0  0  0  0  0  0  0  0  0
    0.0189    0.2246    1.5409 H   0  0  0  0  0  0  0  0  0  0  0  0
   -0.6107    0.5640    3.1034 H   0  0  0  0  0  0  0  0  0  0  0  0
    0.3309    2.4925    1.7767 H   0  0  0  0  0  0  0  0  0  0  0  0
    1.9373    1.9026    1.8669 H   0  0  0  0  0  0  0  0  0  0  0  0
    2.7250   -2.8046    2.0920 H   0  0  0  0  0  0  0  0  0  0  0  0
    1.4605   -2.2524    1.0069 H   0  0  0  0  0  0  0  0  0  0  0  0
    3.2833   -1.1383   -0.4484 H   0  0  0  0  0  0  0  0  0  0  0  0
    3.3391   -4.2182   -0.0911 H   0  0  0  0  0  0  0  0  0  0  0  0
    3.9066   -3.2692   -1.5593 H   0  0  0  0  0  0  0  0  0  0  0  0
    5.5986   -2.0688   -0.1573 H   0  0  0  0  0  0  0  0  0  0  0  0
    5.0478   -3.0165    1.3242 H   0  0  0  0  0  0  0  0  0  0  0  0
    4.2969   -1.0503    2.9368 H   0  0  0  0  0  0  0  0  0  0  0  0
    4.2625    0.1740    1.7236 H   0  0  0  0  0  0  0  0  0  0  0  0
    4.5828    0.8897    4.1979 H   0  0  0  0  0  0  0  0  0  0  0  0
    3.5868    1.8797    3.2283 H   0  0  0  0  0  0  0  0  0  0  0  0
    2.1012   -0.0556    1.3641 H   0  0  0  0  0  0  0  0  0  0  0  0
  1  2  1  0
  1 31  1  0
  1 32  1  0
  1 33  1  0
  2  3  1  0
  2 34  1  0
  2 35  1  0
  3  4  2  0
  3  5  2  0
  3  6  1  0
  6  7  1  0
  7 12  2  0
  7  8  1  0
  8  9  2  0
  8 36  1  0
  9 10  1  0
  9 37  1  0
 10 21  1  0
 10 11  2  0
 11 29  1  0
 11 12  1  0
 12 13  1  0
 13 14  1  0
 13 38  1  0
 13 39  1  0
 14 18  1  0
 14 15  1  6
 14 16  1  0
 15 40  1  0
 16 30  1  0
 16 17  1  0
 16 41  1  1
 18 17  1  1
 17 42  1  0
 17 43  1  0
 18 29  1  0
 18 19  1  0
 19 20  1  0
 19 22  1  0
 19 44  1  1
 20 21  1  0
 20 45  1  0
 20 46  1  0
 21 47  1  0
 21 48  1  0
 22 23  1  0
 22 27  1  0
 22 60  1  6
 23 24  1  0
 23 49  1  0
 23 50  1  0
 24 26  1  0
 24 25  1  0
 24 51  1  0
 25 26  1  0
 25 52  1  0
 25 53  1  0
 26 54  1  0
 26 55  1  0
 27 28  1  0
 27 56  1  0
 27 57  1  0
 29 28  1  6
 28 58  1  0
 28 59  1  0
 29 30  1  0
M  CHG  1  22   1
M  END
>  <i_m_ct_stereo_status>  (256) 
1

>  <s_m_source_file>  (256) 
/var/tmp/pbs.5076255.sched01/tmpagfdxo7m/88tnrj_5ym.sdf

>  <i_m_source_file_index>  (256) 
18

>  <i_lp_mmshare_version>  (256) 
48012

>  <i_f3d_flags>  (256) 
0

>  <s_epik_input>  (256) 
W0NIMl0xW0NASF0oTzIpW0NAQF0zKFtPSF0pW0NIMl1jNGMoT1MoPU8pKD1PKVtDSDJdW0NIM10pW2NIXVtjSF1jKGM0W0NAXTI1W0NAQF0xMzYpW0NIMl1bQ0gyXVtDQEhdNk4oW0NIMl1bQ0gyXTUpW0NIMl1bQ0hdN1tDSDJdW0NIMl03

>  <s_epik_cmdline>  (256) 
J2VwaWtfcHl0aG9uJywgJy1waHQnLCAnMi4wJywgJy1waCcsICc3LjAnLCAnLXRuJywgJzgnLCAnLW1hJywgJzIwMCcsICctaW1hZScsICc8aW5maWxlLm1hZT4nLCAnLW9tYWUnLCAnPG91dGZpbGUubWFlPic=

>  <r_epik_Ionization_Penalty>  (256) 
0.00570937

>  <r_epik_Ionization_Penalty_Charging>  (256) 
0.00570918

>  <r_epik_Ionization_Penalty_Neutral>  (256) 
1.88461e-07

>  <r_epik_State_Penalty>  (256) 
0.00418824

>  <r_epik_Charging_Adjusted_Penalty>  (256) 
0.00989742

>  <i_epik_Tot_Q>  (256) 
1

>  <i_epik_Tot_abs_Q>  (256) 
1

>  <s_lp_Force_Field>  (256) 
OPLS3e

>  <r_lp_Energy>  (256) 
113.093

>  <b_lp_Chiralities_Consistent>  (256) 
1

>  <s_lp_Variant>  (256) 
74:0-1

>  <s_i_glide_gridfile>  (256) 
pfpi4k_grid

>  <i_i_glide_lignum>  (256) 
18

>  <i_i_glide_rotatable_bonds>  (256) 
6

>  <r_i_docking_score>  (256) 
-2.8912

>  <r_i_glide_ligand_efficiency>  (256) 
-0.0963733

>  <r_i_glide_ligand_efficiency_sa>  (256) 
-0.299454

>  <r_i_glide_ligand_efficiency_ln>  (256) 
-0.656912

>  <r_i_glide_gscore>  (256) 
-2.8912

>  <r_i_glide_lipo>  (256) 
-0.116407

>  <r_i_glide_hbond>  (256) 
0

>  <r_i_glide_metal>  (256) 
-0

>  <r_i_glide_rewards>  (256) 
-0.62898

>  <r_i_glide_evdw>  (256) 
-21.4115

>  <r_i_glide_ecoul>  (256) 
-9.25723

>  <r_i_glide_erotb>  (256) 
0.425424

>  <r_i_glide_esite>  (256) 
-0.112079

>  <r_i_glide_emodel>  (256) 
-36.7018

>  <r_i_glide_energy>  (256) 
-30.6687

>  <r_i_glide_einternal>  (256) 
0.96925

>  <r_i_glide_intrahb_reward>  (256) 
-0

>  <i_i_glide_confnum>  (256) 
1

>  <i_i_glide_posenum>  (256) 
1

>  <r_i_glide_eff_state_penalty>  (256) 
0

>  <ligand_id>  (256) 
74

>  <original_smiles>  (256) 
CCS(=O)(=O)Oc1ccc2c3c1CC1(O)C4CC15C(CC2)N(CC1CC1)CCC35O4

>  <smiles>  (256) 
[H]OC12C([H])([H])c3c(OS(=O)(=O)C([H])([H])C([H])([H])[H])c([H])c([H])c4c3C35OC1([H])C([H])([H])C32C([H])(C([H])([H])C4([H])[H])[N+]([H])(C([H])([H])C1([H])C([H])([H])C1([H])[H])C([H])([H])C5([H])[H]

$$$$
74:0:1
     RDKit          3D

 60 66  0  0  1  0  0  0  0  0999 V2000
   -3.7659    3.2528    9.4956 C   0  0  0  0  0  0  0  0  0  0  0  0
   -2.3580    2.6992    9.2722 C   0  0  0  0  0  0  0  0  0  0  0  0
   -2.0498    2.3561    7.5027 S   0  0  0  0  0  0  0  0  0  0  0  0
   -2.3696    0.9464    7.2231 O   0  0  0  0  0  0  0  0  0  0  0  0
   -2.6318    3.4414    6.6954 O   0  0  0  0  0  0  0  0  0  0  0  0
   -0.3709    2.5292    7.5020 O   0  0  0  0  0  0  0  0  0  0  0  0
    0.2512    2.5157    6.2831 C   0  0  0  0  0  0  0  0  0  0  0  0
    0.0644    3.5819    5.3807 C   0  0  0  0  0  0  0  0  0  0  0  0
    0.4619    3.4331    4.0411 C   0  0  0  0  0  0  0  0  0  0  0  0
    1.2413    2.3258    3.6510 C   0  0  0  0  0  0  0  0  0  0  0  0
    1.7099    1.4543    4.6570 C   0  0  0  0  0  0  0  0  0  0  0  0
    1.0317    1.4091    5.8936 C   0  0  0  0  0  0  0  0  0  0  0  0
    0.9604    0.0155    6.5012 C   0  0  0  0  0  0  0  0  0  0  0  0
    1.4477   -1.1290    5.5787 C   0  0  2  0  0  0  0  0  0  0  0  0
    0.5467   -2.2152    5.7300 O   0  0  0  0  0  0  0  0  0  0  0  0
    2.9358   -1.3443    5.8593 C   0  0  1  0  0  0  0  0  0  0  0  0
    3.0207   -2.0957    4.5547 C   0  0  0  0  0  0  0  0  0  0  0  0
    2.1165   -0.9005    4.1724 C   0  0  1  0  0  0  0  0  0  0  0  0
    1.5149   -0.8920    2.7362 C   0  0  1  0  0  0  0  0  0  0  0  0
    0.5264    0.2426    2.3616 C   0  0  0  0  0  0  0  0  0  0  0  0
    1.1195    1.6776    2.2843 C   0  0  0  0  0  0  0  0  0  0  0  0
    2.5893   -0.8440    1.6901 N   0  0  2  0  0  0  0  0  0  0  0  0
    2.6836   -2.0958    0.9033 C   0  0  0  0  0  0  0  0  0  0  0  0
    3.4332   -1.9064   -0.4005 C   0  0  0  0  0  0  0  0  0  0  0  0
    3.7583   -3.1121   -1.2621 C   0  0  0  0  0  0  0  0  0  0  0  0
    4.8602   -2.3948   -0.5278 C   0  0  0  0  0  0  0  0  0  0  0  0
    3.9224   -0.3214    2.1218 C   0  0  0  0  0  0  0  0  0  0  0  0
    3.8706    0.6886    3.2998 C   0  0  0  0  0  0  0  0  0  0  0  0
    2.8065    0.3810    4.3805 C   0  0  1  0  0  0  0  0  0  0  0  0
    3.4893   -0.0543    5.5689 O   0  0  0  0  0  0  0  0  0  0  0  0
   -3.9174    3.4217   10.5609 H   0  0  0  0  0  0  0  0  0  0  0  0
   -4.5309    2.5508    9.1603 H   0  0  0  0  0  0  0  0  0  0  0  0
   -3.9175    4.1963    8.9627 H   0  0  0  0  0  0  0  0  0  0  0  0
   -1.6268    3.4361    9.5904 H   0  0  0  0  0  0  0  0  0  0  0  0
   -2.1773    1.7930    9.8460 H   0  0  0  0  0  0  0  0  0  0  0  0
   -0.5538    4.4175    5.6585 H   0  0  0  0  0  0  0  0  0  0  0  0
    0.0684    4.1029    3.2922 H   0  0  0  0  0  0  0  0  0  0  0  0
    1.5207    0.0206    7.4378 H   0  0  0  0  0  0  0  0  0  0  0  0
   -0.0738   -0.1546    6.7910 H   0  0  0  0  0  0  0  0  0  0  0  0
    0.8377   -2.9016    5.1486 H   0  0  0  0  0  0  0  0  0  0  0  0
    3.2304   -1.8557    6.7742 H   0  0  0  0  0  0  0  0  0  0  0  0
    4.0416   -2.1083    4.1750 H   0  0  0  0  0  0  0  0  0  0  0  0
    2.5633   -3.0863    4.5284 H   0  0  0  0  0  0  0  0  0  0  0  0
    0.9484   -1.8158    2.6301 H   0  0  0  0  0  0  0  0  0  0  0  0
    0.1699    0.0179    1.3580 H   0  0  0  0  0  0  0  0  0  0  0  0
   -0.3708    0.2114    2.9805 H   0  0  0  0  0  0  0  0  0  0  0  0
    0.3901    2.2679    1.7316 H   0  0  0  0  0  0  0  0  0  0  0  0
    2.0254    1.7538    1.6857 H   0  0  0  0  0  0  0  0  0  0  0  0
    3.1329   -2.8958    1.4901 H   0  0  0  0  0  0  0  0  0  0  0  0
    1.6895   -2.4299    0.6355 H   0  0  0  0  0  0  0  0  0  0  0  0
    3.1527   -1.0167   -0.9653 H   0  0  0  0  0  0  0  0  0  0  0  0
    3.4598   -4.0936   -0.8997 H   0  0  0  0  0  0  0  0  0  0  0  0
    3.7278   -2.9878   -2.3436 H   0  0  0  0  0  0  0  0  0  0  0  0
    5.5420   -1.7797   -1.1126 H   0  0  0  0  0  0  0  0  0  0  0  0
    5.2934   -2.8824    0.3437 H   0  0  0  0  0  0  0  0  0  0  0  0
    4.5783   -1.1519    2.3815 H   0  0  0  0  0  0  0  0  0  0  0  0
    4.4090    0.1531    1.2678 H   0  0  0  0  0  0  0  0  0  0  0  0
    4.8567    0.7023    3.7679 H   0  0  0  0  0  0  0  0  0  0  0  0
    3.7496    1.7047    2.9377 H   0  0  0  0  0  0  0  0  0  0  0  0
    2.2338   -0.1663    1.0276 H   0  0  0  0  0  0  0  0  0  0  0  0
  1  2  1  0
  1 31  1  0
  1 32  1  0
  1 33  1  0
  2  3  1  0
  2 34  1  0
  2 35  1  0
  3  4  2  0
  3  5  2  0
  3  6  1  0
  6  7  1  0
  7 12  2  0
  7  8  1  0
  8  9  2  0
  8 36  1  0
  9 10  1  0
  9 37  1  0
 10 21  1  0
 10 11  2  0
 11 29  1  0
 11 12  1  0
 12 13  1  0
 13 14  1  0
 13 38  1  0
 13 39  1  0
 14 18  1  0
 14 15  1  6
 14 16  1  0
 15 40  1  0
 16 30  1  0
 16 17  1  0
 16 41  1  1
 18 17  1  6
 17 42  1  0
 17 43  1  0
 18 29  1  0
 18 19  1  0
 19 20  1  0
 19 22  1  0
 19 44  1  6
 20 21  1  0
 20 45  1  0
 20 46  1  0
 21 47  1  0
 21 48  1  0
 22 23  1  0
 22 27  1  0
 22 60  1  6
 23 24  1  0
 23 49  1  0
 23 50  1  0
 24 26  1  0
 24 25  1  0
 24 51  1  0
 25 26  1  0
 25 52  1  0
 25 53  1  0
 26 54  1  0
 26 55  1  0
 27 28  1  0
 27 56  1  0
 27 57  1  0
 29 28  1  6
 28 58  1  0
 28 59  1  0
 29 30  1  0
M  CHG  1  22   1
M  END
>  <i_m_ct_stereo_status>  (257) 
1

>  <s_m_source_file>  (257) 
/var/tmp/pbs.5076255.sched01/tmpagfdxo7m/88tnrj_5ym.sdf

>  <i_m_source_file_index>  (257) 
18

>  <i_lp_mmshare_version>  (257) 
48012

>  <i_f3d_flags>  (257) 
0

>  <s_epik_input>  (257) 
W0NIMl0xW0NASF0oTzIpW0NAQF0zKFtPSF0pW0NIMl1jNGMoT1MoPU8pKD1PKVtDSDJdW0NIM10pW2NIXVtjSF1jKGM0W0NAXTI1W0NAQF0xMzYpW0NIMl1bQ0gyXVtDQEhdNk4oW0NIMl1bQ0gyXTUpW0NIMl1bQ0hdN1tDSDJdW0NIMl03

>  <s_epik_cmdline>  (257) 
J2VwaWtfcHl0aG9uJywgJy1waHQnLCAnMi4wJywgJy1waCcsICc3LjAnLCAnLXRuJywgJzgnLCAnLW1hJywgJzIwMCcsICctaW1hZScsICc8aW5maWxlLm1hZT4nLCAnLW9tYWUnLCAnPG91dGZpbGUubWFlPic=

>  <r_epik_Ionization_Penalty>  (257) 
0.00570937

>  <r_epik_Ionization_Penalty_Charging>  (257) 
0.00570918

>  <r_epik_Ionization_Penalty_Neutral>  (257) 
1.88461e-07

>  <r_epik_State_Penalty>  (257) 
0.00418824

>  <r_epik_Charging_Adjusted_Penalty>  (257) 
0.00989742

>  <i_epik_Tot_Q>  (257) 
1

>  <i_epik_Tot_abs_Q>  (257) 
1

>  <s_lp_Force_Field>  (257) 
OPLS3e

>  <r_lp_Energy>  (257) 
113.093

>  <b_lp_Chiralities_Consistent>  (257) 
1

>  <s_lp_Variant>  (257) 
74:0-1

>  <s_i_glide_gridfile>  (257) 
pfpi4k_grid

>  <i_i_glide_lignum>  (257) 
18

>  <i_i_glide_rotatable_bonds>  (257) 
6

>  <r_i_docking_score>  (257) 
-2.86946

>  <r_i_glide_ligand_efficiency>  (257) 
-0.0956487

>  <r_i_glide_ligand_efficiency_sa>  (257) 
-0.297203

>  <r_i_glide_ligand_efficiency_ln>  (257) 
-0.651973

>  <r_i_glide_gscore>  (257) 
-2.86946

>  <r_i_glide_lipo>  (257) 
-0.102126

>  <r_i_glide_hbond>  (257) 
0

>  <r_i_glide_metal>  (257) 
-0

>  <r_i_glide_rewards>  (257) 
-0.459859

>  <r_i_glide_evdw>  (257) 
-20.4223

>  <r_i_glide_ecoul>  (257) 
-10.3666

>  <r_i_glide_erotb>  (257) 
0.425424

>  <r_i_glide_esite>  (257) 
-0.156796

>  <r_i_glide_emodel>  (257) 
-36.0943

>  <r_i_glide_energy>  (257) 
-30.7889

>  <r_i_glide_einternal>  (257) 
2.45767

>  <r_i_glide_intrahb_reward>  (257) 
-0

>  <i_i_glide_confnum>  (257) 
1

>  <i_i_glide_posenum>  (257) 
20

>  <r_i_glide_eff_state_penalty>  (257) 
0

>  <ligand_id>  (257) 
74

>  <original_smiles>  (257) 
CCS(=O)(=O)Oc1ccc2c3c1CC1(O)C4CC15C(CC2)N(CC1CC1)CCC35O4

>  <smiles>  (257) 
[H]OC12C([H])([H])c3c(OS(=O)(=O)C([H])([H])C([H])([H])[H])c([H])c([H])c4c3C35OC1([H])C([H])([H])C32C([H])(C([H])([H])C4([H])[H])[N+]([H])(C([H])([H])C1([H])C([H])([H])C1([H])[H])C([H])([H])C5([H])[H]

$$$$
74:0:2
     RDKit          3D

 60 66  0  0  1  0  0  0  0  0999 V2000
   -2.3560    4.2142   10.2977 C   0  0  0  0  0  0  0  0  0  0  0  0
   -2.0986    2.7544    9.8997 C   0  0  0  0  0  0  0  0  0  0  0  0
   -2.4534    2.4803    8.1100 S   0  0  0  0  0  0  0  0  0  0  0  0
   -2.0495    1.1277    7.6861 O   0  0  0  0  0  0  0  0  0  0  0  0
   -3.8013    2.9502    7.7993 O   0  0  0  0  0  0  0  0  0  0  0  0
   -1.3438    3.5949    7.4848 O   0  0  0  0  0  0  0  0  0  0  0  0
   -0.9008    3.3786    6.2125 C   0  0  0  0  0  0  0  0  0  0  0  0
   -1.6732    3.8043    5.1152 C   0  0  0  0  0  0  0  0  0  0  0  0
   -1.3524    3.3575    3.8220 C   0  0  0  0  0  0  0  0  0  0  0  0
   -0.1641    2.6391    3.6034 C   0  0  0  0  0  0  0  0  0  0  0  0
    0.7560    2.5184    4.6717 C   0  0  0  0  0  0  0  0  0  0  0  0
    0.2941    2.6730    5.9942 C   0  0  0  0  0  0  0  0  0  0  0  0
    0.9856    1.7622    7.0045 C   0  0  0  0  0  0  0  0  0  0  0  0
    1.8690    0.6604    6.3804 C   0  0  2  0  0  0  0  0  0  0  0  0
    1.6104   -0.5455    7.0811 O   0  0  0  0  0  0  0  0  0  0  0  0
    3.2874    1.2129    6.3182 C   0  0  1  0  0  0  0  0  0  0  0  0
    3.6121    0.1168    5.3352 C   0  0  0  0  0  0  0  0  0  0  0  0
    2.2133    0.5736    4.8492 C   0  0  1  0  0  0  0  0  0  0  0  0
    1.5620   -0.2394    3.6899 C   0  0  1  0  0  0  0  0  0  0  0  0
    0.1221    0.1334    3.2559 C   0  0  0  0  0  0  0  0  0  0  0  0
   -0.0636    1.5246    2.5801 C   0  0  0  0  0  0  0  0  0  0  0  0
    2.3850   -0.1601    2.4393 N   0  0  2  0  0  0  0  0  0  0  0  0
    2.9978   -1.4628    2.0761 C   0  0  0  0  0  0  0  0  0  0  0  0
    3.6543   -1.4374    0.7092 C   0  0  0  0  0  0  0  0  0  0  0  0
    4.6001   -2.5527    0.3014 C   0  0  0  0  0  0  0  0  0  0  0  0
    5.1459   -1.1779    0.5862 C   0  0  0  0  0  0  0  0  0  0  0  0
    3.3282    0.9907    2.3414 C   0  0  0  0  0  0  0  0  0  0  0  0
    2.8841    2.2683    3.1074 C   0  0  0  0  0  0  0  0  0  0  0  0
    2.2042    1.9934    4.4655 C   0  0  1  0  0  0  0  0  0  0  0  0
    3.1125    2.3875    5.5129 O   0  0  0  0  0  0  0  0  0  0  0  0
   -2.1767    4.3644   11.3628 H   0  0  0  0  0  0  0  0  0  0  0  0
   -3.3869    4.5029   10.0869 H   0  0  0  0  0  0  0  0  0  0  0  0
   -1.7071    4.9025    9.7514 H   0  0  0  0  0  0  0  0  0  0  0  0
   -1.0638    2.4807   10.0922 H   0  0  0  0  0  0  0  0  0  0  0  0
   -2.7394    2.1039   10.4934 H   0  0  0  0  0  0  0  0  0  0  0  0
   -2.5983    4.3155    5.2799 H   0  0  0  0  0  0  0  0  0  0  0  0
   -2.0767    3.4584    3.0285 H   0  0  0  0  0  0  0  0  0  0  0  0
    1.5574    2.3798    7.7006 H   0  0  0  0  0  0  0  0  0  0  0  0
    0.2394    1.2870    7.6317 H   0  0  0  0  0  0  0  0  0  0  0  0
    2.2662   -1.1746    6.8200 H   0  0  0  0  0  0  0  0  0  0  0  0
    3.8540    1.2737    7.2467 H   0  0  0  0  0  0  0  0  0  0  0  0
    4.4802    0.3858    4.7342 H   0  0  0  0  0  0  0  0  0  0  0  0
    3.6862   -0.8950    5.7377 H   0  0  0  0  0  0  0  0  0  0  0  0
    1.5117   -1.2778    4.0169 H   0  0  0  0  0  0  0  0  0  0  0  0
   -0.1462   -0.6031    2.5058 H   0  0  0  0  0  0  0  0  0  0  0  0
   -0.5928   -0.0257    4.0631 H   0  0  0  0  0  0  0  0  0  0  0  0
   -1.0292    1.4952    2.0705 H   0  0  0  0  0  0  0  0  0  0  0  0
    0.6441    1.7327    1.7792 H   0  0  0  0  0  0  0  0  0  0  0  0
    3.7280   -1.7626    2.8290 H   0  0  0  0  0  0  0  0  0  0  0  0
    2.2239   -2.2285    2.0501 H   0  0  0  0  0  0  0  0  0  0  0  0
    3.0175   -1.0591   -0.0922 H   0  0  0  0  0  0  0  0  0  0  0  0
    4.8034   -3.3373    1.0272 H   0  0  0  0  0  0  0  0  0  0  0  0
    4.5923   -2.8697   -0.7403 H   0  0  0  0  0  0  0  0  0  0  0  0
    5.4704   -0.5725   -0.2588 H   0  0  0  0  0  0  0  0  0  0  0  0
    5.7031   -1.0325    1.5103 H   0  0  0  0  0  0  0  0  0  0  0  0
    4.3115    0.6744    2.6840 H   0  0  0  0  0  0  0  0  0  0  0  0
    3.4582    1.2467    1.2894 H   0  0  0  0  0  0  0  0  0  0  0  0
    3.7656    2.8739    3.3082 H   0  0  0  0  0  0  0  0  0  0  0  0
    2.2792    2.9175    2.4765 H   0  0  0  0  0  0  0  0  0  0  0  0
    1.7058    0.0166    1.7048 H   0  0  0  0  0  0  0  0  0  0  0  0
  1  2  1  0
  1 31  1  0
  1 32  1  0
  1 33  1  0
  2  3  1  0
  2 34  1  0
  2 35  1  0
  3  4  2  0
  3  5  2  0
  3  6  1  0
  6  7  1  0
  7 12  2  0
  7  8  1  0
  8  9  2  0
  8 36  1  0
  9 10  1  0
  9 37  1  0
 10 21  1  0
 10 11  2  0
 11 29  1  0
 11 12  1  0
 12 13  1  0
 13 14  1  0
 13 38  1  0
 13 39  1  0
 14 18  1  0
 14 15  1  1
 14 16  1  0
 15 40  1  0
 16 30  1  0
 16 17  1  0
 16 41  1  1
 18 17  1  1
 17 42  1  0
 17 43  1  0
 18 29  1  0
 18 19  1  0
 19 20  1  0
 19 22  1  0
 19 44  1  1
 20 21  1  0
 20 45  1  0
 20 46  1  0
 21 47  1  0
 21 48  1  0
 22 23  1  0
 22 27  1  0
 22 60  1  6
 23 24  1  0
 23 49  1  0
 23 50  1  0
 24 26  1  0
 24 25  1  0
 24 51  1  0
 25 26  1  0
 25 52  1  0
 25 53  1  0
 26 54  1  0
 26 55  1  0
 27 28  1  0
 27 56  1  0
 27 57  1  0
 29 28  1  6
 28 58  1  0
 28 59  1  0
 29 30  1  0
M  CHG  1  22   1
M  END
>  <i_m_ct_stereo_status>  (258) 
1

>  <s_m_source_file>  (258) 
/var/tmp/pbs.5076255.sched01/tmpagfdxo7m/88tnrj_5ym.sdf

>  <i_m_source_file_index>  (258) 
18

>  <i_lp_mmshare_version>  (258) 
48012

>  <i_f3d_flags>  (258) 
0

>  <s_epik_input>  (258) 
W0NIMl0xW0NASF0oTzIpW0NAQF0zKFtPSF0pW0NIMl1jNGMoT1MoPU8pKD1PKVtDSDJdW0NIM10pW2NIXVtjSF1jKGM0W0NAXTI1W0NAQF0xMzYpW0NIMl1bQ0gyXVtDQEhdNk4oW0NIMl1bQ0gyXTUpW0NIMl1bQ0hdN1tDSDJdW0NIMl03

>  <s_epik_cmdline>  (258) 
J2VwaWtfcHl0aG9uJywgJy1waHQnLCAnMi4wJywgJy1waCcsICc3LjAnLCAnLXRuJywgJzgnLCAnLW1hJywgJzIwMCcsICctaW1hZScsICc8aW5maWxlLm1hZT4nLCAnLW9tYWUnLCAnPG91dGZpbGUubWFlPic=

>  <r_epik_Ionization_Penalty>  (258) 
0.00570937

>  <r_epik_Ionization_Penalty_Charging>  (258) 
0.00570918

>  <r_epik_Ionization_Penalty_Neutral>  (258) 
1.88461e-07

>  <r_epik_State_Penalty>  (258) 
0.00418824

>  <r_epik_Charging_Adjusted_Penalty>  (258) 
0.00989742

>  <i_epik_Tot_Q>  (258) 
1

>  <i_epik_Tot_abs_Q>  (258) 
1

>  <s_lp_Force_Field>  (258) 
OPLS3e

>  <r_lp_Energy>  (258) 
113.093

>  <b_lp_Chiralities_Consistent>  (258) 
1

>  <s_lp_Variant>  (258) 
74:0-1

>  <s_i_glide_gridfile>  (258) 
pfpi4k_grid

>  <i_i_glide_lignum>  (258) 
18

>  <i_i_glide_rotatable_bonds>  (258) 
6

>  <r_i_docking_score>  (258) 
-2.56672

>  <r_i_glide_ligand_efficiency>  (258) 
-0.0855572

>  <r_i_glide_ligand_efficiency_sa>  (258) 
-0.265846

>  <r_i_glide_ligand_efficiency_ln>  (258) 
-0.583186

>  <r_i_glide_gscore>  (258) 
-2.56672

>  <r_i_glide_lipo>  (258) 
-0.117687

>  <r_i_glide_hbond>  (258) 
0

>  <r_i_glide_metal>  (258) 
-0

>  <r_i_glide_rewards>  (258) 
-0.492734

>  <r_i_glide_evdw>  (258) 
-18.4182

>  <r_i_glide_ecoul>  (258) 
-8.99226

>  <r_i_glide_erotb>  (258) 
0.425424

>  <r_i_glide_esite>  (258) 
-0.111972

>  <r_i_glide_emodel>  (258) 
-32.1323

>  <r_i_glide_energy>  (258) 
-27.4104

>  <r_i_glide_einternal>  (258) 
1.59099

>  <r_i_glide_intrahb_reward>  (258) 
-0

>  <i_i_glide_confnum>  (258) 
1

>  <i_i_glide_posenum>  (258) 
11

>  <r_i_glide_eff_state_penalty>  (258) 
0

>  <ligand_id>  (258) 
74

>  <original_smiles>  (258) 
CCS(=O)(=O)Oc1ccc2c3c1CC1(O)C4CC15C(CC2)N(CC1CC1)CCC35O4

>  <smiles>  (258) 
[H]OC12C([H])([H])c3c(OS(=O)(=O)C([H])([H])C([H])([H])[H])c([H])c([H])c4c3C35OC1([H])C([H])([H])C32C([H])(C([H])([H])C4([H])[H])[N+]([H])(C([H])([H])C1([H])C([H])([H])C1([H])[H])C([H])([H])C5([H])[H]

$$$$
75:0:0
     RDKit          3D

 74 81  0  0  1  0  0  0  0  0999 V2000
    7.3166   -5.3963    0.6508 C   0  0  0  0  0  0  0  0  0  0  0  0
    6.1202   -4.4251    0.6333 C   0  0  2  0  0  0  0  0  0  0  0  0
    6.6097   -3.0128    0.4357 C   0  0  0  0  0  0  0  0  0  0  0  0
    6.1448   -2.3157    1.6674 C   0  0  1  0  0  0  0  0  0  0  0  0
    4.7515   -1.8112    1.7152 C   0  0  1  0  0  0  0  0  0  0  0  0
    4.9688   -0.2708    1.7307 C   0  0  0  0  0  0  0  0  0  0  0  0
    3.3906   -1.9967    1.0313 C   0  0  1  0  0  0  0  0  0  0  0  0
    3.2823   -2.9823   -0.1649 C   0  0  0  0  0  0  0  0  0  0  0  0
    2.1188   -1.9163    1.9941 C   0  0  0  0  0  0  0  0  0  0  0  0
    2.0230   -1.5442    3.5387 C   0  0  0  0  0  0  0  0  0  0  0  0
    2.4240   -2.3644    4.8674 C   0  0  1  0  0  0  0  0  0  0  0  0
    2.5931   -1.1062    5.6389 O   0  0  0  0  0  0  0  0  0  0  0  0
    3.1994   -2.0602    6.3160 C   0  0  2  0  0  0  0  0  0  0  0  0
    4.7871   -2.1287    6.4649 C   0  0  0  0  0  0  0  0  0  0  0  0
    5.3233   -1.7396    7.4924 O   0  0  0  0  0  0  0  0  0  0  0  0
    5.5035   -2.8285    5.3414 O   0  0  0  0  0  0  0  0  0  0  0  0
    4.7354   -2.8397    4.1613 C   0  0  2  0  0  0  0  0  0  0  0  0
    4.6632   -1.4263    4.0774 O   0  0  0  0  0  0  0  0  0  0  0  0
    3.3417   -3.6244    4.6150 C   0  0  1  0  0  0  0  0  0  0  0  0
    3.3954   -4.5511    5.9958 C   0  0  0  0  0  0  0  0  0  0  0  0
    2.9248   -4.9263    3.7584 C   0  0  1  0  0  0  0  0  0  0  0  0
    2.0093   -4.8925    2.5348 C   0  0  0  0  0  0  0  0  0  0  0  0
    1.7453   -6.2373    1.8065 C   0  0  1  0  0  0  0  0  0  0  0  0
    1.3496   -5.9297    0.4805 O   0  0  0  0  0  0  0  0  0  0  0  0
    2.9505   -7.2284    1.8227 C   0  0  1  0  0  0  0  0  0  0  0  0
    4.2262   -6.6380    1.1859 C   0  0  0  0  0  0  0  0  0  0  0  0
    4.6926   -5.6352    2.2309 C   0  0  0  0  0  0  0  0  0  0  0  0
    5.3072   -4.4646    1.9368 C   0  0  0  0  0  0  0  0  0  0  0  0
    5.2688   -3.0888    2.6264 C   0  0  2  0  0  0  0  0  0  0  0  0
    4.0653   -6.0141    3.5385 C   0  0  1  0  0  0  0  0  0  0  0  0
    5.2570   -6.1649    4.5377 C   0  0  0  0  0  0  0  0  0  0  0  0
    3.4267   -7.4394    3.2695 C   0  0  0  0  0  0  0  0  0  0  0  0
    2.3051   -7.9016    4.2468 C   0  0  0  0  0  0  0  0  0  0  0  0
    4.4378   -8.6287    3.3160 C   0  0  0  0  0  0  0  0  0  0  0  0
    6.9956   -6.4364    0.7047 H   0  0  0  0  0  0  0  0  0  0  0  0
    7.9874   -5.2028    1.4935 H   0  0  0  0  0  0  0  0  0  0  0  0
    7.9117   -5.2872   -0.2574 H   0  0  0  0  0  0  0  0  0  0  0  0
    5.4942   -4.6713   -0.2156 H   0  0  0  0  0  0  0  0  0  0  0  0
    7.6967   -2.9389    0.3521 H   0  0  0  0  0  0  0  0  0  0  0  0
    6.1836   -2.5317   -0.4449 H   0  0  0  0  0  0  0  0  0  0  0  0
    6.9138   -1.6870    2.0990 H   0  0  0  0  0  0  0  0  0  0  0  0
    4.0594    0.2640    2.0174 H   0  0  0  0  0  0  0  0  0  0  0  0
    5.2750    0.0777    0.7464 H   0  0  0  0  0  0  0  0  0  0  0  0
    5.7364    0.0396    2.4430 H   0  0  0  0  0  0  0  0  0  0  0  0
    3.2728   -1.0893    0.4332 H   0  0  0  0  0  0  0  0  0  0  0  0
    3.4380   -4.0293    0.0640 H   0  0  0  0  0  0  0  0  0  0  0  0
    3.9873   -2.7332   -0.9566 H   0  0  0  0  0  0  0  0  0  0  0  0
    2.2882   -2.9151   -0.6144 H   0  0  0  0  0  0  0  0  0  0  0  0
    1.6081   -1.0505    1.5721 H   0  0  0  0  0  0  0  0  0  0  0  0
    1.3859   -2.6478    1.7252 H   0  0  0  0  0  0  0  0  0  0  0  0
    2.4432   -0.5388    3.5917 H   0  0  0  0  0  0  0  0  0  0  0  0
    0.9645   -1.3408    3.6964 H   0  0  0  0  0  0  0  0  0  0  0  0
    2.6616   -2.2940    7.2350 H   0  0  0  0  0  0  0  0  0  0  0  0
    3.9052   -1.2080    3.5507 H   0  0  0  0  0  0  0  0  0  0  0  0
    3.2311   -5.6254    5.9491 H   0  0  0  0  0  0  0  0  0  0  0  0
    2.6013   -4.3254    6.7104 H   0  0  0  0  0  0  0  0  0  0  0  0
    4.3358   -4.5644    6.5422 H   0  0  0  0  0  0  0  0  0  0  0  0
    2.1265   -5.3639    4.3529 H   0  0  0  0  0  0  0  0  0  0  0  0
    1.0606   -4.4247    2.7962 H   0  0  0  0  0  0  0  0  0  0  0  0
    2.5297   -4.2978    1.8296 H   0  0  0  0  0  0  0  0  0  0  0  0
    0.8826   -6.7232    2.2578 H   0  0  0  0  0  0  0  0  0  0  0  0
    2.1298   -5.7296   -0.0188 H   0  0  0  0  0  0  0  0  0  0  0  0
    2.6690   -8.1698    1.3430 H   0  0  0  0  0  0  0  0  0  0  0  0
    4.9832   -7.3992    1.0180 H   0  0  0  0  0  0  0  0  0  0  0  0
    4.0240   -6.1954    0.2141 H   0  0  0  0  0  0  0  0  0  0  0  0
    4.9901   -6.7015    5.4475 H   0  0  0  0  0  0  0  0  0  0  0  0
    5.7170   -5.2237    4.8139 H   0  0  0  0  0  0  0  0  0  0  0  0
    6.0767   -6.7300    4.0972 H   0  0  0  0  0  0  0  0  0  0  0  0
    2.6662   -7.9284    5.2763 H   0  0  0  0  0  0  0  0  0  0  0  0
    1.9831   -8.9161    4.0007 H   0  0  0  0  0  0  0  0  0  0  0  0
    1.3968   -7.3030    4.2472 H   0  0  0  0  0  0  0  0  0  0  0  0
    4.6797   -8.9091    4.3430 H   0  0  0  0  0  0  0  0  0  0  0  0
    5.3896   -8.4384    2.8212 H   0  0  0  0  0  0  0  0  0  0  0  0
    4.0126   -9.5172    2.8451 H   0  0  0  0  0  0  0  0  0  0  0  0
  1  2  1  0
  1 35  1  0
  1 36  1  0
  1 37  1  0
  2 28  1  0
  2  3  1  0
  2 38  1  6
  3  4  1  0
  3 39  1  0
  3 40  1  0
  4 29  1  0
  4  5  1  0
  4 41  1  1
  5 29  1  0
  5  6  1  1
  5  7  1  0
  6 42  1  0
  6 43  1  0
  6 44  1  0
  7  8  1  0
  7  9  1  0
  7 45  1  6
  8 46  1  0
  8 47  1  0
  8 48  1  0
  9 10  1  0
  9 49  1  0
  9 50  1  0
 10 11  1  0
 10 51  1  0
 10 52  1  0
 11 13  1  0
 11 19  1  0
 11 12  1  1
 12 13  1  0
 13 14  1  0
 13 53  1  1
 14 15  2  0
 14 16  1  0
 16 17  1  0
 17 29  1  0
 17 18  1  6
 17 19  1  0
 18 54  1  0
 19 20  1  1
 19 21  1  0
 20 55  1  0
 20 56  1  0
 20 57  1  0
 21 30  1  0
 21 22  1  0
 21 58  1  1
 22 23  1  0
 22 59  1  0
 22 60  1  0
 23 24  1  0
 23 25  1  0
 23 61  1  1
 24 62  1  0
 25 32  1  0
 25 26  1  0
 25 63  1  6
 26 27  1  0
 26 64  1  0
 26 65  1  0
 27 28  2  0
 27 30  1  0
 29 28  1  6
 30 31  1  1
 30 32  1  0
 31 66  1  0
 31 67  1  0
 31 68  1  0
 32 33  1  0
 32 34  1  0
 33 69  1  0
 33 70  1  0
 33 71  1  0
 34 72  1  0
 34 73  1  0
 34 74  1  0
M  END
>  <i_m_ct_stereo_status>  (259) 
1

>  <s_m_source_file>  (259) 
/var/tmp/pbs.5076255.sched01/tmpagfdxo7m/88tnrj_5ym.sdf

>  <i_m_source_file_index>  (259) 
19

>  <i_lp_mmshare_version>  (259) 
48012

>  <i_f3d_flags>  (259) 
0

>  <s_epik_input>  (259) 
W0NAQF0xMjNbQ0BIXShPMilDKD1PKU9bQ0BAXTQoW09IXSlbQ0BdNTZbQ0BIXShbQ0BAXTUoW0NIM10pW0NAQEhdKFtDSDNdKVtDSDJdW0NIMl0xKVtDSDJdW0NAQEhdKFtDSDNdKUM2PUM3W0NAQF04KFtDSDNdKVtDQEBIXShbQ0BdMzRbQ0gzXSlbQ0gyXVtDQEBIXShbT0hdKVtDQEBIXShbQ0gyXTcpQzgoW0NIM10pW0NIM10=

>  <s_epik_cmdline>  (259) 
J2VwaWtfcHl0aG9uJywgJy1waHQnLCAnMi4wJywgJy1waCcsICc3LjAnLCAnLXRuJywgJzgnLCAnLW1hJywgJzIwMCcsICctaW1hZScsICc8aW5maWxlLm1hZT4nLCAnLW9tYWUnLCAnPG91dGZpbGUubWFlPic=

>  <r_lp_tautomer_probability>  (259) 
1

>  <r_epik_Ionization_Penalty>  (259) 
3.24513e-06

>  <r_epik_Ionization_Penalty_Charging>  (259) 
0

>  <r_epik_Ionization_Penalty_Neutral>  (259) 
3.24513e-06

>  <r_epik_State_Penalty>  (259) 
-0

>  <r_epik_Charging_Adjusted_Penalty>  (259) 
0

>  <i_epik_Tot_Q>  (259) 
0

>  <i_epik_Tot_abs_Q>  (259) 
0

>  <s_epik_Chemistry_Notes>  (259) 
This compound has an ester and may undergo hydrolysis at high or low pH.

>  <s_lp_Force_Field>  (259) 
OPLS3e

>  <r_lp_Energy>  (259) 
383.003

>  <b_lp_Chiralities_Consistent>  (259) 
1

>  <s_lp_Variant>  (259) 
75:0-1

>  <s_i_glide_gridfile>  (259) 
pfpi4k_grid

>  <i_i_glide_lignum>  (259) 
19

>  <i_i_glide_rotatable_bonds>  (259) 
2

>  <r_i_docking_score>  (259) 
-3.1745

>  <r_i_glide_ligand_efficiency>  (259) 
-0.0933677

>  <r_i_glide_ligand_efficiency_sa>  (259) 
-0.302475

>  <r_i_glide_ligand_efficiency_ln>  (259) 
-0.701337

>  <r_i_glide_gscore>  (259) 
-3.1745

>  <r_i_glide_lipo>  (259) 
-0.775024

>  <r_i_glide_hbond>  (259) 
-0.16

>  <r_i_glide_metal>  (259) 
-0

>  <r_i_glide_rewards>  (259) 
-0.252511

>  <r_i_glide_evdw>  (259) 
-22.6367

>  <r_i_glide_ecoul>  (259) 
-5.70087

>  <r_i_glide_erotb>  (259) 
0

>  <r_i_glide_esite>  (259) 
0

>  <r_i_glide_emodel>  (259) 
-33.0226

>  <r_i_glide_energy>  (259) 
-28.3376

>  <r_i_glide_einternal>  (259) 
1.64805

>  <r_i_glide_intrahb_reward>  (259) 
-0

>  <i_i_glide_confnum>  (259) 
2

>  <i_i_glide_posenum>  (259) 
33

>  <r_i_glide_eff_state_penalty>  (259) 
0

>  <ligand_id>  (259) 
75

>  <original_smiles>  (259) 
CC1CC2C3(C)C(C)CCC45OC4C(=O)OC4(O)C5(C)C5CC(O)C6CC(=C1C234)C5(C)C6(C)C

>  <smiles>  (259) 
[H]OC1([H])C([H])([H])C2([H])C3(C([H])([H])[H])C(=C4C([H])(C([H])([H])[H])C([H])([H])C5([H])C46C4(O[H])OC(=O)C7([H])OC7(C([H])([H])C([H])([H])C([H])(C([H])([H])[H])C56C([H])([H])[H])C42C([H])([H])[H])C([H])([H])C1([H])C3(C([H])([H])[H])C([H])([H])[H]

$$$$
75:0:1
     RDKit          3D

 74 81  0  0  1  0  0  0  0  0999 V2000
    2.6330   -0.8390    2.6871 C   0  0  0  0  0  0  0  0  0  0  0  0
    1.3753   -0.2656    3.3614 C   0  0  2  0  0  0  0  0  0  0  0  0
    0.4182    0.2503    2.3215 C   0  0  0  0  0  0  0  0  0  0  0  0
    0.2654    1.6885    2.6516 C   0  0  1  0  0  0  0  0  0  0  0  0
   -0.7186    2.0514    3.7150 C   0  0  1  0  0  0  0  0  0  0  0  0
   -1.8108    2.8006    2.8995 C   0  0  0  0  0  0  0  0  0  0  0  0
   -1.4756    1.4493    4.9189 C   0  0  1  0  0  0  0  0  0  0  0  0
   -1.3392   -0.0664    5.2103 C   0  0  0  0  0  0  0  0  0  0  0  0
   -1.6409    2.3947    6.2070 C   0  0  0  0  0  0  0  0  0  0  0  0
   -1.2304    3.9275    6.3620 C   0  0  0  0  0  0  0  0  0  0  0  0
    0.1978    4.6670    6.5251 C   0  0  1  0  0  0  0  0  0  0  0  0
   -0.3464    5.9424    5.9866 O   0  0  0  0  0  0  0  0  0  0  0  0
    0.9687    6.0302    5.9298 C   0  0  2  0  0  0  0  0  0  0  0  0
    1.7789    6.0209    4.5533 C   0  0  0  0  0  0  0  0  0  0  0  0
    2.2223    7.0626    4.0902 O   0  0  0  0  0  0  0  0  0  0  0  0
    2.0898    4.6580    3.9971 O   0  0  0  0  0  0  0  0  0  0  0  0
    1.2202    3.6786    4.5152 C   0  0  2  0  0  0  0  0  0  0  0  0
    0.0504    4.3049    3.9921 O   0  0  0  0  0  0  0  0  0  0  0  0
    1.4424    3.7739    6.1590 C   0  0  1  0  0  0  0  0  0  0  0  0
    2.8271    4.5158    6.7055 C   0  0  0  0  0  0  0  0  0  0  0  0
    1.8550    2.4175    6.9298 C   0  0  1  0  0  0  0  0  0  0  0  0
    0.8567    1.4330    7.5548 C   0  0  0  0  0  0  0  0  0  0  0  0
    1.4477    0.1593    8.2204 C   0  0  1  0  0  0  0  0  0  0  0  0
    0.4476   -0.8445    8.2494 O   0  0  0  0  0  0  0  0  0  0  0  0
    2.7395   -0.3899    7.5349 C   0  0  1  0  0  0  0  0  0  0  0  0
    2.5281   -0.7383    6.0476 C   0  0  0  0  0  0  0  0  0  0  0  0
    2.4487    0.6281    5.3898 C   0  0  0  0  0  0  0  0  0  0  0  0
    1.6718    0.9038    4.3136 C   0  0  0  0  0  0  0  0  0  0  0  0
    0.9153    2.1851    3.9057 C   0  0  2  0  0  0  0  0  0  0  0  0
    3.0848    1.6186    6.3159 C   0  0  1  0  0  0  0  0  0  0  0  0
    4.1811    2.3280    5.4598 C   0  0  0  0  0  0  0  0  0  0  0  0
    3.7872    0.7283    7.4220 C   0  0  0  0  0  0  0  0  0  0  0  0
    4.1216    1.4227    8.7713 C   0  0  0  0  0  0  0  0  0  0  0  0
    5.1587    0.1142    6.9936 C   0  0  0  0  0  0  0  0  0  0  0  0
    3.3315   -1.2644    3.4075 H   0  0  0  0  0  0  0  0  0  0  0  0
    3.1603   -0.0688    2.1165 H   0  0  0  0  0  0  0  0  0  0  0  0
    2.3620   -1.6391    1.9948 H   0  0  0  0  0  0  0  0  0  0  0  0
    0.8844   -1.0711    3.8902 H   0  0  0  0  0  0  0  0  0  0  0  0
    0.7698    0.1235    1.2949 H   0  0  0  0  0  0  0  0  0  0  0  0
   -0.5528   -0.2330    2.3985 H   0  0  0  0  0  0  0  0  0  0  0  0
    0.3767    2.3349    1.7835 H   0  0  0  0  0  0  0  0  0  0  0  0
   -2.4777    3.3754    3.5465 H   0  0  0  0  0  0  0  0  0  0  0  0
   -2.4119    2.1007    2.3242 H   0  0  0  0  0  0  0  0  0  0  0  0
   -1.3978    3.5124    2.1859 H   0  0  0  0  0  0  0  0  0  0  0  0
   -2.5019    1.3948    4.5470 H   0  0  0  0  0  0  0  0  0  0  0  0
   -0.3581   -0.3898    5.5337 H   0  0  0  0  0  0  0  0  0  0  0  0
   -1.5962   -0.6698    4.3407 H   0  0  0  0  0  0  0  0  0  0  0  0
   -2.0296   -0.3519    6.0026 H   0  0  0  0  0  0  0  0  0  0  0  0
   -2.7249    2.5079    6.2197 H   0  0  0  0  0  0  0  0  0  0  0  0
   -1.5769    1.8459    7.1405 H   0  0  0  0  0  0  0  0  0  0  0  0
   -1.7753    4.4103    5.5526 H   0  0  0  0  0  0  0  0  0  0  0  0
   -1.7762    4.2632    7.2419 H   0  0  0  0  0  0  0  0  0  0  0  0
    1.3530    6.7428    6.6484 H   0  0  0  0  0  0  0  0  0  0  0  0
    0.1058    4.2834    3.0427 H   0  0  0  0  0  0  0  0  0  0  0  0
    3.5588    3.9553    7.2833 H   0  0  0  0  0  0  0  0  0  0  0  0
    2.6460    5.2982    7.4416 H   0  0  0  0  0  0  0  0  0  0  0  0
    3.4959    4.9172    5.9502 H   0  0  0  0  0  0  0  0  0  0  0  0
    2.1306    2.7727    7.9180 H   0  0  0  0  0  0  0  0  0  0  0  0
    0.2105    1.9482    8.2644 H   0  0  0  0  0  0  0  0  0  0  0  0
    0.2866    1.0698    6.7413 H   0  0  0  0  0  0  0  0  0  0  0  0
    1.6628    0.3717    9.2663 H   0  0  0  0  0  0  0  0  0  0  0  0
    0.8264   -1.6135    8.6484 H   0  0  0  0  0  0  0  0  0  0  0  0
    3.1197   -1.2498    8.0902 H   0  0  0  0  0  0  0  0  0  0  0  0
    3.3580   -1.3142    5.6473 H   0  0  0  0  0  0  0  0  0  0  0  0
    1.6390   -1.3467    5.9036 H   0  0  0  0  0  0  0  0  0  0  0  0
    4.9095    2.8708    6.0589 H   0  0  0  0  0  0  0  0  0  0  0  0
    3.7826    2.9971    4.7046 H   0  0  0  0  0  0  0  0  0  0  0  0
    4.7567    1.6091    4.8765 H   0  0  0  0  0  0  0  0  0  0  0  0
    4.7794    2.2797    8.6180 H   0  0  0  0  0  0  0  0  0  0  0  0
    4.6476    0.7320    9.4330 H   0  0  0  0  0  0  0  0  0  0  0  0
    3.2696    1.7795    9.3455 H   0  0  0  0  0  0  0  0  0  0  0  0
    5.9634    0.8494    7.0503 H   0  0  0  0  0  0  0  0  0  0  0  0
    5.1838   -0.2883    5.9819 H   0  0  0  0  0  0  0  0  0  0  0  0
    5.4395   -0.7028    7.6606 H   0  0  0  0  0  0  0  0  0  0  0  0
  1  2  1  0
  1 35  1  0
  1 36  1  0
  1 37  1  0
  2 28  1  0
  2  3  1  0
  2 38  1  1
  3  4  1  0
  3 39  1  0
  3 40  1  0
  4 29  1  0
  4  5  1  0
  4 41  1  6
  5 29  1  0
  5  6  1  6
  5  7  1  0
  6 42  1  0
  6 43  1  0
  6 44  1  0
  7  8  1  0
  7  9  1  0
  7 45  1  6
  8 46  1  0
  8 47  1  0
  8 48  1  0
  9 10  1  0
  9 49  1  0
  9 50  1  0
 10 11  1  0
 10 51  1  0
 10 52  1  0
 11 13  1  0
 11 19  1  0
 11 12  1  1
 12 13  1  0
 13 14  1  0
 13 53  1  1
 14 15  2  0
 14 16  1  0
 16 17  1  0
 17 29  1  0
 17 18  1  1
 17 19  1  0
 18 54  1  0
 19 20  1  6
 19 21  1  0
 20 55  1  0
 20 56  1  0
 20 57  1  0
 21 30  1  0
 21 22  1  0
 21 58  1  1
 22 23  1  0
 22 59  1  0
 22 60  1  0
 23 24  1  0
 23 25  1  0
 23 61  1  1
 24 62  1  0
 25 32  1  0
 25 26  1  0
 25 63  1  1
 26 27  1  0
 26 64  1  0
 26 65  1  0
 27 28  2  0
 27 30  1  0
 29 28  1  1
 30 31  1  6
 30 32  1  0
 31 66  1  0
 31 67  1  0
 31 68  1  0
 32 33  1  0
 32 34  1  0
 33 69  1  0
 33 70  1  0
 33 71  1  0
 34 72  1  0
 34 73  1  0
 34 74  1  0
M  END
>  <i_m_ct_stereo_status>  (260) 
1

>  <s_m_source_file>  (260) 
/var/tmp/pbs.5076255.sched01/tmpagfdxo7m/88tnrj_5ym.sdf

>  <i_m_source_file_index>  (260) 
19

>  <i_lp_mmshare_version>  (260) 
48012

>  <i_f3d_flags>  (260) 
0

>  <s_epik_input>  (260) 
W0NAQF0xMjNbQ0BIXShPMilDKD1PKU9bQ0BAXTQoW09IXSlbQ0BdNTZbQ0BIXShbQ0BAXTUoW0NIM10pW0NAQEhdKFtDSDNdKVtDSDJdW0NIMl0xKVtDSDJdW0NAQEhdKFtDSDNdKUM2PUM3W0NAQF04KFtDSDNdKVtDQEBIXShbQ0BdMzRbQ0gzXSlbQ0gyXVtDQEBIXShbT0hdKVtDQEBIXShbQ0gyXTcpQzgoW0NIM10pW0NIM10=

>  <s_epik_cmdline>  (260) 
J2VwaWtfcHl0aG9uJywgJy1waHQnLCAnMi4wJywgJy1waCcsICc3LjAnLCAnLXRuJywgJzgnLCAnLW1hJywgJzIwMCcsICctaW1hZScsICc8aW5maWxlLm1hZT4nLCAnLW9tYWUnLCAnPG91dGZpbGUubWFlPic=

>  <r_lp_tautomer_probability>  (260) 
1

>  <r_epik_Ionization_Penalty>  (260) 
3.24513e-06

>  <r_epik_Ionization_Penalty_Charging>  (260) 
0

>  <r_epik_Ionization_Penalty_Neutral>  (260) 
3.24513e-06

>  <r_epik_State_Penalty>  (260) 
-0

>  <r_epik_Charging_Adjusted_Penalty>  (260) 
0

>  <i_epik_Tot_Q>  (260) 
0

>  <i_epik_Tot_abs_Q>  (260) 
0

>  <s_epik_Chemistry_Notes>  (260) 
This compound has an ester and may undergo hydrolysis at high or low pH.

>  <s_lp_Force_Field>  (260) 
OPLS3e

>  <r_lp_Energy>  (260) 
383.003

>  <b_lp_Chiralities_Consistent>  (260) 
1

>  <s_lp_Variant>  (260) 
75:0-1

>  <s_i_glide_gridfile>  (260) 
pfpi4k_grid

>  <i_i_glide_lignum>  (260) 
19

>  <i_i_glide_rotatable_bonds>  (260) 
2

>  <r_i_docking_score>  (260) 
-2.13681

>  <r_i_glide_ligand_efficiency>  (260) 
-0.0628475

>  <r_i_glide_ligand_efficiency_sa>  (260) 
-0.203601

>  <r_i_glide_ligand_efficiency_ln>  (260) 
-0.472082

>  <r_i_glide_gscore>  (260) 
-2.13681

>  <r_i_glide_lipo>  (260) 
-0.0269508

>  <r_i_glide_hbond>  (260) 
0

>  <r_i_glide_metal>  (260) 
-0

>  <r_i_glide_rewards>  (260) 
-0.213921

>  <r_i_glide_evdw>  (260) 
-24.7552

>  <r_i_glide_ecoul>  (260) 
-4.10281

>  <r_i_glide_erotb>  (260) 
0

>  <r_i_glide_esite>  (260) 
-0.0427612

>  <r_i_glide_emodel>  (260) 
-32.1591

>  <r_i_glide_energy>  (260) 
-28.858

>  <r_i_glide_einternal>  (260) 
0.364765

>  <r_i_glide_intrahb_reward>  (260) 
-0

>  <i_i_glide_confnum>  (260) 
1

>  <i_i_glide_posenum>  (260) 
13

>  <r_i_glide_eff_state_penalty>  (260) 
0

>  <ligand_id>  (260) 
75

>  <original_smiles>  (260) 
CC1CC2C3(C)C(C)CCC45OC4C(=O)OC4(O)C5(C)C5CC(O)C6CC(=C1C234)C5(C)C6(C)C

>  <smiles>  (260) 
[H]OC1([H])C([H])([H])C2([H])C3(C([H])([H])[H])C(=C4C([H])(C([H])([H])[H])C([H])([H])C5([H])C46C4(O[H])OC(=O)C7([H])OC7(C([H])([H])C([H])([H])C([H])(C([H])([H])[H])C56C([H])([H])[H])C42C([H])([H])[H])C([H])([H])C1([H])C3(C([H])([H])[H])C([H])([H])[H]

$$$$
75:0:2
     RDKit          3D

 74 81  0  0  1  0  0  0  0  0999 V2000
    1.2939   -1.0873    3.0289 C   0  0  0  0  0  0  0  0  0  0  0  0
    0.3842   -0.1034    3.7922 C   0  0  2  0  0  0  0  0  0  0  0  0
   -0.5769    0.5647    2.8400 C   0  0  0  0  0  0  0  0  0  0  0  0
   -0.2635    2.0082    2.9817 C   0  0  1  0  0  0  0  0  0  0  0  0
   -0.8939    2.7476    4.1094 C   0  0  1  0  0  0  0  0  0  0  0  0
   -1.8705    3.6975    3.3570 C   0  0  0  0  0  0  0  0  0  0  0  0
   -1.5520    2.5141    5.4889 C   0  0  1  0  0  0  0  0  0  0  0  0
   -1.7740    1.0573    5.9752 C   0  0  0  0  0  0  0  0  0  0  0  0
   -1.2055    3.5806    6.6365 C   0  0  0  0  0  0  0  0  0  0  0  0
   -0.3723    4.9350    6.5050 C   0  0  0  0  0  0  0  0  0  0  0  0
    1.2014    5.2305    6.3412 C   0  0  1  0  0  0  0  0  0  0  0  0
    0.9363    6.5514    5.7072 O   0  0  0  0  0  0  0  0  0  0  0  0
    2.1932    6.2392    5.4411 C   0  0  2  0  0  0  0  0  0  0  0  0
    2.7050    5.8478    3.9828 C   0  0  0  0  0  0  0  0  0  0  0  0
    3.3664    6.6620    3.3353 O   0  0  0  0  0  0  0  0  0  0  0  0
    2.5209    4.4145    3.5878 O   0  0  0  0  0  0  0  0  0  0  0  0
    1.5271    3.7940    4.3759 C   0  0  2  0  0  0  0  0  0  0  0  0
    0.5027    4.6824    3.9384 O   0  0  0  0  0  0  0  0  0  0  0  0
    2.0682    3.9784    5.9343 C   0  0  1  0  0  0  0  0  0  0  0  0
    3.6794    4.3296    6.1503 C   0  0  0  0  0  0  0  0  0  0  0  0
    2.2320    2.6419    6.8210 C   0  0  1  0  0  0  0  0  0  0  0  0
    1.1386    2.0608    7.7231 C   0  0  0  0  0  0  0  0  0  0  0  0
    1.4644    0.7349    8.4686 C   0  0  1  0  0  0  0  0  0  0  0  0
    0.2460    0.0844    8.7880 O   0  0  0  0  0  0  0  0  0  0  0  0
    2.4085   -0.2302    7.6865 C   0  0  1  0  0  0  0  0  0  0  0  0
    1.8401   -0.6425    6.3152 C   0  0  0  0  0  0  0  0  0  0  0  0
    2.0176    0.6166    5.4846 C   0  0  0  0  0  0  0  0  0  0  0  0
    1.1626    1.0099    4.5100 C   0  0  0  0  0  0  0  0  0  0  0  0
    0.7217    2.4074    4.0372 C   0  0  2  0  0  0  0  0  0  0  0  0
    3.0580    1.4608    6.1485 C   0  0  1  0  0  0  0  0  0  0  0  0
    4.1305    1.7292    5.0464 C   0  0  0  0  0  0  0  0  0  0  0  0
    3.6818    0.5169    7.2566 C   0  0  0  0  0  0  0  0  0  0  0  0
    4.4395    1.2085    8.4276 C   0  0  0  0  0  0  0  0  0  0  0  0
    4.7314   -0.5119    6.7249 C   0  0  0  0  0  0  0  0  0  0  0  0
    1.9703   -1.6287    3.6917 H   0  0  0  0  0  0  0  0  0  0  0  0
    1.8958   -0.5687    2.2770 H   0  0  0  0  0  0  0  0  0  0  0  0
    0.6929   -1.8395    2.5102 H   0  0  0  0  0  0  0  0  0  0  0  0
   -0.2001   -0.6805    4.5009 H   0  0  0  0  0  0  0  0  0  0  0  0
   -0.4466    0.2475    1.8034 H   0  0  0  0  0  0  0  0  0  0  0  0
   -1.6173    0.3865    3.1076 H   0  0  0  0  0  0  0  0  0  0  0  0
   -0.1327    2.5164    2.0352 H   0  0  0  0  0  0  0  0  0  0  0  0
   -2.2136    4.5007    4.0086 H   0  0  0  0  0  0  0  0  0  0  0  0
   -2.7344    3.1454    2.9931 H   0  0  0  0  0  0  0  0  0  0  0  0
   -1.4170    4.1802    2.4934 H   0  0  0  0  0  0  0  0  0  0  0  0
   -2.6065    2.7270    5.2947 H   0  0  0  0  0  0  0  0  0  0  0  0
   -0.8756    0.4951    6.1958 H   0  0  0  0  0  0  0  0  0  0  0  0
   -2.3313    0.4658    5.2476 H   0  0  0  0  0  0  0  0  0  0  0  0
   -2.3626    1.0665    6.8952 H   0  0  0  0  0  0  0  0  0  0  0  0
   -2.1969    4.0034    6.7992 H   0  0  0  0  0  0  0  0  0  0  0  0
   -1.1230    3.1284    7.6202 H   0  0  0  0  0  0  0  0  0  0  0  0
   -0.9046    5.4799    5.7278 H   0  0  0  0  0  0  0  0  0  0  0  0
   -0.6326    5.5005    7.3983 H   0  0  0  0  0  0  0  0  0  0  0  0
    2.8827    6.8775    5.9929 H   0  0  0  0  0  0  0  0  0  0  0  0
    0.3823    4.5655    3.0058 H   0  0  0  0  0  0  0  0  0  0  0  0
    4.3245    3.6384    6.6853 H   0  0  0  0  0  0  0  0  0  0  0  0
    3.8595    5.1995    6.7811 H   0  0  0  0  0  0  0  0  0  0  0  0
    4.2839    4.4404    5.2523 H   0  0  0  0  0  0  0  0  0  0  0  0
    2.7731    2.9963    7.6921 H   0  0  0  0  0  0  0  0  0  0  0  0
    0.7993    2.8111    8.4356 H   0  0  0  0  0  0  0  0  0  0  0  0
    0.3515    1.8072    7.0621 H   0  0  0  0  0  0  0  0  0  0  0  0
    1.9230    0.9699    9.4290 H   0  0  0  0  0  0  0  0  0  0  0  0
   -0.1604    0.5625    9.4991 H   0  0  0  0  0  0  0  0  0  0  0  0
    2.6304   -1.1057    8.3009 H   0  0  0  0  0  0  0  0  0  0  0  0
    2.3927   -1.4702    5.8837 H   0  0  0  0  0  0  0  0  0  0  0  0
    0.8083   -0.9715    6.3961 H   0  0  0  0  0  0  0  0  0  0  0  0
    5.0753    2.0885    5.4506 H   0  0  0  0  0  0  0  0  0  0  0  0
    3.8013    2.4120    4.2716 H   0  0  0  0  0  0  0  0  0  0  0  0
    4.3726    0.8220    4.4948 H   0  0  0  0  0  0  0  0  0  0  0  0
    5.2664    1.8128    8.0540 H   0  0  0  0  0  0  0  0  0  0  0  0
    4.8687    0.4589    9.0955 H   0  0  0  0  0  0  0  0  0  0  0  0
    3.8388    1.8525    9.0631 H   0  0  0  0  0  0  0  0  0  0  0  0
    5.7036   -0.0453    6.5531 H   0  0  0  0  0  0  0  0  0  0  0  0
    4.4590   -1.0013    5.7894 H   0  0  0  0  0  0  0  0  0  0  0  0
    4.8967   -1.3082    7.4541 H   0  0  0  0  0  0  0  0  0  0  0  0
  1  2  1  0
  1 35  1  0
  1 36  1  0
  1 37  1  0
  2 28  1  0
  2  3  1  0
  2 38  1  1
  3  4  1  0
  3 39  1  0
  3 40  1  0
  4 29  1  0
  4  5  1  0
  4 41  1  6
  5 29  1  0
  5  6  1  6
  5  7  1  0
  6 42  1  0
  6 43  1  0
  6 44  1  0
  7  8  1  0
  7  9  1  0
  7 45  1  6
  8 46  1  0
  8 47  1  0
  8 48  1  0
  9 10  1  0
  9 49  1  0
  9 50  1  0
 10 11  1  0
 10 51  1  0
 10 52  1  0
 11 13  1  0
 11 19  1  0
 11 12  1  1
 12 13  1  0
 13 14  1  0
 13 53  1  1
 14 15  2  0
 14 16  1  0
 16 17  1  0
 17 29  1  0
 17 18  1  1
 17 19  1  0
 18 54  1  0
 19 20  1  6
 19 21  1  0
 20 55  1  0
 20 56  1  0
 20 57  1  0
 21 30  1  0
 21 22  1  0
 21 58  1  1
 22 23  1  0
 22 59  1  0
 22 60  1  0
 23 24  1  0
 23 25  1  0
 23 61  1  1
 24 62  1  0
 25 32  1  0
 25 26  1  0
 25 63  1  1
 26 27  1  0
 26 64  1  0
 26 65  1  0
 27 28  2  0
 27 30  1  0
 29 28  1  1
 30 31  1  6
 30 32  1  0
 31 66  1  0
 31 67  1  0
 31 68  1  0
 32 33  1  0
 32 34  1  0
 33 69  1  0
 33 70  1  0
 33 71  1  0
 34 72  1  0
 34 73  1  0
 34 74  1  0
M  END
>  <i_m_ct_stereo_status>  (261) 
1

>  <s_m_source_file>  (261) 
/var/tmp/pbs.5076255.sched01/tmpagfdxo7m/88tnrj_5ym.sdf

>  <i_m_source_file_index>  (261) 
19

>  <i_lp_mmshare_version>  (261) 
48012

>  <i_f3d_flags>  (261) 
0

>  <s_epik_input>  (261) 
W0NAQF0xMjNbQ0BIXShPMilDKD1PKU9bQ0BAXTQoW09IXSlbQ0BdNTZbQ0BIXShbQ0BAXTUoW0NIM10pW0NAQEhdKFtDSDNdKVtDSDJdW0NIMl0xKVtDSDJdW0NAQEhdKFtDSDNdKUM2PUM3W0NAQF04KFtDSDNdKVtDQEBIXShbQ0BdMzRbQ0gzXSlbQ0gyXVtDQEBIXShbT0hdKVtDQEBIXShbQ0gyXTcpQzgoW0NIM10pW0NIM10=

>  <s_epik_cmdline>  (261) 
J2VwaWtfcHl0aG9uJywgJy1waHQnLCAnMi4wJywgJy1waCcsICc3LjAnLCAnLXRuJywgJzgnLCAnLW1hJywgJzIwMCcsICctaW1hZScsICc8aW5maWxlLm1hZT4nLCAnLW9tYWUnLCAnPG91dGZpbGUubWFlPic=

>  <r_lp_tautomer_probability>  (261) 
1

>  <r_epik_Ionization_Penalty>  (261) 
3.24513e-06

>  <r_epik_Ionization_Penalty_Charging>  (261) 
0

>  <r_epik_Ionization_Penalty_Neutral>  (261) 
3.24513e-06

>  <r_epik_State_Penalty>  (261) 
-0

>  <r_epik_Charging_Adjusted_Penalty>  (261) 
0

>  <i_epik_Tot_Q>  (261) 
0

>  <i_epik_Tot_abs_Q>  (261) 
0

>  <s_epik_Chemistry_Notes>  (261) 
This compound has an ester and may undergo hydrolysis at high or low pH.

>  <s_lp_Force_Field>  (261) 
OPLS3e

>  <r_lp_Energy>  (261) 
383.003

>  <b_lp_Chiralities_Consistent>  (261) 
1

>  <s_lp_Variant>  (261) 
75:0-1

>  <s_i_glide_gridfile>  (261) 
pfpi4k_grid

>  <i_i_glide_lignum>  (261) 
19

>  <i_i_glide_rotatable_bonds>  (261) 
2

>  <r_i_docking_score>  (261) 
-2.06303

>  <r_i_glide_ligand_efficiency>  (261) 
-0.0606774

>  <r_i_glide_ligand_efficiency_sa>  (261) 
-0.196571

>  <r_i_glide_ligand_efficiency_ln>  (261) 
-0.455781

>  <r_i_glide_gscore>  (261) 
-2.06303

>  <r_i_glide_lipo>  (261) 
-0.043614

>  <r_i_glide_hbond>  (261) 
0

>  <r_i_glide_metal>  (261) 
-0

>  <r_i_glide_rewards>  (261) 
-0.213921

>  <r_i_glide_evdw>  (261) 
-26.2369

>  <r_i_glide_ecoul>  (261) 
-3.13132

>  <r_i_glide_erotb>  (261) 
0

>  <r_i_glide_esite>  (261) 
-0.0239511

>  <r_i_glide_emodel>  (261) 
-32.2746

>  <r_i_glide_energy>  (261) 
-29.3682

>  <r_i_glide_einternal>  (261) 
0.510086

>  <r_i_glide_intrahb_reward>  (261) 
-0

>  <i_i_glide_confnum>  (261) 
1

>  <i_i_glide_posenum>  (261) 
14

>  <r_i_glide_eff_state_penalty>  (261) 
0

>  <ligand_id>  (261) 
75

>  <original_smiles>  (261) 
CC1CC2C3(C)C(C)CCC45OC4C(=O)OC4(O)C5(C)C5CC(O)C6CC(=C1C234)C5(C)C6(C)C

>  <smiles>  (261) 
[H]OC1([H])C([H])([H])C2([H])C3(C([H])([H])[H])C(=C4C([H])(C([H])([H])[H])C([H])([H])C5([H])C46C4(O[H])OC(=O)C7([H])OC7(C([H])([H])C([H])([H])C([H])(C([H])([H])[H])C56C([H])([H])[H])C42C([H])([H])[H])C([H])([H])C1([H])C3(C([H])([H])[H])C([H])([H])[H]

$$$$
76:0:0
     RDKit          3D

 22 21  0  0  1  0  0  0  0  0999 V2000
    3.3260    0.6922   -5.7474 C   0  0  0  0  0  0  0  0  0  0  0  0
    2.6408   -0.1388   -4.6673 C   0  0  0  0  0  0  0  0  0  0  0  0
    3.5879   -1.1413   -3.9855 C   0  0  0  0  0  0  0  0  0  0  0  0
    2.8576   -2.0298   -2.9667 C   0  0  0  0  0  0  0  0  0  0  0  0
    3.8094   -2.8563   -2.0861 C   0  0  2  0  0  0  0  0  0  0  0  0
    4.4540   -3.8286   -2.8903 O   0  0  0  0  0  0  0  0  0  0  0  0
    3.0721   -3.5693   -0.9360 C   0  0  0  0  0  0  0  0  0  0  0  0
    2.6160   -2.6537    0.0429 O   0  0  0  0  0  0  0  0  0  0  0  0
    2.6143    1.3932   -6.1840 H   0  0  0  0  0  0  0  0  0  0  0  0
    3.7115    0.0665   -6.5506 H   0  0  0  0  0  0  0  0  0  0  0  0
    4.1464    1.2729   -5.3305 H   0  0  0  0  0  0  0  0  0  0  0  0
    2.2332    0.5395   -3.9191 H   0  0  0  0  0  0  0  0  0  0  0  0
    1.7888   -0.6557   -5.1043 H   0  0  0  0  0  0  0  0  0  0  0  0
    4.0658   -1.7853   -4.7184 H   0  0  0  0  0  0  0  0  0  0  0  0
    4.3866   -0.5852   -3.4922 H   0  0  0  0  0  0  0  0  0  0  0  0
    2.2722   -1.3803   -2.3192 H   0  0  0  0  0  0  0  0  0  0  0  0
    2.1385   -2.6789   -3.4721 H   0  0  0  0  0  0  0  0  0  0  0  0
    4.5827   -2.2117   -1.6667 H   0  0  0  0  0  0  0  0  0  0  0  0
    3.8955   -4.5953   -2.9203 H   0  0  0  0  0  0  0  0  0  0  0  0
    2.2326   -4.1566   -1.3098 H   0  0  0  0  0  0  0  0  0  0  0  0
    3.7534   -4.2584   -0.4393 H   0  0  0  0  0  0  0  0  0  0  0  0
    2.0105   -2.0177   -0.3480 H   0  0  0  0  0  0  0  0  0  0  0  0
  1  2  1  0
  1  9  1  0
  1 10  1  0
  1 11  1  0
  2  3  1  0
  2 12  1  0
  2 13  1  0
  3  4  1  0
  3 14  1  0
  3 15  1  0
  4  5  1  0
  4 16  1  0
  4 17  1  0
  5  6  1  0
  5  7  1  0
  5 18  1  1
  6 19  1  0
  7  8  1  0
  7 20  1  0
  7 21  1  0
  8 22  1  0
M  END
>  <i_m_ct_stereo_status>  (262) 
1

>  <s_m_source_file>  (262) 
/var/tmp/pbs.5076255.sched01/tmpagfdxo7m/88tnrj_5ym.sdf

>  <i_m_source_file_index>  (262) 
20

>  <i_lp_mmshare_version>  (262) 
48012

>  <i_f3d_flags>  (262) 
0

>  <s_epik_input>  (262) 
W0NIM11bQ0gyXVtDSDJdW0NIMl1bQ0BIXShbT0hdKVtDSDJdW09IXQ==

>  <s_epik_cmdline>  (262) 
J2VwaWtfcHl0aG9uJywgJy1waHQnLCAnMi4wJywgJy1waCcsICc3LjAnLCAnLXRuJywgJzgnLCAnLW1hJywgJzIwMCcsICctaW1hZScsICc8aW5maWxlLm1hZT4nLCAnLW9tYWUnLCAnPG91dGZpbGUubWFlPic=

>  <r_lp_tautomer_probability>  (262) 
1

>  <r_epik_Ionization_Penalty>  (262) 
4.54991e-07

>  <r_epik_Ionization_Penalty_Charging>  (262) 
0

>  <r_epik_Ionization_Penalty_Neutral>  (262) 
4.54991e-07

>  <r_epik_State_Penalty>  (262) 
-0

>  <r_epik_Charging_Adjusted_Penalty>  (262) 
0

>  <i_epik_Tot_Q>  (262) 
0

>  <i_epik_Tot_abs_Q>  (262) 
0

>  <s_lp_Force_Field>  (262) 
OPLS3e

>  <r_lp_Energy>  (262) 
1.99024

>  <b_lp_Chiralities_Consistent>  (262) 
1

>  <s_lp_Variant>  (262) 
76:0-1

>  <s_i_glide_gridfile>  (262) 
pfpi4k_grid

>  <i_i_glide_lignum>  (262) 
20

>  <i_i_glide_rotatable_bonds>  (262) 
6

>  <r_i_docking_score>  (262) 
-2.31977

>  <r_i_glide_ligand_efficiency>  (262) 
-0.289972

>  <r_i_glide_ligand_efficiency_sa>  (262) 
-0.579943

>  <r_i_glide_ligand_efficiency_ln>  (262) 
-0.753309

>  <r_i_glide_gscore>  (262) 
-2.31977

>  <r_i_glide_lipo>  (262) 
-0.56555

>  <r_i_glide_hbond>  (262) 
-0.456

>  <r_i_glide_metal>  (262) 
-0

>  <r_i_glide_rewards>  (262) 
-2.3

>  <r_i_glide_evdw>  (262) 
-11.6162

>  <r_i_glide_ecoul>  (262) 
-8.45452

>  <r_i_glide_erotb>  (262) 
2.85077

>  <r_i_glide_esite>  (262) 
0

>  <r_i_glide_emodel>  (262) 
-22.6923

>  <r_i_glide_energy>  (262) 
-20.0707

>  <r_i_glide_einternal>  (262) 
1.12317

>  <r_i_glide_intrahb_reward>  (262) 
-0

>  <i_i_glide_confnum>  (262) 
5

>  <i_i_glide_posenum>  (262) 
38

>  <r_i_glide_eff_state_penalty>  (262) 
0

>  <ligand_id>  (262) 
76

>  <original_smiles>  (262) 
CCCCC(O)CO

>  <smiles>  (262) 
[H]OC([H])([H])C([H])(O[H])C([H])([H])C([H])([H])C([H])([H])C([H])([H])[H]

$$$$
76:0:1
     RDKit          3D

 22 21  0  0  1  0  0  0  0  0999 V2000
    2.8057    0.6826   -5.2007 C   0  0  0  0  0  0  0  0  0  0  0  0
    3.7186   -0.0163   -4.1999 C   0  0  0  0  0  0  0  0  0  0  0  0
    2.9825   -1.0591   -3.3388 C   0  0  0  0  0  0  0  0  0  0  0  0
    3.8706   -1.8713   -2.3827 C   0  0  0  0  0  0  0  0  0  0  0  0
    4.9141   -2.7537   -3.0951 C   0  0  2  0  0  0  0  0  0  0  0  0
    4.2873   -3.8185   -3.7928 O   0  0  0  0  0  0  0  0  0  0  0  0
    6.0151   -3.2989   -2.1707 C   0  0  0  0  0  0  0  0  0  0  0  0
    6.7293   -2.2620   -1.5180 O   0  0  0  0  0  0  0  0  0  0  0  0
    3.3851    1.3650   -5.8148 H   0  0  0  0  0  0  0  0  0  0  0  0
    2.0045    1.2416   -4.7207 H   0  0  0  0  0  0  0  0  0  0  0  0
    2.3579   -0.0446   -5.8709 H   0  0  0  0  0  0  0  0  0  0  0  0
    4.5013   -0.4656   -4.7981 H   0  0  0  0  0  0  0  0  0  0  0  0
    4.1997    0.7195   -3.5569 H   0  0  0  0  0  0  0  0  0  0  0  0
    2.2535   -0.5258   -2.7232 H   0  0  0  0  0  0  0  0  0  0  0  0
    2.4076   -1.7397   -3.9671 H   0  0  0  0  0  0  0  0  0  0  0  0
    4.3558   -1.1642   -1.7116 H   0  0  0  0  0  0  0  0  0  0  0  0
    3.2432   -2.4882   -1.7362 H   0  0  0  0  0  0  0  0  0  0  0  0
    5.3943   -2.1704   -3.8530 H   0  0  0  0  0  0  0  0  0  0  0  0
    3.8657   -4.4112   -3.1802 H   0  0  0  0  0  0  0  0  0  0  0  0
    5.5961   -3.9768   -1.4290 H   0  0  0  0  0  0  0  0  0  0  0  0
    6.7267   -3.8525   -2.7672 H   0  0  0  0  0  0  0  0  0  0  0  0
    7.3006   -2.6709   -0.8856 H   0  0  0  0  0  0  0  0  0  0  0  0
  1  2  1  0
  1  9  1  0
  1 10  1  0
  1 11  1  0
  2  3  1  0
  2 12  1  0
  2 13  1  0
  3  4  1  0
  3 14  1  0
  3 15  1  0
  4  5  1  0
  4 16  1  0
  4 17  1  0
  5  6  1  0
  5  7  1  0
  5 18  1  6
  6 19  1  0
  7  8  1  0
  7 20  1  0
  7 21  1  0
  8 22  1  0
M  END
>  <i_m_ct_stereo_status>  (263) 
1

>  <s_m_source_file>  (263) 
/var/tmp/pbs.5076255.sched01/tmpagfdxo7m/88tnrj_5ym.sdf

>  <i_m_source_file_index>  (263) 
20

>  <i_lp_mmshare_version>  (263) 
48012

>  <i_f3d_flags>  (263) 
0

>  <s_epik_input>  (263) 
W0NIM11bQ0gyXVtDSDJdW0NIMl1bQ0BIXShbT0hdKVtDSDJdW09IXQ==

>  <s_epik_cmdline>  (263) 
J2VwaWtfcHl0aG9uJywgJy1waHQnLCAnMi4wJywgJy1waCcsICc3LjAnLCAnLXRuJywgJzgnLCAnLW1hJywgJzIwMCcsICctaW1hZScsICc8aW5maWxlLm1hZT4nLCAnLW9tYWUnLCAnPG91dGZpbGUubWFlPic=

>  <r_lp_tautomer_probability>  (263) 
1

>  <r_epik_Ionization_Penalty>  (263) 
4.54991e-07

>  <r_epik_Ionization_Penalty_Charging>  (263) 
0

>  <r_epik_Ionization_Penalty_Neutral>  (263) 
4.54991e-07

>  <r_epik_State_Penalty>  (263) 
-0

>  <r_epik_Charging_Adjusted_Penalty>  (263) 
0

>  <i_epik_Tot_Q>  (263) 
0

>  <i_epik_Tot_abs_Q>  (263) 
0

>  <s_lp_Force_Field>  (263) 
OPLS3e

>  <r_lp_Energy>  (263) 
1.99024

>  <b_lp_Chiralities_Consistent>  (263) 
1

>  <s_lp_Variant>  (263) 
76:0-1

>  <s_i_glide_gridfile>  (263) 
pfpi4k_grid

>  <i_i_glide_lignum>  (263) 
20

>  <i_i_glide_rotatable_bonds>  (263) 
6

>  <r_i_docking_score>  (263) 
-2.24753

>  <r_i_glide_ligand_efficiency>  (263) 
-0.280941

>  <r_i_glide_ligand_efficiency_sa>  (263) 
-0.561883

>  <r_i_glide_ligand_efficiency_ln>  (263) 
-0.72985

>  <r_i_glide_gscore>  (263) 
-2.24753

>  <r_i_glide_lipo>  (263) 
-0.72497

>  <r_i_glide_hbond>  (263) 
-0.48

>  <r_i_glide_metal>  (263) 
-0

>  <r_i_glide_rewards>  (263) 
-2.25

>  <r_i_glide_evdw>  (263) 
-14.5715

>  <r_i_glide_ecoul>  (263) 
-6.09834

>  <r_i_glide_erotb>  (263) 
2.85077

>  <r_i_glide_esite>  (263) 
0

>  <r_i_glide_emodel>  (263) 
-22.7224

>  <r_i_glide_energy>  (263) 
-20.6699

>  <r_i_glide_einternal>  (263) 
1.86584

>  <r_i_glide_intrahb_reward>  (263) 
-0

>  <i_i_glide_confnum>  (263) 
3

>  <i_i_glide_posenum>  (263) 
24

>  <r_i_glide_eff_state_penalty>  (263) 
0

>  <ligand_id>  (263) 
76

>  <original_smiles>  (263) 
CCCCC(O)CO

>  <smiles>  (263) 
[H]OC([H])([H])C([H])(O[H])C([H])([H])C([H])([H])C([H])([H])C([H])([H])[H]

$$$$
76:0:2
     RDKit          3D

 22 21  0  0  1  0  0  0  0  0999 V2000
    2.7366    1.2668   -5.2743 C   0  0  0  0  0  0  0  0  0  0  0  0
    3.8130    0.5468   -4.4685 C   0  0  0  0  0  0  0  0  0  0  0  0
    3.3792   -0.8670   -4.0678 C   0  0  0  0  0  0  0  0  0  0  0  0
    4.4575   -1.6420   -3.2868 C   0  0  0  0  0  0  0  0  0  0  0  0
    4.0324   -3.0310   -2.7861 C   0  0  2  0  0  0  0  0  0  0  0  0
    3.8042   -3.8560   -3.9076 O   0  0  0  0  0  0  0  0  0  0  0  0
    2.7954   -3.0588   -1.8845 C   0  0  0  0  0  0  0  0  0  0  0  0
    3.0163   -2.2275   -0.7795 O   0  0  0  0  0  0  0  0  0  0  0  0
    3.0279    2.2920   -5.4977 H   0  0  0  0  0  0  0  0  0  0  0  0
    1.7757    1.3064   -4.7469 H   0  0  0  0  0  0  0  0  0  0  0  0
    2.6270    0.7347   -6.2147 H   0  0  0  0  0  0  0  0  0  0  0  0
    4.6778    0.4851   -5.1162 H   0  0  0  0  0  0  0  0  0  0  0  0
    4.0905    1.1314   -3.5912 H   0  0  0  0  0  0  0  0  0  0  0  0
    2.4893   -0.7699   -3.4498 H   0  0  0  0  0  0  0  0  0  0  0  0
    3.0945   -1.4358   -4.9528 H   0  0  0  0  0  0  0  0  0  0  0  0
    5.3282   -1.8388   -3.8984 H   0  0  0  0  0  0  0  0  0  0  0  0
    4.7690   -1.0361   -2.4345 H   0  0  0  0  0  0  0  0  0  0  0  0
    4.8737   -3.4635   -2.2362 H   0  0  0  0  0  0  0  0  0  0  0  0
    3.5069   -4.6977   -3.5785 H   0  0  0  0  0  0  0  0  0  0  0  0
    1.9077   -2.6989   -2.4051 H   0  0  0  0  0  0  0  0  0  0  0  0
    2.5767   -4.0640   -1.5231 H   0  0  0  0  0  0  0  0  0  0  0  0
    2.1922   -1.7311   -0.6742 H   0  0  0  0  0  0  0  0  0  0  0  0
  1  2  1  0
  1  9  1  0
  1 10  1  0
  1 11  1  0
  2  3  1  0
  2 12  1  0
  2 13  1  0
  3  4  1  0
  3 14  1  0
  3 15  1  0
  4  5  1  0
  4 16  1  0
  4 17  1  0
  5  6  1  0
  5  7  1  0
  5 18  1  1
  6 19  1  0
  7  8  1  0
  7 20  1  0
  7 21  1  0
  8 22  1  0
M  END
>  <i_m_ct_stereo_status>  (264) 
1

>  <s_m_source_file>  (264) 
/var/tmp/pbs.5076255.sched01/tmpagfdxo7m/88tnrj_5ym.sdf

>  <i_m_source_file_index>  (264) 
20

>  <i_lp_mmshare_version>  (264) 
48012

>  <i_f3d_flags>  (264) 
0

>  <s_epik_input>  (264) 
W0NIM11bQ0gyXVtDSDJdW0NIMl1bQ0BIXShbT0hdKVtDSDJdW09IXQ==

>  <s_epik_cmdline>  (264) 
J2VwaWtfcHl0aG9uJywgJy1waHQnLCAnMi4wJywgJy1waCcsICc3LjAnLCAnLXRuJywgJzgnLCAnLW1hJywgJzIwMCcsICctaW1hZScsICc8aW5maWxlLm1hZT4nLCAnLW9tYWUnLCAnPG91dGZpbGUubWFlPic=

>  <r_lp_tautomer_probability>  (264) 
1

>  <r_epik_Ionization_Penalty>  (264) 
4.54991e-07

>  <r_epik_Ionization_Penalty_Charging>  (264) 
0

>  <r_epik_Ionization_Penalty_Neutral>  (264) 
4.54991e-07

>  <r_epik_State_Penalty>  (264) 
-0

>  <r_epik_Charging_Adjusted_Penalty>  (264) 
0

>  <i_epik_Tot_Q>  (264) 
0

>  <i_epik_Tot_abs_Q>  (264) 
0

>  <s_lp_Force_Field>  (264) 
OPLS3e

>  <r_lp_Energy>  (264) 
1.99024

>  <b_lp_Chiralities_Consistent>  (264) 
1

>  <s_lp_Variant>  (264) 
76:0-1

>  <s_i_glide_gridfile>  (264) 
pfpi4k_grid

>  <i_i_glide_lignum>  (264) 
20

>  <i_i_glide_rotatable_bonds>  (264) 
6

>  <r_i_docking_score>  (264) 
-2.23642

>  <r_i_glide_ligand_efficiency>  (264) 
-0.279553

>  <r_i_glide_ligand_efficiency_sa>  (264) 
-0.559105

>  <r_i_glide_ligand_efficiency_ln>  (264) 
-0.726242

>  <r_i_glide_gscore>  (264) 
-2.23642

>  <r_i_glide_lipo>  (264) 
-0.338765

>  <r_i_glide_hbond>  (264) 
-0.456

>  <r_i_glide_metal>  (264) 
-0

>  <r_i_glide_rewards>  (264) 
-2.25

>  <r_i_glide_evdw>  (264) 
-11.2856

>  <r_i_glide_ecoul>  (264) 
-9.85428

>  <r_i_glide_erotb>  (264) 
2.85077

>  <r_i_glide_esite>  (264) 
0

>  <r_i_glide_emodel>  (264) 
-22.6743

>  <r_i_glide_energy>  (264) 
-21.1399

>  <r_i_glide_einternal>  (264) 
2.90666

>  <r_i_glide_intrahb_reward>  (264) 
-0

>  <i_i_glide_confnum>  (264) 
4

>  <i_i_glide_posenum>  (264) 
20

>  <r_i_glide_eff_state_penalty>  (264) 
0

>  <ligand_id>  (264) 
76

>  <original_smiles>  (264) 
CCCCC(O)CO

>  <smiles>  (264) 
[H]OC([H])([H])C([H])(O[H])C([H])([H])C([H])([H])C([H])([H])C([H])([H])[H]

$$$$
77:0:0
     RDKit          3D

 33 35  0  0  1  0  0  0  0  0999 V2000
   -1.8017   -8.4554    2.6652 C   0  0  0  0  0  0  0  0  0  0  0  0
   -0.8283   -7.3791    2.4880 N   0  0  0  0  0  0  0  0  0  0  0  0
   -0.1950   -6.7314    3.5450 C   0  0  0  0  0  0  0  0  0  0  0  0
   -0.9390   -6.6698    4.5532 O   0  0  0  0  0  0  0  0  0  0  0  0
    1.0748   -6.2267    3.2472 C   0  0  0  0  0  0  0  0  0  0  0  0
    1.8236   -5.4072    4.2629 C   0  0  0  0  0  0  0  0  0  0  0  0
    1.5969   -5.6546    5.7369 C   0  0  0  0  0  0  0  0  0  0  0  0
    2.6904   -4.5222    3.9319 N   0  0  0  0  0  0  0  0  0  0  0  0
    2.8620   -4.1463    2.6346 C   0  0  0  0  0  0  0  0  0  0  0  0
    3.4249   -3.0455    2.1397 N   0  0  0  0  0  0  0  0  0  0  0  0
    3.2271   -3.2317    0.7990 C   0  0  0  0  0  0  0  0  0  0  0  0
    2.6132   -4.3649    0.4530 N   0  0  0  0  0  0  0  0  0  0  0  0
    2.3873   -4.9371    1.6644 N   0  0  0  0  0  0  0  0  0  0  0  0
    1.7459   -6.2317    1.8553 C   0  0  1  0  0  0  0  0  0  0  0  0
    2.7446   -7.3960    1.7410 C   0  0  0  0  0  0  0  0  0  0  0  0
    2.3779   -8.7012    2.1500 C   0  0  0  0  0  0  0  0  0  0  0  0
    3.3286   -9.7389    2.0800 C   0  0  0  0  0  0  0  0  0  0  0  0
    4.6134   -9.4473    1.5908 C   0  0  0  0  0  0  0  0  0  0  0  0
    4.9807   -8.2169    1.1867 N   0  0  0  0  0  0  0  0  0  0  0  0
    4.0680   -7.2268    1.2627 C   0  0  0  0  0  0  0  0  0  0  0  0
   -2.2669   -8.7462    1.7223 H   0  0  0  0  0  0  0  0  0  0  0  0
   -2.5892   -8.1661    3.3601 H   0  0  0  0  0  0  0  0  0  0  0  0
   -1.2887   -9.3209    3.0810 H   0  0  0  0  0  0  0  0  0  0  0  0
   -0.3458   -7.5157    1.6147 H   0  0  0  0  0  0  0  0  0  0  0  0
    1.4079   -6.7144    5.9246 H   0  0  0  0  0  0  0  0  0  0  0  0
    0.7644   -5.0557    6.1123 H   0  0  0  0  0  0  0  0  0  0  0  0
    2.4984   -5.3805    6.2919 H   0  0  0  0  0  0  0  0  0  0  0  0
    3.5451   -2.5089    0.0589 H   0  0  0  0  0  0  0  0  0  0  0  0
    1.0127   -6.3493    1.0578 H   0  0  0  0  0  0  0  0  0  0  0  0
    1.3890   -8.9164    2.5290 H   0  0  0  0  0  0  0  0  0  0  0  0
    3.0818  -10.7495    2.3784 H   0  0  0  0  0  0  0  0  0  0  0  0
    5.3610  -10.2191    1.5123 H   0  0  0  0  0  0  0  0  0  0  0  0
    4.4470   -6.2714    0.9327 H   0  0  0  0  0  0  0  0  0  0  0  0
  1  2  1  0
  1 21  1  0
  1 22  1  0
  1 23  1  0
  2 24  1  0
  2  3  1  0
  3  4  1  0
  3  5  2  0
  5 14  1  0
  5  6  1  0
  6  7  1  0
  6  8  2  0
  7 25  1  0
  7 26  1  0
  7 27  1  0
  8  9  1  0
  9 13  1  0
  9 10  2  0
 10 11  1  0
 11 12  2  0
 11 28  1  0
 12 13  1  0
 13 14  1  0
 14 15  1  0
 14 29  1  6
 15 20  1  0
 15 16  2  0
 16 17  1  0
 16 30  1  0
 17 18  2  0
 17 31  1  0
 18 19  1  0
 18 32  1  0
 19 20  2  0
 20 33  1  0
M  CHG  1   4  -1
M  END
>  <i_m_ct_stereo_status>  (265) 
1

>  <s_m_source_file>  (265) 
/var/tmp/pbs.5076255.sched01/tmpagfdxo7m/88tnrj_5ym.sdf

>  <i_m_source_file_index>  (265) 
21

>  <i_lp_mmshare_version>  (265) 
48012

>  <i_f3d_flags>  (265) 
0

>  <s_epik_input>  (265) 
W0NIM11bTkhdQyg9TylbQ0BIXShDKD1OMSlbQ0gzXSlbQ0BASF0obihjMTIpbltjSF1uMiljM1tjSF1bY0hdW2NIXW5bY0hdMw==

>  <s_epik_cmdline>  (265) 
J2VwaWtfcHl0aG9uJywgJy1waHQnLCAnMi4wJywgJy1waCcsICc3LjAnLCAnLXRuJywgJzgnLCAnLW1hJywgJzIwMCcsICctaW1hZScsICc8aW5maWxlLm1hZT4nLCAnLW9tYWUnLCAnPG91dGZpbGUubWFlPic=

>  <r_epik_Ionization_Penalty>  (265) 
0.000842698

>  <r_epik_Ionization_Penalty_Charging>  (265) 
0

>  <r_epik_Ionization_Penalty_Neutral>  (265) 
0.000842698

>  <r_epik_State_Penalty>  (265) 
0.0346711

>  <r_epik_Charging_Adjusted_Penalty>  (265) 
0.0346711

>  <i_epik_Tot_Q>  (265) 
-1

>  <i_epik_Tot_abs_Q>  (265) 
1

>  <s_epik_Chemistry_Notes>  (265) 
This compound has an imine and may undergo hydrolysis.

>  <s_lp_Force_Field>  (265) 
OPLS3e

>  <r_lp_Energy>  (265) 
36.5107

>  <b_lp_Chiralities_Consistent>  (265) 
1

>  <s_lp_Variant>  (265) 
77:0-1

>  <s_i_glide_gridfile>  (265) 
pfpi4k_grid

>  <i_i_glide_lignum>  (265) 
21

>  <i_i_glide_rotatable_bonds>  (265) 
2

>  <r_i_docking_score>  (265) 
-2.59039

>  <r_i_glide_ligand_efficiency>  (265) 
-0.12952

>  <r_i_glide_ligand_efficiency_sa>  (265) 
-0.35157

>  <r_i_glide_ligand_efficiency_ln>  (265) 
-0.64829

>  <r_i_glide_gscore>  (265) 
-2.59039

>  <r_i_glide_lipo>  (265) 
-0.175548

>  <r_i_glide_hbond>  (265) 
0

>  <r_i_glide_metal>  (265) 
-0

>  <r_i_glide_rewards>  (265) 
-1.57308

>  <r_i_glide_evdw>  (265) 
-20.7704

>  <r_i_glide_ecoul>  (265) 
-1.14586

>  <r_i_glide_erotb>  (265) 
0.492755

>  <r_i_glide_esite>  (265) 
-0.124122

>  <r_i_glide_emodel>  (265) 
-24.4988

>  <r_i_glide_energy>  (265) 
-21.9163

>  <r_i_glide_einternal>  (265) 
3.49326

>  <r_i_glide_intrahb_reward>  (265) 
-0

>  <i_i_glide_confnum>  (265) 
5

>  <i_i_glide_posenum>  (265) 
1

>  <r_i_glide_eff_state_penalty>  (265) 
0

>  <ligand_id>  (265) 
77

>  <original_smiles>  (265) 
CNC(=O)C1C(C)=Nc2ncnn2C1c1cccnc1

>  <smiles>  (265) 
[H]c1nc2n(n1)C([H])(c1c([H])nc([H])c([H])c1[H])C(=C([O-])N([H])C([H])([H])[H])C(C([H])([H])[H])=N2

$$$$
77:1:0
     RDKit          3D

 34 36  0  0  1  0  0  0  0  0999 V2000
   -1.5607   -9.1529    2.0950 C   0  0  0  0  0  0  0  0  0  0  0  0
   -1.0253   -9.0099    3.4396 N   0  0  0  0  0  0  0  0  0  0  0  0
   -0.4178   -7.9099    3.9187 C   0  0  0  0  0  0  0  0  0  0  0  0
   -0.4705   -6.8396    3.3067 O   0  0  0  0  0  0  0  0  0  0  0  0
    0.2339   -8.0982    5.2293 C   0  0  0  0  0  0  0  0  0  0  0  0
    0.7852   -9.2859    5.6487 C   0  0  0  0  0  0  0  0  0  0  0  0
    1.0046  -10.5521    4.8270 C   0  0  0  0  0  0  0  0  0  0  0  0
    1.2286   -9.4481    6.9606 N   0  0  0  0  0  0  0  0  0  0  0  0
    0.9662   -8.5040    7.9439 C   0  0  0  0  0  0  0  0  0  0  0  0
    1.0987   -8.6261    9.2559 N   0  0  0  0  0  0  0  0  0  0  0  0
    0.6318   -7.3973    9.6413 C   0  0  0  0  0  0  0  0  0  0  0  0
    0.2287   -6.5809    8.6637 N   0  0  0  0  0  0  0  0  0  0  0  0
    0.4596   -7.3343    7.5584 N   0  0  0  0  0  0  0  0  0  0  0  0
    0.2361   -6.8864    6.1859 C   0  0  1  0  0  0  0  0  0  0  0  0
    1.3083   -5.8553    5.8358 C   0  0  0  0  0  0  0  0  0  0  0  0
    2.6524   -6.2441    5.6572 C   0  0  0  0  0  0  0  0  0  0  0  0
    3.6132   -5.2645    5.3446 C   0  0  0  0  0  0  0  0  0  0  0  0
    3.1914   -3.9283    5.2179 C   0  0  0  0  0  0  0  0  0  0  0  0
    1.9129   -3.5376    5.3915 N   0  0  0  0  0  0  0  0  0  0  0  0
    0.9967   -4.4852    5.6889 C   0  0  0  0  0  0  0  0  0  0  0  0
   -1.5044  -10.2002    1.7862 H   0  0  0  0  0  0  0  0  0  0  0  0
   -0.9910   -8.5661    1.3708 H   0  0  0  0  0  0  0  0  0  0  0  0
   -2.6017   -8.8335    2.0615 H   0  0  0  0  0  0  0  0  0  0  0  0
   -1.0595   -9.8350    4.0292 H   0  0  0  0  0  0  0  0  0  0  0  0
    1.5255  -10.3719    7.2679 H   0  0  0  0  0  0  0  0  0  0  0  0
    1.1740  -10.3420    3.7709 H   0  0  0  0  0  0  0  0  0  0  0  0
    0.1615  -11.2336    4.9296 H   0  0  0  0  0  0  0  0  0  0  0  0
    1.8822  -11.0898    5.1854 H   0  0  0  0  0  0  0  0  0  0  0  0
    0.5599   -7.1048   10.6833 H   0  0  0  0  0  0  0  0  0  0  0  0
   -0.7447   -6.4185    6.1467 H   0  0  0  0  0  0  0  0  0  0  0  0
    2.9495   -7.2775    5.7708 H   0  0  0  0  0  0  0  0  0  0  0  0
    4.6510   -5.5295    5.2021 H   0  0  0  0  0  0  0  0  0  0  0  0
    3.8987   -3.1539    4.9739 H   0  0  0  0  0  0  0  0  0  0  0  0
   -0.0114   -4.1193    5.8242 H   0  0  0  0  0  0  0  0  0  0  0  0
  1  2  1  0
  1 21  1  0
  1 22  1  0
  1 23  1  0
  2 24  1  0
  2  3  1  0
  3  4  2  0
  3  5  1  0
  5 14  1  0
  5  6  2  0
  6  7  1  0
  6  8  1  0
  7 26  1  0
  7 27  1  0
  7 28  1  0
  8  9  1  0
  8 25  1  0
  9 13  1  0
  9 10  2  0
 10 11  1  0
 11 12  2  0
 11 29  1  0
 12 13  1  0
 13 14  1  0
 14 15  1  0
 14 30  1  1
 15 20  1  0
 15 16  2  0
 16 17  1  0
 16 31  1  0
 17 18  2  0
 17 32  1  0
 18 19  1  0
 18 33  1  0
 19 20  2  0
 20 34  1  0
M  END
>  <i_m_ct_stereo_status>  (266) 
1

>  <s_m_source_file>  (266) 
/var/tmp/pbs.5076255.sched01/tmpagfdxo7m/88tnrj_5ym.sdf

>  <i_m_source_file_index>  (266) 
22

>  <i_lp_mmshare_version>  (266) 
48012

>  <i_f3d_flags>  (266) 
0

>  <s_epik_input>  (266) 
W0NIM11bTkhdQyg9TylbQ0BIXShDKD1OMSlbQ0gzXSlbQ0BASF0obihjMTIpbltjSF1uMiljM1tjSF1bY0hdW2NIXW5bY0hdMw==

>  <s_epik_cmdline>  (266) 
J2VwaWtfcHl0aG9uJywgJy1waHQnLCAnMi4wJywgJy1waCcsICc3LjAnLCAnLXRuJywgJzgnLCAnLW1hJywgJzIwMCcsICctaW1hZScsICc8aW5maWxlLm1hZT4nLCAnLW9tYWUnLCAnPG91dGZpbGUubWFlPic=

>  <r_lp_tautomer_probability>  (266) 
1

>  <r_epik_Ionization_Penalty>  (266) 
0.011963

>  <r_epik_Ionization_Penalty_Charging>  (266) 
0

>  <r_epik_Ionization_Penalty_Neutral>  (266) 
0.011963

>  <r_epik_State_Penalty>  (266) 
1.69898

>  <r_epik_Charging_Adjusted_Penalty>  (266) 
1.69898

>  <i_epik_Tot_Q>  (266) 
0

>  <i_epik_Tot_abs_Q>  (266) 
0

>  <s_lp_Force_Field>  (266) 
OPLS3e

>  <r_lp_Energy>  (266) 
32.3725

>  <b_lp_Chiralities_Consistent>  (266) 
1

>  <s_lp_Variant>  (266) 
77:0-2

>  <s_i_glide_gridfile>  (266) 
pfpi4k_grid

>  <i_i_glide_lignum>  (266) 
22

>  <i_i_glide_rotatable_bonds>  (266) 
3

>  <r_i_docking_score>  (266) 
-3.88013

>  <r_i_glide_ligand_efficiency>  (266) 
-0.194007

>  <r_i_glide_ligand_efficiency_sa>  (266) 
-0.526615

>  <r_i_glide_ligand_efficiency_ln>  (266) 
-0.97107

>  <r_i_glide_gscore>  (266) 
-3.88013

>  <r_i_glide_lipo>  (266) 
-0.183235

>  <r_i_glide_hbond>  (266) 
-0.450251

>  <r_i_glide_metal>  (266) 
-0

>  <r_i_glide_rewards>  (266) 
-1.56621

>  <r_i_glide_evdw>  (266) 
-19.4032

>  <r_i_glide_ecoul>  (266) 
-5.92532

>  <r_i_glide_erotb>  (266) 
0.489581

>  <r_i_glide_esite>  (266) 
-0.311066

>  <r_i_glide_emodel>  (266) 
-32.52

>  <r_i_glide_energy>  (266) 
-25.3285

>  <r_i_glide_einternal>  (266) 
0.328917

>  <r_i_glide_intrahb_reward>  (266) 
-0

>  <i_i_glide_confnum>  (266) 
1

>  <i_i_glide_posenum>  (266) 
30

>  <r_i_glide_eff_state_penalty>  (266) 
0

>  <ligand_id>  (266) 
77

>  <original_smiles>  (266) 
CNC(=O)C1C(C)=Nc2ncnn2C1c1cccnc1

>  <smiles>  (266) 
[H]c1nc2n(n1)C([H])(c1c([H])nc([H])c([H])c1[H])C(C(=O)N([H])C([H])([H])[H])=C(C([H])([H])[H])N2[H]

$$$$
77:1:1
     RDKit          3D

 34 36  0  0  1  0  0  0  0  0999 V2000
    0.2244   -2.2133    4.2783 C   0  0  0  0  0  0  0  0  0  0  0  0
    0.1441   -0.7568    4.3036 N   0  0  0  0  0  0  0  0  0  0  0  0
   -0.4245   -0.0333    5.2867 C   0  0  0  0  0  0  0  0  0  0  0  0
   -0.9154   -0.5614    6.2854 O   0  0  0  0  0  0  0  0  0  0  0  0
   -0.3422    1.4171    5.0771 C   0  0  0  0  0  0  0  0  0  0  0  0
   -0.5979    2.0135    3.8739 C   0  0  0  0  0  0  0  0  0  0  0  0
   -1.1417    1.3415    2.6224 C   0  0  0  0  0  0  0  0  0  0  0  0
   -0.3802    3.3774    3.6912 N   0  0  0  0  0  0  0  0  0  0  0  0
    0.3114    4.1355    4.6241 C   0  0  0  0  0  0  0  0  0  0  0  0
    0.8008    5.3576    4.4882 N   0  0  0  0  0  0  0  0  0  0  0  0
    1.4214    5.4849    5.7022 C   0  0  0  0  0  0  0  0  0  0  0  0
    1.2908    4.4555    6.5445 N   0  0  0  0  0  0  0  0  0  0  0  0
    0.5653    3.5790    5.8075 N   0  0  0  0  0  0  0  0  0  0  0  0
    0.1014    2.2780    6.2797 C   0  0  1  0  0  0  0  0  0  0  0  0
   -1.0206    2.5028    7.2989 C   0  0  0  0  0  0  0  0  0  0  0  0
   -0.7696    2.5157    8.6882 C   0  0  0  0  0  0  0  0  0  0  0  0
   -1.8463    2.7398    9.5698 C   0  0  0  0  0  0  0  0  0  0  0  0
   -3.1287    2.9510    9.0334 C   0  0  0  0  0  0  0  0  0  0  0  0
   -3.3811    2.9447    7.7104 N   0  0  0  0  0  0  0  0  0  0  0  0
   -2.3497    2.7306    6.8705 C   0  0  0  0  0  0  0  0  0  0  0  0
    0.2656   -2.5765    3.2495 H   0  0  0  0  0  0  0  0  0  0  0  0
   -0.6427   -2.6739    4.7542 H   0  0  0  0  0  0  0  0  0  0  0  0
    1.1234   -2.5611    4.7907 H   0  0  0  0  0  0  0  0  0  0  0  0
    0.5374   -0.2605    3.5158 H   0  0  0  0  0  0  0  0  0  0  0  0
   -0.4695    3.7766    2.7637 H   0  0  0  0  0  0  0  0  0  0  0  0
   -1.7786    0.4906    2.8721 H   0  0  0  0  0  0  0  0  0  0  0  0
   -0.3385    1.0104    1.9594 H   0  0  0  0  0  0  0  0  0  0  0  0
   -1.7608    2.0520    2.0767 H   0  0  0  0  0  0  0  0  0  0  0  0
    1.9893    6.3671    5.9784 H   0  0  0  0  0  0  0  0  0  0  0  0
    0.9495    1.7851    6.7552 H   0  0  0  0  0  0  0  0  0  0  0  0
    0.2301    2.3647    9.0797 H   0  0  0  0  0  0  0  0  0  0  0  0
   -1.7102    2.7465   10.6463 H   0  0  0  0  0  0  0  0  0  0  0  0
   -3.9794    3.1170    9.6750 H   0  0  0  0  0  0  0  0  0  0  0  0
   -2.6047    2.7507    5.8226 H   0  0  0  0  0  0  0  0  0  0  0  0
  1  2  1  0
  1 21  1  0
  1 22  1  0
  1 23  1  0
  2 24  1  0
  2  3  1  0
  3  4  2  0
  3  5  1  0
  5 14  1  0
  5  6  2  0
  6  7  1  0
  6  8  1  0
  7 26  1  0
  7 27  1  0
  7 28  1  0
  8  9  1  0
  8 25  1  0
  9 13  1  0
  9 10  2  0
 10 11  1  0
 11 12  2  0
 11 29  1  0
 12 13  1  0
 13 14  1  0
 14 15  1  0
 14 30  1  1
 15 20  1  0
 15 16  2  0
 16 17  1  0
 16 31  1  0
 17 18  2  0
 17 32  1  0
 18 19  1  0
 18 33  1  0
 19 20  2  0
 20 34  1  0
M  END
>  <i_m_ct_stereo_status>  (267) 
1

>  <s_m_source_file>  (267) 
/var/tmp/pbs.5076255.sched01/tmpagfdxo7m/88tnrj_5ym.sdf

>  <i_m_source_file_index>  (267) 
22

>  <i_lp_mmshare_version>  (267) 
48012

>  <i_f3d_flags>  (267) 
0

>  <s_epik_input>  (267) 
W0NIM11bTkhdQyg9TylbQ0BIXShDKD1OMSlbQ0gzXSlbQ0BASF0obihjMTIpbltjSF1uMiljM1tjSF1bY0hdW2NIXW5bY0hdMw==

>  <s_epik_cmdline>  (267) 
J2VwaWtfcHl0aG9uJywgJy1waHQnLCAnMi4wJywgJy1waCcsICc3LjAnLCAnLXRuJywgJzgnLCAnLW1hJywgJzIwMCcsICctaW1hZScsICc8aW5maWxlLm1hZT4nLCAnLW9tYWUnLCAnPG91dGZpbGUubWFlPic=

>  <r_lp_tautomer_probability>  (267) 
1

>  <r_epik_Ionization_Penalty>  (267) 
0.011963

>  <r_epik_Ionization_Penalty_Charging>  (267) 
0

>  <r_epik_Ionization_Penalty_Neutral>  (267) 
0.011963

>  <r_epik_State_Penalty>  (267) 
1.69898

>  <r_epik_Charging_Adjusted_Penalty>  (267) 
1.69898

>  <i_epik_Tot_Q>  (267) 
0

>  <i_epik_Tot_abs_Q>  (267) 
0

>  <s_lp_Force_Field>  (267) 
OPLS3e

>  <r_lp_Energy>  (267) 
32.3725

>  <b_lp_Chiralities_Consistent>  (267) 
1

>  <s_lp_Variant>  (267) 
77:0-2

>  <s_i_glide_gridfile>  (267) 
pfpi4k_grid

>  <i_i_glide_lignum>  (267) 
22

>  <i_i_glide_rotatable_bonds>  (267) 
3

>  <r_i_docking_score>  (267) 
-3.57742

>  <r_i_glide_ligand_efficiency>  (267) 
-0.178871

>  <r_i_glide_ligand_efficiency_sa>  (267) 
-0.485531

>  <r_i_glide_ligand_efficiency_ln>  (267) 
-0.89531

>  <r_i_glide_gscore>  (267) 
-3.57742

>  <r_i_glide_lipo>  (267) 
-0.181478

>  <r_i_glide_hbond>  (267) 
-0.151985

>  <r_i_glide_metal>  (267) 
-0

>  <r_i_glide_rewards>  (267) 
-1.56621

>  <r_i_glide_evdw>  (267) 
-20.3609

>  <r_i_glide_ecoul>  (267) 
-6.6643

>  <r_i_glide_erotb>  (267) 
0.489581

>  <r_i_glide_esite>  (267) 
-0.14964

>  <r_i_glide_emodel>  (267) 
-33.8896

>  <r_i_glide_energy>  (267) 
-27.0252

>  <r_i_glide_einternal>  (267) 
0.300899

>  <r_i_glide_intrahb_reward>  (267) 
-0

>  <i_i_glide_confnum>  (267) 
1

>  <i_i_glide_posenum>  (267) 
36

>  <r_i_glide_eff_state_penalty>  (267) 
0

>  <ligand_id>  (267) 
77

>  <original_smiles>  (267) 
CNC(=O)C1C(C)=Nc2ncnn2C1c1cccnc1

>  <smiles>  (267) 
[H]c1nc2n(n1)C([H])(c1c([H])nc([H])c([H])c1[H])C(C(=O)N([H])C([H])([H])[H])=C(C([H])([H])[H])N2[H]

$$$$
77:1:2
     RDKit          3D

 34 36  0  0  1  0  0  0  0  0999 V2000
    0.1970   -2.0573    4.3102 C   0  0  0  0  0  0  0  0  0  0  0  0
    0.1330   -0.6010    4.3314 N   0  0  0  0  0  0  0  0  0  0  0  0
   -0.4178    0.1361    5.3144 C   0  0  0  0  0  0  0  0  0  0  0  0
   -0.9031   -0.3793    6.3239 O   0  0  0  0  0  0  0  0  0  0  0  0
   -0.3346    1.5836    5.0857 C   0  0  0  0  0  0  0  0  0  0  0  0
   -0.5960    2.1672    3.8779 C   0  0  0  0  0  0  0  0  0  0  0  0
   -1.1418    1.4807    2.6346 C   0  0  0  0  0  0  0  0  0  0  0  0
   -0.3832    3.5320    3.6828 N   0  0  0  0  0  0  0  0  0  0  0  0
    0.3077    4.3003    4.6071 C   0  0  0  0  0  0  0  0  0  0  0  0
    0.7961    5.5227    4.4605 N   0  0  0  0  0  0  0  0  0  0  0  0
    1.4185    5.6633    5.6701 C   0  0  0  0  0  0  0  0  0  0  0  0
    1.2890    4.6428    6.5240 N   0  0  0  0  0  0  0  0  0  0  0  0
    0.5674    3.7550    5.7951 N   0  0  0  0  0  0  0  0  0  0  0  0
    0.1013    2.4610    6.2793 C   0  0  1  0  0  0  0  0  0  0  0  0
   -1.0272    2.7054    7.2861 C   0  0  0  0  0  0  0  0  0  0  0  0
   -2.3825    2.7124    6.8861 C   0  0  0  0  0  0  0  0  0  0  0  0
   -3.3780    2.9437    7.8492 C   0  0  0  0  0  0  0  0  0  0  0  0
   -2.9922    3.1824    9.1811 C   0  0  0  0  0  0  0  0  0  0  0  0
   -1.7048    3.1939    9.5733 N   0  0  0  0  0  0  0  0  0  0  0  0
   -0.7496    2.9568    8.6485 C   0  0  0  0  0  0  0  0  0  0  0  0
    0.2236   -2.4230    3.2803 H   0  0  0  0  0  0  0  0  0  0  0  0
   -0.6708   -2.5059    4.7968 H   0  0  0  0  0  0  0  0  0  0  0  0
    1.0962   -2.4110    4.8182 H   0  0  0  0  0  0  0  0  0  0  0  0
    0.5174   -0.1108    3.5355 H   0  0  0  0  0  0  0  0  0  0  0  0
   -0.4673    3.9206    2.7498 H   0  0  0  0  0  0  0  0  0  0  0  0
   -1.7750    0.6309    2.8927 H   0  0  0  0  0  0  0  0  0  0  0  0
   -0.3386    1.1434    1.9762 H   0  0  0  0  0  0  0  0  0  0  0  0
   -1.7588    2.1847    2.0831 H   0  0  0  0  0  0  0  0  0  0  0  0
    1.9868    6.5486    5.9366 H   0  0  0  0  0  0  0  0  0  0  0  0
    0.9458    1.9756    6.7668 H   0  0  0  0  0  0  0  0  0  0  0  0
   -2.6655    2.5418    5.8546 H   0  0  0  0  0  0  0  0  0  0  0  0
   -4.4232    2.9389    7.5827 H   0  0  0  0  0  0  0  0  0  0  0  0
   -3.7355    3.3604    9.9400 H   0  0  0  0  0  0  0  0  0  0  0  0
    0.2632    2.9856    9.0242 H   0  0  0  0  0  0  0  0  0  0  0  0
  1  2  1  0
  1 21  1  0
  1 22  1  0
  1 23  1  0
  2 24  1  0
  2  3  1  0
  3  4  2  0
  3  5  1  0
  5 14  1  0
  5  6  2  0
  6  7  1  0
  6  8  1  0
  7 26  1  0
  7 27  1  0
  7 28  1  0
  8  9  1  0
  8 25  1  0
  9 13  1  0
  9 10  2  0
 10 11  1  0
 11 12  2  0
 11 29  1  0
 12 13  1  0
 13 14  1  0
 14 15  1  0
 14 30  1  1
 15 20  1  0
 15 16  2  0
 16 17  1  0
 16 31  1  0
 17 18  2  0
 17 32  1  0
 18 19  1  0
 18 33  1  0
 19 20  2  0
 20 34  1  0
M  END
>  <i_m_ct_stereo_status>  (268) 
1

>  <s_m_source_file>  (268) 
/var/tmp/pbs.5076255.sched01/tmpagfdxo7m/88tnrj_5ym.sdf

>  <i_m_source_file_index>  (268) 
22

>  <i_lp_mmshare_version>  (268) 
48012

>  <i_f3d_flags>  (268) 
0

>  <s_epik_input>  (268) 
W0NIM11bTkhdQyg9TylbQ0BIXShDKD1OMSlbQ0gzXSlbQ0BASF0obihjMTIpbltjSF1uMiljM1tjSF1bY0hdW2NIXW5bY0hdMw==

>  <s_epik_cmdline>  (268) 
J2VwaWtfcHl0aG9uJywgJy1waHQnLCAnMi4wJywgJy1waCcsICc3LjAnLCAnLXRuJywgJzgnLCAnLW1hJywgJzIwMCcsICctaW1hZScsICc8aW5maWxlLm1hZT4nLCAnLW9tYWUnLCAnPG91dGZpbGUubWFlPic=

>  <r_lp_tautomer_probability>  (268) 
1

>  <r_epik_Ionization_Penalty>  (268) 
0.011963

>  <r_epik_Ionization_Penalty_Charging>  (268) 
0

>  <r_epik_Ionization_Penalty_Neutral>  (268) 
0.011963

>  <r_epik_State_Penalty>  (268) 
1.69898

>  <r_epik_Charging_Adjusted_Penalty>  (268) 
1.69898

>  <i_epik_Tot_Q>  (268) 
0

>  <i_epik_Tot_abs_Q>  (268) 
0

>  <s_lp_Force_Field>  (268) 
OPLS3e

>  <r_lp_Energy>  (268) 
32.3725

>  <b_lp_Chiralities_Consistent>  (268) 
1

>  <s_lp_Variant>  (268) 
77:0-2

>  <s_i_glide_gridfile>  (268) 
pfpi4k_grid

>  <i_i_glide_lignum>  (268) 
22

>  <i_i_glide_rotatable_bonds>  (268) 
3

>  <r_i_docking_score>  (268) 
-3.43123

>  <r_i_glide_ligand_efficiency>  (268) 
-0.171562

>  <r_i_glide_ligand_efficiency_sa>  (268) 
-0.46569

>  <r_i_glide_ligand_efficiency_ln>  (268) 
-0.858725

>  <r_i_glide_gscore>  (268) 
-3.43123

>  <r_i_glide_lipo>  (268) 
-0.25999

>  <r_i_glide_hbond>  (268) 
-0.176454

>  <r_i_glide_metal>  (268) 
-0

>  <r_i_glide_rewards>  (268) 
-1.56621

>  <r_i_glide_evdw>  (268) 
-19.9188

>  <r_i_glide_ecoul>  (268) 
-5.08773

>  <r_i_glide_erotb>  (268) 
0.489581

>  <r_i_glide_esite>  (268) 
-0.159064

>  <r_i_glide_emodel>  (268) 
-31.5086

>  <r_i_glide_energy>  (268) 
-25.0066

>  <r_i_glide_einternal>  (268) 
0.363597

>  <r_i_glide_intrahb_reward>  (268) 
-0

>  <i_i_glide_confnum>  (268) 
1

>  <i_i_glide_posenum>  (268) 
1

>  <r_i_glide_eff_state_penalty>  (268) 
0

>  <ligand_id>  (268) 
77

>  <original_smiles>  (268) 
CNC(=O)C1C(C)=Nc2ncnn2C1c1cccnc1

>  <smiles>  (268) 
[H]c1nc2n(n1)C([H])(c1c([H])nc([H])c([H])c1[H])C(C(=O)N([H])C([H])([H])[H])=C(C([H])([H])[H])N2[H]

$$$$
78:0:0
     RDKit          3D

 78 84  0  0  1  0  0  0  0  0999 V2000
    4.3864   -4.4445    6.1260 C   0  0  0  0  0  0  0  0  0  0  0  0
    3.6968   -5.0976    5.1824 C   0  0  0  0  0  0  0  0  0  0  0  0
    2.8069   -4.6246    4.0647 C   0  0  0  0  0  0  0  0  0  0  0  0
    3.3854   -5.8732    3.3356 C   0  0  2  0  0  0  0  0  0  0  0  0
    4.6417   -5.4732    2.5075 C   0  0  0  0  0  0  0  0  0  0  0  0
    5.9224   -5.7647    2.7855 C   0  0  0  0  0  0  0  0  0  0  0  0
    6.7778   -5.4504    1.6433 C   0  0  0  0  0  0  0  0  0  0  0  0
    8.0015   -5.5356    1.6477 O   0  0  0  0  0  0  0  0  0  0  0  0
    5.8769   -5.0375    0.5143 C   0  0  2  0  0  0  0  0  0  0  0  0
    5.9182   -3.5799   -0.0036 C   0  0  2  0  0  0  0  0  0  0  0  0
    5.6079   -3.4236   -1.4946 C   0  0  0  0  0  0  0  0  0  0  0  0
    6.9403   -2.5371    0.4602 C   0  0  0  0  0  0  0  0  0  0  0  0
    6.3178   -1.1217    0.4873 C   0  0  0  0  0  0  0  0  0  0  0  0
    5.0262   -0.9780    1.3485 C   0  0  0  0  0  0  0  0  0  0  0  0
    5.3865   -0.4572    2.7563 C   0  0  0  0  0  0  0  0  0  0  0  0
    4.0680    0.0053    0.6698 C   0  0  0  0  0  0  0  0  0  0  0  0
    4.3051   -2.3073    1.5043 C   0  0  0  0  0  0  0  0  0  0  0  0
    4.7069   -3.4210    0.8831 C   0  0  0  0  0  0  0  0  0  0  0  0
    4.4435   -4.9109    1.0938 C   0  0  2  0  0  0  0  0  0  0  0  0
    3.2579   -5.4850    0.3154 C   0  0  0  0  0  0  0  0  0  0  0  0
    2.0599   -5.8667    1.1993 C   0  0  0  0  0  0  0  0  0  0  0  0
    2.5179   -6.7329    2.3953 C   0  0  2  0  0  0  0  0  0  0  0  0
    1.4052   -7.6731    3.0251 C   0  0  2  0  0  0  0  0  0  0  0  0
    1.1548   -8.7318    1.9081 C   0  0  0  0  0  0  0  0  0  0  0  0
    0.0702   -6.9070    3.2910 C   0  0  0  0  0  0  0  0  0  0  0  0
   -1.0345   -7.7463    3.9593 C   0  0  0  0  0  0  0  0  0  0  0  0
   -0.5384   -8.4294    5.2367 C   0  0  0  0  0  0  0  0  0  0  0  0
    0.7350   -9.2766    5.0214 C   0  0  0  0  0  0  0  0  0  0  0  0
    1.1095   -9.8552    6.4058 C   0  0  0  0  0  0  0  0  0  0  0  0
    0.4017  -10.5547    4.1920 C   0  0  0  0  0  0  0  0  0  0  0  0
    1.8750   -8.3774    4.3714 C   0  0  2  0  0  0  0  0  0  0  0  0
    2.5050   -7.3172    5.3454 C   0  0  1  0  0  0  0  0  0  0  0  0
    3.0784   -7.8524    6.5146 O   0  0  0  0  0  0  0  0  0  0  0  0
    3.6591   -6.5307    4.7157 C   0  0  2  0  0  0  0  0  0  0  0  0
    5.0459   -4.9696    6.8016 H   0  0  0  0  0  0  0  0  0  0  0  0
    4.3022   -3.3680    6.2161 H   0  0  0  0  0  0  0  0  0  0  0  0
    1.7431   -4.6699    4.2722 H   0  0  0  0  0  0  0  0  0  0  0  0
    3.0545   -3.6762    3.6170 H   0  0  0  0  0  0  0  0  0  0  0  0
    6.3120   -6.2679    3.6555 H   0  0  0  0  0  0  0  0  0  0  0  0
    5.8908   -5.7453   -0.3191 H   0  0  0  0  0  0  0  0  0  0  0  0
    6.4910   -3.6553   -2.0970 H   0  0  0  0  0  0  0  0  0  0  0  0
    5.2893   -2.4158   -1.7516 H   0  0  0  0  0  0  0  0  0  0  0  0
    4.8189   -4.1068   -1.8096 H   0  0  0  0  0  0  0  0  0  0  0  0
    7.2784   -2.7659    1.4693 H   0  0  0  0  0  0  0  0  0  0  0  0
    7.8357   -2.5488   -0.1645 H   0  0  0  0  0  0  0  0  0  0  0  0
    7.0608   -0.4272    0.8479 H   0  0  0  0  0  0  0  0  0  0  0  0
    6.1116   -0.8012   -0.5331 H   0  0  0  0  0  0  0  0  0  0  0  0
    5.8835    0.5093    2.7275 H   0  0  0  0  0  0  0  0  0  0  0  0
    6.0591   -1.1473    3.2650 H   0  0  0  0  0  0  0  0  0  0  0  0
    4.5005   -0.3336    3.3794 H   0  0  0  0  0  0  0  0  0  0  0  0
    4.5615    0.9554    0.5221 H   0  0  0  0  0  0  0  0  0  0  0  0
    3.1568    0.1780    1.2472 H   0  0  0  0  0  0  0  0  0  0  0  0
    3.7824   -0.3619   -0.3165 H   0  0  0  0  0  0  0  0  0  0  0  0
    3.4931   -2.3163    2.2045 H   0  0  0  0  0  0  0  0  0  0  0  0
    2.9327   -4.7891   -0.4545 H   0  0  0  0  0  0  0  0  0  0  0  0
    3.5895   -6.3849   -0.2070 H   0  0  0  0  0  0  0  0  0  0  0  0
    1.5953   -4.9619    1.5832 H   0  0  0  0  0  0  0  0  0  0  0  0
    1.3110   -6.3534    0.5772 H   0  0  0  0  0  0  0  0  0  0  0  0
    3.2183   -7.4569    1.9684 H   0  0  0  0  0  0  0  0  0  0  0  0
    0.1077   -9.0034    1.8167 H   0  0  0  0  0  0  0  0  0  0  0  0
    1.7401   -9.6377    2.0540 H   0  0  0  0  0  0  0  0  0  0  0  0
    1.4222   -8.4013    0.9087 H   0  0  0  0  0  0  0  0  0  0  0  0
    0.2447   -6.0625    3.9476 H   0  0  0  0  0  0  0  0  0  0  0  0
   -0.3222   -6.5019    2.3607 H   0  0  0  0  0  0  0  0  0  0  0  0
   -1.8771   -7.1051    4.2177 H   0  0  0  0  0  0  0  0  0  0  0  0
   -1.4409   -8.4891    3.2729 H   0  0  0  0  0  0  0  0  0  0  0  0
   -0.3332   -7.6615    5.9830 H   0  0  0  0  0  0  0  0  0  0  0  0
   -1.3398   -9.0399    5.6573 H   0  0  0  0  0  0  0  0  0  0  0  0
    2.0948  -10.3253    6.3928 H   0  0  0  0  0  0  0  0  0  0  0  0
    0.3918  -10.6183    6.7069 H   0  0  0  0  0  0  0  0  0  0  0  0
    1.0711   -9.1133    7.2076 H   0  0  0  0  0  0  0  0  0  0  0  0
    1.2931  -11.0555    3.8117 H   0  0  0  0  0  0  0  0  0  0  0  0
   -0.2711  -10.3660    3.3600 H   0  0  0  0  0  0  0  0  0  0  0  0
   -0.1302  -11.3059    4.7787 H   0  0  0  0  0  0  0  0  0  0  0  0
    2.6898   -9.0529    4.1237 H   0  0  0  0  0  0  0  0  0  0  0  0
    1.7159   -6.6381    5.6641 H   0  0  0  0  0  0  0  0  0  0  0  0
    2.4366   -8.4167    6.9183 H   0  0  0  0  0  0  0  0  0  0  0  0
    4.5970   -7.0831    4.7325 H   0  0  0  0  0  0  0  0  0  0  0  0
  1  2  2  0
  1 35  1  0
  1 36  1  0
  2 34  1  0
  2  3  1  0
  4  3  1  1
  3 37  1  0
  3 38  1  0
  4 22  1  0
  4 34  1  0
  4  5  1  0
  5 19  1  0
  5  6  2  0
  6  7  1  0
  6 39  1  0
  7  8  2  0
  7  9  1  0
  9 19  1  0
  9 10  1  0
  9 40  1  6
 10 18  1  0
 10 11  1  6
 10 12  1  0
 11 41  1  0
 11 42  1  0
 11 43  1  0
 12 13  1  0
 12 44  1  0
 12 45  1  0
 13 14  1  0
 13 46  1  0
 13 47  1  0
 14 15  1  0
 14 16  1  0
 14 17  1  0
 15 48  1  0
 15 49  1  0
 15 50  1  0
 16 51  1  0
 16 52  1  0
 16 53  1  0
 17 18  2  0
 17 54  1  0
 18 19  1  0
 19 20  1  6
 20 21  1  0
 20 55  1  0
 20 56  1  0
 21 22  1  0
 21 57  1  0
 21 58  1  0
 22 23  1  0
 22 59  1  6
 23 31  1  0
 23 24  1  6
 23 25  1  0
 24 60  1  0
 24 61  1  0
 24 62  1  0
 25 26  1  0
 25 63  1  0
 25 64  1  0
 26 27  1  0
 26 65  1  0
 26 66  1  0
 27 28  1  0
 27 67  1  0
 27 68  1  0
 28 29  1  0
 28 30  1  0
 28 31  1  0
 29 69  1  0
 29 70  1  0
 29 71  1  0
 30 72  1  0
 30 73  1  0
 30 74  1  0
 31 32  1  0
 31 75  1  6
 32 33  1  0
 32 34  1  0
 32 76  1  1
 33 77  1  0
 34 78  1  6
M  END
>  <i_m_ct_stereo_status>  (269) 
1

>  <s_m_source_file>  (269) 
/var/tmp/pbs.5076255.sched01/tmpagfdxo7m/88tnrj_5ym.sdf

>  <i_m_source_file_index>  (269) 
23

>  <i_lp_mmshare_version>  (269) 
48012

>  <i_f3d_flags>  (269) 
0

>  <s_epik_input>  (269) 
W0NIMl09QyhbQ0gyXTEpW0NASF0yW0NIXShbT0hdKVtDQEBIXShDKFtDSDNdKShbQ0gzXSlbQ0gyXVtDSDJdW0NIMl0zKVtDQF0zKFtDSDNdKVtDQEhdNFtDSDJdW0NIMl1bQ0BAXTUoQz02W0NAXTEyNClbQ0BIXShDKD1PKVtDSF02KVtDQEBdNyhbQ0gzXSlDNT1bQ0hdQyhbQ0gzXSkoW0NIM10pW0NIMl1bQ0gyXTc=

>  <s_epik_cmdline>  (269) 
J2VwaWtfcHl0aG9uJywgJy1waHQnLCAnMi4wJywgJy1waCcsICc3LjAnLCAnLXRuJywgJzgnLCAnLW1hJywgJzIwMCcsICctaW1hZScsICc8aW5maWxlLm1hZT4nLCAnLW9tYWUnLCAnPG91dGZpbGUubWFlPic=

>  <r_lp_tautomer_probability>  (269) 
1

>  <r_epik_Ionization_Penalty>  (269) 
6.54471e-07

>  <r_epik_Ionization_Penalty_Charging>  (269) 
0

>  <r_epik_Ionization_Penalty_Neutral>  (269) 
6.54471e-07

>  <r_epik_State_Penalty>  (269) 
-0

>  <r_epik_Charging_Adjusted_Penalty>  (269) 
0

>  <i_epik_Tot_Q>  (269) 
0

>  <i_epik_Tot_abs_Q>  (269) 
0

>  <s_lp_Force_Field>  (269) 
OPLS3e

>  <r_lp_Energy>  (269) 
91.8583

>  <b_lp_Chiralities_Consistent>  (269) 
1

>  <s_lp_Variant>  (269) 
78:0-1

>  <s_i_glide_gridfile>  (269) 
pfpi4k_grid

>  <i_i_glide_lignum>  (269) 
23

>  <i_i_glide_rotatable_bonds>  (269) 
1

>  <r_i_docking_score>  (269) 
-2.51122

>  <r_i_glide_ligand_efficiency>  (269) 
-0.0738594

>  <r_i_glide_ligand_efficiency_sa>  (269) 
-0.239276

>  <r_i_glide_ligand_efficiency_ln>  (269) 
-0.554799

>  <r_i_glide_gscore>  (269) 
-2.51122

>  <r_i_glide_lipo>  (269) 
-0.851976

>  <r_i_glide_hbond>  (269) 
0

>  <r_i_glide_metal>  (269) 
-0

>  <r_i_glide_rewards>  (269) 
-0.374561

>  <r_i_glide_evdw>  (269) 
-24.4022

>  <r_i_glide_ecoul>  (269) 
-0.430474

>  <r_i_glide_erotb>  (269) 
0

>  <r_i_glide_esite>  (269) 
0

>  <r_i_glide_emodel>  (269) 
-28.0268

>  <r_i_glide_energy>  (269) 
-24.8327

>  <r_i_glide_einternal>  (269) 
0.468643

>  <r_i_glide_intrahb_reward>  (269) 
-0

>  <i_i_glide_confnum>  (269) 
2

>  <i_i_glide_posenum>  (269) 
7

>  <r_i_glide_eff_state_penalty>  (269) 
0

>  <ligand_id>  (269) 
78

>  <original_smiles>  (269) 
C=C1CC23C4=CC(=O)C5C6(C)CCC(C)(C)C=C6C45CCC2C2(C)CCCC(C)(C)C2C(O)C13

>  <smiles>  (269) 
[H]OC1([H])C2([H])C(=C([H])[H])C([H])([H])C23C2=C([H])C(=O)C4([H])C2(C2=C([H])C(C([H])([H])[H])(C([H])([H])[H])C([H])([H])C([H])([H])C24C([H])([H])[H])C([H])([H])C([H])([H])C3([H])C2(C([H])([H])[H])C([H])([H])C([H])([H])C([H])([H])C(C([H])([H])[H])(C([H])([H])[H])C12[H]

$$$$
78:0:1
     RDKit          3D

 78 84  0  0  1  0  0  0  0  0999 V2000
   -0.0521   -3.8116    6.8031 C   0  0  0  0  0  0  0  0  0  0  0  0
    0.5306   -4.4923    5.8056 C   0  0  0  0  0  0  0  0  0  0  0  0
    0.5334   -4.3025    4.3168 C   0  0  0  0  0  0  0  0  0  0  0  0
    1.9700   -4.8810    4.4325 C   0  0  2  0  0  0  0  0  0  0  0  0
    2.9950   -3.7190    4.5803 C   0  0  0  0  0  0  0  0  0  0  0  0
    3.6667   -3.3746    5.6898 C   0  0  0  0  0  0  0  0  0  0  0  0
    4.7234   -2.4213    5.3724 C   0  0  0  0  0  0  0  0  0  0  0  0
    5.4462   -1.8869    6.2081 O   0  0  0  0  0  0  0  0  0  0  0  0
    4.7557   -2.2733    3.8753 C   0  0  2  0  0  0  0  0  0  0  0  0
    4.3661   -0.9208    3.2317 C   0  0  2  0  0  0  0  0  0  0  0  0
    5.0970   -0.6172    1.9200 C   0  0  0  0  0  0  0  0  0  0  0  0
    4.0857    0.3622    4.0273 C   0  0  0  0  0  0  0  0  0  0  0  0
    2.9980    1.2271    3.3456 C   0  0  0  0  0  0  0  0  0  0  0  0
    1.6492    0.4944    3.0567 C   0  0  0  0  0  0  0  0  0  0  0  0
    0.6605    0.7854    4.2034 C   0  0  0  0  0  0  0  0  0  0  0  0
    1.0599    0.9959    1.7244 C   0  0  0  0  0  0  0  0  0  0  0  0
    1.8324   -1.0186    2.9692 C   0  0  0  0  0  0  0  0  0  0  0  0
    3.0378   -1.6049    3.0281 C   0  0  0  0  0  0  0  0  0  0  0  0
    3.5222   -3.0285    3.3143 C   0  0  2  0  0  0  0  0  0  0  0  0
    3.6803   -3.9356    2.0874 C   0  0  0  0  0  0  0  0  0  0  0  0
    2.6336   -5.0580    2.0101 C   0  0  0  0  0  0  0  0  0  0  0  0
    2.5496   -5.8202    3.3526 C   0  0  2  0  0  0  0  0  0  0  0  0
    2.0112   -7.3094    3.2596 C   0  0  2  0  0  0  0  0  0  0  0  0
    3.1524   -8.0685    2.5038 C   0  0  0  0  0  0  0  0  0  0  0  0
    0.6999   -7.4095    2.4173 C   0  0  0  0  0  0  0  0  0  0  0  0
    0.0863   -8.8187    2.3509 C   0  0  0  0  0  0  0  0  0  0  0  0
   -0.1294   -9.4299    3.7368 C   0  0  0  0  0  0  0  0  0  0  0  0
    1.1492   -9.4421    4.5996 C   0  0  0  0  0  0  0  0  0  0  0  0
    0.7581  -10.0382    5.9733 C   0  0  0  0  0  0  0  0  0  0  0  0
    2.1540  -10.4942    4.0354 C   0  0  0  0  0  0  0  0  0  0  0  0
    1.7448   -7.9622    4.6899 C   0  0  2  0  0  0  0  0  0  0  0  0
    0.9050   -6.9811    5.5892 C   0  0  1  0  0  0  0  0  0  0  0  0
    0.7091   -7.3999    6.9192 O   0  0  0  0  0  0  0  0  0  0  0  0
    1.5512   -5.6008    5.7421 C   0  0  2  0  0  0  0  0  0  0  0  0
    0.1347   -4.0687    7.8362 H   0  0  0  0  0  0  0  0  0  0  0  0
   -0.7107   -2.9803    6.5811 H   0  0  0  0  0  0  0  0  0  0  0  0
   -0.1548   -4.9495    3.7867 H   0  0  0  0  0  0  0  0  0  0  0  0
    0.4623   -3.2893    3.9473 H   0  0  0  0  0  0  0  0  0  0  0  0
    3.5653   -3.7911    6.6830 H   0  0  0  0  0  0  0  0  0  0  0  0
    5.6793   -2.6624    3.4392 H   0  0  0  0  0  0  0  0  0  0  0  0
    6.1034   -0.2456    2.1263 H   0  0  0  0  0  0  0  0  0  0  0  0
    4.5815    0.1249    1.3117 H   0  0  0  0  0  0  0  0  0  0  0  0
    5.2164   -1.5113    1.3060 H   0  0  0  0  0  0  0  0  0  0  0  0
    3.7342    0.1232    5.0319 H   0  0  0  0  0  0  0  0  0  0  0  0
    4.9976    0.9440    4.1606 H   0  0  0  0  0  0  0  0  0  0  0  0
    2.8145    2.1120    3.9520 H   0  0  0  0  0  0  0  0  0  0  0  0
    3.4009    1.6157    2.4118 H   0  0  0  0  0  0  0  0  0  0  0  0
    0.4703    1.8540    4.2988 H   0  0  0  0  0  0  0  0  0  0  0  0
    1.0524    0.4338    5.1596 H   0  0  0  0  0  0  0  0  0  0  0  0
   -0.3017    0.2986    4.0422 H   0  0  0  0  0  0  0  0  0  0  0  0
    0.9173    2.0767    1.7343 H   0  0  0  0  0  0  0  0  0  0  0  0
    0.0959    0.5357    1.5048 H   0  0  0  0  0  0  0  0  0  0  0  0
    1.7255    0.7539    0.8946 H   0  0  0  0  0  0  0  0  0  0  0  0
    0.9307   -1.6009    2.9361 H   0  0  0  0  0  0  0  0  0  0  0  0
    3.6489   -3.3488    1.1722 H   0  0  0  0  0  0  0  0  0  0  0  0
    4.6673   -4.4040    2.1157 H   0  0  0  0  0  0  0  0  0  0  0  0
    1.6646   -4.6283    1.7755 H   0  0  0  0  0  0  0  0  0  0  0  0
    2.8794   -5.7022    1.1668 H   0  0  0  0  0  0  0  0  0  0  0  0
    3.5879   -5.9705    3.6614 H   0  0  0  0  0  0  0  0  0  0  0  0
    2.7838   -8.8084    1.7976 H   0  0  0  0  0  0  0  0  0  0  0  0
    3.8403   -8.5578    3.1918 H   0  0  0  0  0  0  0  0  0  0  0  0
    3.7914   -7.4308    1.8982 H   0  0  0  0  0  0  0  0  0  0  0  0
   -0.0682   -6.7673    2.8296 H   0  0  0  0  0  0  0  0  0  0  0  0
    0.8703   -7.0614    1.3981 H   0  0  0  0  0  0  0  0  0  0  0  0
   -0.8738   -8.7723    1.8362 H   0  0  0  0  0  0  0  0  0  0  0  0
    0.7055   -9.4786    1.7468 H   0  0  0  0  0  0  0  0  0  0  0  0
   -0.9136   -8.8728    4.2472 H   0  0  0  0  0  0  0  0  0  0  0  0
   -0.5152  -10.4446    3.6298 H   0  0  0  0  0  0  0  0  0  0  0  0
    1.5559   -9.9214    6.7104 H   0  0  0  0  0  0  0  0  0  0  0  0
    0.5501  -11.1026    5.8873 H   0  0  0  0  0  0  0  0  0  0  0  0
   -0.1735   -9.6288    6.3602 H   0  0  0  0  0  0  0  0  0  0  0  0
    3.1528  -10.3775    4.4602 H   0  0  0  0  0  0  0  0  0  0  0  0
    2.2452  -10.4788    2.9519 H   0  0  0  0  0  0  0  0  0  0  0  0
    1.8442  -11.5218    4.2446 H   0  0  0  0  0  0  0  0  0  0  0  0
    2.7052   -8.0518    5.1957 H   0  0  0  0  0  0  0  0  0  0  0  0
   -0.0870   -6.8892    5.1505 H   0  0  0  0  0  0  0  0  0  0  0  0
    0.3976   -8.2937    6.8930 H   0  0  0  0  0  0  0  0  0  0  0  0
    2.3392   -5.5889    6.4933 H   0  0  0  0  0  0  0  0  0  0  0  0
  1  2  2  0
  1 35  1  0
  1 36  1  0
  2 34  1  0
  2  3  1  0
  4  3  1  6
  3 37  1  0
  3 38  1  0
  4 22  1  0
  4 34  1  0
  4  5  1  0
  5 19  1  0
  5  6  2  0
  6  7  1  0
  6 39  1  0
  7  8  2  0
  7  9  1  0
  9 19  1  0
  9 10  1  0
  9 40  1  6
 10 18  1  0
 10 11  1  6
 10 12  1  0
 11 41  1  0
 11 42  1  0
 11 43  1  0
 12 13  1  0
 12 44  1  0
 12 45  1  0
 13 14  1  0
 13 46  1  0
 13 47  1  0
 14 15  1  0
 14 16  1  0
 14 17  1  0
 15 48  1  0
 15 49  1  0
 15 50  1  0
 16 51  1  0
 16 52  1  0
 16 53  1  0
 17 18  2  0
 17 54  1  0
 18 19  1  0
 19 20  1  6
 20 21  1  0
 20 55  1  0
 20 56  1  0
 21 22  1  0
 21 57  1  0
 21 58  1  0
 22 23  1  0
 22 59  1  1
 23 31  1  0
 23 24  1  6
 23 25  1  0
 24 60  1  0
 24 61  1  0
 24 62  1  0
 25 26  1  0
 25 63  1  0
 25 64  1  0
 26 27  1  0
 26 65  1  0
 26 66  1  0
 27 28  1  0
 27 67  1  0
 27 68  1  0
 28 29  1  0
 28 30  1  0
 28 31  1  0
 29 69  1  0
 29 70  1  0
 29 71  1  0
 30 72  1  0
 30 73  1  0
 30 74  1  0
 31 32  1  0
 31 75  1  1
 32 33  1  0
 32 34  1  0
 32 76  1  6
 33 77  1  0
 34 78  1  1
M  END
>  <i_m_ct_stereo_status>  (270) 
1

>  <s_m_source_file>  (270) 
/var/tmp/pbs.5076255.sched01/tmpagfdxo7m/88tnrj_5ym.sdf

>  <i_m_source_file_index>  (270) 
23

>  <i_lp_mmshare_version>  (270) 
48012

>  <i_f3d_flags>  (270) 
0

>  <s_epik_input>  (270) 
W0NIMl09QyhbQ0gyXTEpW0NASF0yW0NIXShbT0hdKVtDQEBIXShDKFtDSDNdKShbQ0gzXSlbQ0gyXVtDSDJdW0NIMl0zKVtDQF0zKFtDSDNdKVtDQEhdNFtDSDJdW0NIMl1bQ0BAXTUoQz02W0NAXTEyNClbQ0BIXShDKD1PKVtDSF02KVtDQEBdNyhbQ0gzXSlDNT1bQ0hdQyhbQ0gzXSkoW0NIM10pW0NIMl1bQ0gyXTc=

>  <s_epik_cmdline>  (270) 
J2VwaWtfcHl0aG9uJywgJy1waHQnLCAnMi4wJywgJy1waCcsICc3LjAnLCAnLXRuJywgJzgnLCAnLW1hJywgJzIwMCcsICctaW1hZScsICc8aW5maWxlLm1hZT4nLCAnLW9tYWUnLCAnPG91dGZpbGUubWFlPic=

>  <r_lp_tautomer_probability>  (270) 
1

>  <r_epik_Ionization_Penalty>  (270) 
6.54471e-07

>  <r_epik_Ionization_Penalty_Charging>  (270) 
0

>  <r_epik_Ionization_Penalty_Neutral>  (270) 
6.54471e-07

>  <r_epik_State_Penalty>  (270) 
-0

>  <r_epik_Charging_Adjusted_Penalty>  (270) 
0

>  <i_epik_Tot_Q>  (270) 
0

>  <i_epik_Tot_abs_Q>  (270) 
0

>  <s_lp_Force_Field>  (270) 
OPLS3e

>  <r_lp_Energy>  (270) 
91.8583

>  <b_lp_Chiralities_Consistent>  (270) 
1

>  <s_lp_Variant>  (270) 
78:0-1

>  <s_i_glide_gridfile>  (270) 
pfpi4k_grid

>  <i_i_glide_lignum>  (270) 
23

>  <i_i_glide_rotatable_bonds>  (270) 
1

>  <r_i_docking_score>  (270) 
-1.93032

>  <r_i_glide_ligand_efficiency>  (270) 
-0.0567742

>  <r_i_glide_ligand_efficiency_sa>  (270) 
-0.183926

>  <r_i_glide_ligand_efficiency_ln>  (270) 
-0.426462

>  <r_i_glide_gscore>  (270) 
-1.93032

>  <r_i_glide_lipo>  (270) 
-0.225697

>  <r_i_glide_hbond>  (270) 
0

>  <r_i_glide_metal>  (270) 
-0

>  <r_i_glide_rewards>  (270) 
-0.293428

>  <r_i_glide_evdw>  (270) 
-23.1414

>  <r_i_glide_ecoul>  (270) 
-1.69417

>  <r_i_glide_erotb>  (270) 
0

>  <r_i_glide_esite>  (270) 
0

>  <r_i_glide_emodel>  (270) 
-27.1435

>  <r_i_glide_energy>  (270) 
-24.8356

>  <r_i_glide_einternal>  (270) 
0.469494

>  <r_i_glide_intrahb_reward>  (270) 
-0

>  <i_i_glide_confnum>  (270) 
1

>  <i_i_glide_posenum>  (270) 
14

>  <r_i_glide_eff_state_penalty>  (270) 
0

>  <ligand_id>  (270) 
78

>  <original_smiles>  (270) 
C=C1CC23C4=CC(=O)C5C6(C)CCC(C)(C)C=C6C45CCC2C2(C)CCCC(C)(C)C2C(O)C13

>  <smiles>  (270) 
[H]OC1([H])C2([H])C(=C([H])[H])C([H])([H])C23C2=C([H])C(=O)C4([H])C2(C2=C([H])C(C([H])([H])[H])(C([H])([H])[H])C([H])([H])C([H])([H])C24C([H])([H])[H])C([H])([H])C([H])([H])C3([H])C2(C([H])([H])[H])C([H])([H])C([H])([H])C([H])([H])C(C([H])([H])[H])(C([H])([H])[H])C12[H]

$$$$
78:0:2
     RDKit          3D

 78 84  0  0  1  0  0  0  0  0999 V2000
   -0.0557   -3.9225    6.7799 C   0  0  0  0  0  0  0  0  0  0  0  0
    0.5327   -4.5989    5.7835 C   0  0  0  0  0  0  0  0  0  0  0  0
    0.5373   -4.4068    4.2944 C   0  0  0  0  0  0  0  0  0  0  0  0
    1.9754   -4.9814    4.4127 C   0  0  2  0  0  0  0  0  0  0  0  0
    2.9966   -3.8172    4.5645 C   0  0  0  0  0  0  0  0  0  0  0  0
    3.6666   -3.4722    5.6764 C   0  0  0  0  0  0  0  0  0  0  0  0
    4.7209   -2.5148    5.3627 C   0  0  0  0  0  0  0  0  0  0  0  0
    5.4421   -1.9817    6.2014 O   0  0  0  0  0  0  0  0  0  0  0  0
    4.7559   -2.3628    3.8674 C   0  0  2  0  0  0  0  0  0  0  0  0
    4.3628   -1.0111    3.2267 C   0  0  2  0  0  0  0  0  0  0  0  0
    5.0969   -0.6980    1.9184 C   0  0  0  0  0  0  0  0  0  0  0  0
    4.0766    0.2682    4.0277 C   0  0  0  0  0  0  0  0  0  0  0  0
    2.9895    1.1335    3.3455 C   0  0  0  0  0  0  0  0  0  0  0  0
    1.6428    0.3996    3.0494 C   0  0  0  0  0  0  0  0  0  0  0  0
    0.6499    0.6838    4.1934 C   0  0  0  0  0  0  0  0  0  0  0  0
    1.0566    0.9046    1.7185 C   0  0  0  0  0  0  0  0  0  0  0  0
    1.8316   -1.1136    2.9578 C   0  0  0  0  0  0  0  0  0  0  0  0
    3.0354   -1.6976    3.0176 C   0  0  0  0  0  0  0  0  0  0  0  0
    3.5243   -3.1211    3.3029 C   0  0  2  0  0  0  0  0  0  0  0  0
    3.6883   -4.0245    2.0736 C   0  0  0  0  0  0  0  0  0  0  0  0
    2.6455   -5.1502    1.9901 C   0  0  0  0  0  0  0  0  0  0  0  0
    2.5589   -5.9166    3.3317 C   0  0  2  0  0  0  0  0  0  0  0  0
    2.0236   -7.4075    3.2357 C   0  0  2  0  0  0  0  0  0  0  0  0
    3.1700   -8.1612    2.4792 C   0  0  0  0  0  0  0  0  0  0  0  0
    0.7158   -7.5061    2.3869 C   0  0  0  0  0  0  0  0  0  0  0  0
    0.1049   -8.9162    2.3149 C   0  0  0  0  0  0  0  0  0  0  0  0
   -0.1124   -9.5323    3.6970 C   0  0  0  0  0  0  0  0  0  0  0  0
    1.1641   -9.5445    4.5631 C   0  0  0  0  0  0  0  0  0  0  0  0
    0.7701  -10.1464    5.9289 C   0  0  0  0  0  0  0  0  0  0  0  0
    2.1737  -10.5930    3.9981 C   0  0  0  0  0  0  0  0  0  0  0  0
    1.7525   -8.0648    4.6655 C   0  0  2  0  0  0  0  0  0  0  0  0
    0.9064   -7.0848    5.5654 C   0  0  1  0  0  0  0  0  0  0  0  0
    0.6746   -7.4855    6.8979 O   0  0  0  0  0  0  0  0  0  0  0  0
    1.5543   -5.7047    5.7212 C   0  0  2  0  0  0  0  0  0  0  0  0
    0.1281   -4.1803    7.8129 H   0  0  0  0  0  0  0  0  0  0  0  0
   -0.7175   -3.0935    6.5585 H   0  0  0  0  0  0  0  0  0  0  0  0
   -0.1482   -5.0523    3.7591 H   0  0  0  0  0  0  0  0  0  0  0  0
    0.4649   -3.3922    3.9277 H   0  0  0  0  0  0  0  0  0  0  0  0
    3.5662   -3.8906    6.6682 H   0  0  0  0  0  0  0  0  0  0  0  0
    5.6813   -2.7488    3.4319 H   0  0  0  0  0  0  0  0  0  0  0  0
    6.0997   -0.3150    2.1260 H   0  0  0  0  0  0  0  0  0  0  0  0
    4.5775    0.0415    1.3097 H   0  0  0  0  0  0  0  0  0  0  0  0
    5.2222   -1.5906    1.3043 H   0  0  0  0  0  0  0  0  0  0  0  0
    3.7213    0.0247    5.0290 H   0  0  0  0  0  0  0  0  0  0  0  0
    4.9877    0.8516    4.1654 H   0  0  0  0  0  0  0  0  0  0  0  0
    2.8034    2.0156    3.9536 H   0  0  0  0  0  0  0  0  0  0  0  0
    3.3935    1.5258    2.4137 H   0  0  0  0  0  0  0  0  0  0  0  0
    0.4562    1.7517    4.2916 H   0  0  0  0  0  0  0  0  0  0  0  0
    1.0403    0.3316    5.1500 H   0  0  0  0  0  0  0  0  0  0  0  0
   -0.3106    0.1941    4.0285 H   0  0  0  0  0  0  0  0  0  0  0  0
    0.9127    1.9845    1.7292 H   0  0  0  0  0  0  0  0  0  0  0  0
    0.0949    0.4443    1.4930 H   0  0  0  0  0  0  0  0  0  0  0  0
    1.7262    0.6630    0.8909 H   0  0  0  0  0  0  0  0  0  0  0  0
    0.9311   -1.6991    2.9216 H   0  0  0  0  0  0  0  0  0  0  0  0
    3.6584   -3.4350    1.1605 H   0  0  0  0  0  0  0  0  0  0  0  0
    4.6757   -4.4904    2.1048 H   0  0  0  0  0  0  0  0  0  0  0  0
    1.6752   -4.7225    1.7537 H   0  0  0  0  0  0  0  0  0  0  0  0
    2.8961   -5.7917    1.1459 H   0  0  0  0  0  0  0  0  0  0  0  0
    3.5960   -6.0648    3.6416 H   0  0  0  0  0  0  0  0  0  0  0  0
    2.8056   -8.8991    1.7691 H   0  0  0  0  0  0  0  0  0  0  0  0
    3.8575   -8.6507    3.1665 H   0  0  0  0  0  0  0  0  0  0  0  0
    3.8082   -7.5208    1.8763 H   0  0  0  0  0  0  0  0  0  0  0  0
   -0.0550   -6.8682    2.8002 H   0  0  0  0  0  0  0  0  0  0  0  0
    0.8879   -7.1548    1.3687 H   0  0  0  0  0  0  0  0  0  0  0  0
   -0.8538   -8.8693    1.7978 H   0  0  0  0  0  0  0  0  0  0  0  0
    0.7296   -9.5721    1.7106 H   0  0  0  0  0  0  0  0  0  0  0  0
   -0.8982   -8.9781    4.2071 H   0  0  0  0  0  0  0  0  0  0  0  0
   -0.4943  -10.5479    3.5863 H   0  0  0  0  0  0  0  0  0  0  0  0
    1.5640  -10.0366    6.6696 H   0  0  0  0  0  0  0  0  0  0  0  0
    0.5481  -11.2077    5.8289 H   0  0  0  0  0  0  0  0  0  0  0  0
   -0.1509   -9.7198    6.3216 H   0  0  0  0  0  0  0  0  0  0  0  0
    3.1710  -10.4732    4.4256 H   0  0  0  0  0  0  0  0  0  0  0  0
    2.2677  -10.5753    2.9150 H   0  0  0  0  0  0  0  0  0  0  0  0
    1.8656  -11.6219    4.2072 H   0  0  0  0  0  0  0  0  0  0  0  0
    2.7147   -8.1571    5.1663 H   0  0  0  0  0  0  0  0  0  0  0  0
   -0.0802   -6.9887    5.1151 H   0  0  0  0  0  0  0  0  0  0  0  0
    1.4958   -7.7464    7.2833 H   0  0  0  0  0  0  0  0  0  0  0  0
    2.3435   -5.6900    6.4700 H   0  0  0  0  0  0  0  0  0  0  0  0
  1  2  2  0
  1 35  1  0
  1 36  1  0
  2 34  1  0
  2  3  1  0
  4  3  1  6
  3 37  1  0
  3 38  1  0
  4 22  1  0
  4 34  1  0
  4  5  1  0
  5 19  1  0
  5  6  2  0
  6  7  1  0
  6 39  1  0
  7  8  2  0
  7  9  1  0
  9 19  1  0
  9 10  1  0
  9 40  1  6
 10 18  1  0
 10 11  1  6
 10 12  1  0
 11 41  1  0
 11 42  1  0
 11 43  1  0
 12 13  1  0
 12 44  1  0
 12 45  1  0
 13 14  1  0
 13 46  1  0
 13 47  1  0
 14 15  1  0
 14 16  1  0
 14 17  1  0
 15 48  1  0
 15 49  1  0
 15 50  1  0
 16 51  1  0
 16 52  1  0
 16 53  1  0
 17 18  2  0
 17 54  1  0
 18 19  1  0
 19 20  1  6
 20 21  1  0
 20 55  1  0
 20 56  1  0
 21 22  1  0
 21 57  1  0
 21 58  1  0
 22 23  1  0
 22 59  1  1
 23 31  1  0
 23 24  1  6
 23 25  1  0
 24 60  1  0
 24 61  1  0
 24 62  1  0
 25 26  1  0
 25 63  1  0
 25 64  1  0
 26 27  1  0
 26 65  1  0
 26 66  1  0
 27 28  1  0
 27 67  1  0
 27 68  1  0
 28 29  1  0
 28 30  1  0
 28 31  1  0
 29 69  1  0
 29 70  1  0
 29 71  1  0
 30 72  1  0
 30 73  1  0
 30 74  1  0
 31 32  1  0
 31 75  1  1
 32 33  1  0
 32 34  1  0
 32 76  1  6
 33 77  1  0
 34 78  1  1
M  END
>  <i_m_ct_stereo_status>  (271) 
1

>  <s_m_source_file>  (271) 
/var/tmp/pbs.5076255.sched01/tmpagfdxo7m/88tnrj_5ym.sdf

>  <i_m_source_file_index>  (271) 
23

>  <i_lp_mmshare_version>  (271) 
48012

>  <i_f3d_flags>  (271) 
0

>  <s_epik_input>  (271) 
W0NIMl09QyhbQ0gyXTEpW0NASF0yW0NIXShbT0hdKVtDQEBIXShDKFtDSDNdKShbQ0gzXSlbQ0gyXVtDSDJdW0NIMl0zKVtDQF0zKFtDSDNdKVtDQEhdNFtDSDJdW0NIMl1bQ0BAXTUoQz02W0NAXTEyNClbQ0BIXShDKD1PKVtDSF02KVtDQEBdNyhbQ0gzXSlDNT1bQ0hdQyhbQ0gzXSkoW0NIM10pW0NIMl1bQ0gyXTc=

>  <s_epik_cmdline>  (271) 
J2VwaWtfcHl0aG9uJywgJy1waHQnLCAnMi4wJywgJy1waCcsICc3LjAnLCAnLXRuJywgJzgnLCAnLW1hJywgJzIwMCcsICctaW1hZScsICc8aW5maWxlLm1hZT4nLCAnLW9tYWUnLCAnPG91dGZpbGUubWFlPic=

>  <r_lp_tautomer_probability>  (271) 
1

>  <r_epik_Ionization_Penalty>  (271) 
6.54471e-07

>  <r_epik_Ionization_Penalty_Charging>  (271) 
0

>  <r_epik_Ionization_Penalty_Neutral>  (271) 
6.54471e-07

>  <r_epik_State_Penalty>  (271) 
-0

>  <r_epik_Charging_Adjusted_Penalty>  (271) 
0

>  <i_epik_Tot_Q>  (271) 
0

>  <i_epik_Tot_abs_Q>  (271) 
0

>  <s_lp_Force_Field>  (271) 
OPLS3e

>  <r_lp_Energy>  (271) 
91.8583

>  <b_lp_Chiralities_Consistent>  (271) 
1

>  <s_lp_Variant>  (271) 
78:0-1

>  <s_i_glide_gridfile>  (271) 
pfpi4k_grid

>  <i_i_glide_lignum>  (271) 
23

>  <i_i_glide_rotatable_bonds>  (271) 
1

>  <r_i_docking_score>  (271) 
-1.90789

>  <r_i_glide_ligand_efficiency>  (271) 
-0.0561144

>  <r_i_glide_ligand_efficiency_sa>  (271) 
-0.181789

>  <r_i_glide_ligand_efficiency_ln>  (271) 
-0.421506

>  <r_i_glide_gscore>  (271) 
-1.90789

>  <r_i_glide_lipo>  (271) 
-0.215565

>  <r_i_glide_hbond>  (271) 
0

>  <r_i_glide_metal>  (271) 
-0

>  <r_i_glide_rewards>  (271) 
-0.292173

>  <r_i_glide_evdw>  (271) 
-23.153

>  <r_i_glide_ecoul>  (271) 
-1.61669

>  <r_i_glide_erotb>  (271) 
0

>  <r_i_glide_esite>  (271) 
0

>  <r_i_glide_emodel>  (271) 
-27.1302

>  <r_i_glide_energy>  (271) 
-24.7696

>  <r_i_glide_einternal>  (271) 
0.121954

>  <r_i_glide_intrahb_reward>  (271) 
-0

>  <i_i_glide_confnum>  (271) 
2

>  <i_i_glide_posenum>  (271) 
22

>  <r_i_glide_eff_state_penalty>  (271) 
0

>  <ligand_id>  (271) 
78

>  <original_smiles>  (271) 
C=C1CC23C4=CC(=O)C5C6(C)CCC(C)(C)C=C6C45CCC2C2(C)CCCC(C)(C)C2C(O)C13

>  <smiles>  (271) 
[H]OC1([H])C2([H])C(=C([H])[H])C([H])([H])C23C2=C([H])C(=O)C4([H])C2(C2=C([H])C(C([H])([H])[H])(C([H])([H])[H])C([H])([H])C([H])([H])C24C([H])([H])[H])C([H])([H])C([H])([H])C3([H])C2(C([H])([H])[H])C([H])([H])C([H])([H])C([H])([H])C(C([H])([H])[H])(C([H])([H])[H])C12[H]

$$$$
79:0:0
     RDKit          3D

 47 50  0  0  1  0  0  0  0  0999 V2000
    8.8348   -3.8589    0.7192 C   0  0  0  0  0  0  0  0  0  0  0  0
    7.6877   -2.9529    0.3006 C   0  0  0  0  0  0  0  0  0  0  0  0
    7.8403   -2.1623   -0.6167 O   0  0  0  0  0  0  0  0  0  0  0  0
    6.5552   -3.2102    0.9938 O   0  0  0  0  0  0  0  0  0  0  0  0
    5.3990   -2.5651    0.6461 C   0  0  0  0  0  0  0  0  0  0  0  0
    4.6798   -1.8874    1.5820 C   0  0  0  0  0  0  0  0  0  0  0  0
    3.3050   -1.3918    1.2094 C   0  0  0  0  0  0  0  0  0  0  0  0
    2.5508   -2.6974    1.0676 C   0  0  2  0  0  0  0  0  0  0  0  0
    2.5003   -3.3594    2.5017 C   0  0  0  0  0  0  0  0  0  0  0  0
    3.5089   -2.8122    3.5612 C   0  0  2  0  0  0  0  0  0  0  0  0
    4.7769   -2.1009    3.0391 C   0  0  1  0  0  0  0  0  0  0  0  0
    4.8666   -3.4193    3.8085 C   0  0  0  0  0  0  0  0  0  0  0  0
    5.3962   -3.3817    5.2406 C   0  0  0  0  0  0  0  0  0  0  0  0
    5.2464   -4.7405    3.1678 C   0  0  0  0  0  0  0  0  0  0  0  0
    3.1509   -3.5165   -0.1730 C   0  0  1  0  0  0  0  0  0  0  0  0
    3.1374   -4.8839    0.1880 O   0  0  0  0  0  0  0  0  0  0  0  0
    2.2026   -3.4454   -1.3708 C   0  0  0  0  0  0  0  0  0  0  0  0
    2.4521   -2.8290   -2.5358 C   0  0  0  0  0  0  0  0  0  0  0  0
    3.7443   -2.1184   -2.8888 C   0  0  0  0  0  0  0  0  0  0  0  0
    4.6305   -1.9339   -1.6635 C   0  0  0  0  0  0  0  0  0  0  0  0
    5.3504   -0.9506   -1.5758 O   0  0  0  0  0  0  0  0  0  0  0  0
    4.6483   -3.0718   -0.6018 C   0  0  1  0  0  0  0  0  0  0  0  0
    5.3457   -4.2502   -1.3042 C   0  0  0  0  0  0  0  0  0  0  0  0
    8.6044   -4.4135    1.6309 H   0  0  0  0  0  0  0  0  0  0  0  0
    9.7203   -3.2503    0.8841 H   0  0  0  0  0  0  0  0  0  0  0  0
    9.0407   -4.5666   -0.0900 H   0  0  0  0  0  0  0  0  0  0  0  0
    2.8768   -0.7559    1.9960 H   0  0  0  0  0  0  0  0  0  0  0  0
    3.2785   -0.8050    0.3014 H   0  0  0  0  0  0  0  0  0  0  0  0
    1.5380   -2.4134    0.8275 H   0  0  0  0  0  0  0  0  0  0  0  0
    1.5007   -3.1349    2.9119 H   0  0  0  0  0  0  0  0  0  0  0  0
    2.5419   -4.4441    2.4967 H   0  0  0  0  0  0  0  0  0  0  0  0
    3.0312   -2.3582    4.4068 H   0  0  0  0  0  0  0  0  0  0  0  0
    5.0384   -1.1937    3.5608 H   0  0  0  0  0  0  0  0  0  0  0  0
    6.4842   -3.4312    5.2739 H   0  0  0  0  0  0  0  0  0  0  0  0
    5.0069   -4.2216    5.8178 H   0  0  0  0  0  0  0  0  0  0  0  0
    5.0889   -2.4593    5.7239 H   0  0  0  0  0  0  0  0  0  0  0  0
    6.3356   -4.8304    3.1057 H   0  0  0  0  0  0  0  0  0  0  0  0
    4.8340   -4.8073    2.1645 H   0  0  0  0  0  0  0  0  0  0  0  0
    4.8561   -5.5761    3.7599 H   0  0  0  0  0  0  0  0  0  0  0  0
    3.3532   -5.3867   -0.6002 H   0  0  0  0  0  0  0  0  0  0  0  0
    1.2391   -3.9137   -1.2388 H   0  0  0  0  0  0  0  0  0  0  0  0
    1.6993   -2.8250   -3.3105 H   0  0  0  0  0  0  0  0  0  0  0  0
    4.2759   -2.6641   -3.6691 H   0  0  0  0  0  0  0  0  0  0  0  0
    3.4978   -1.1348   -3.2929 H   0  0  0  0  0  0  0  0  0  0  0  0
    6.2590   -3.9310   -1.7828 H   0  0  0  0  0  0  0  0  0  0  0  0
    4.7094   -4.6798   -2.0888 H   0  0  0  0  0  0  0  0  0  0  0  0
    5.5594   -5.0651   -0.6068 H   0  0  0  0  0  0  0  0  0  0  0  0
  1  2  1  0
  1 24  1  0
  1 25  1  0
  1 26  1  0
  2  3  2  0
  2  4  1  0
  4  5  1  0
  5 22  1  0
  5  6  2  0
  6 11  1  0
  6  7  1  0
  7  8  1  0
  7 27  1  0
  7 28  1  0
  8  9  1  0
  8 15  1  0
  8 29  1  6
  9 10  1  0
  9 30  1  0
  9 31  1  0
 10 12  1  0
 10 11  1  0
 10 32  1  1
 11 12  1  0
 11 33  1  1
 12 13  1  0
 12 14  1  0
 13 34  1  0
 13 35  1  0
 13 36  1  0
 14 37  1  0
 14 38  1  0
 14 39  1  0
 15 22  1  0
 15 16  1  1
 15 17  1  0
 16 40  1  0
 17 18  2  0
 17 41  1  0
 18 19  1  0
 18 42  1  0
 19 20  1  0
 19 43  1  0
 19 44  1  0
 20 21  2  0
 20 22  1  0
 22 23  1  6
 23 45  1  0
 23 46  1  0
 23 47  1  0
M  END
>  <i_m_ct_stereo_status>  (272) 
1

>  <s_m_source_file>  (272) 
/var/tmp/pbs.5076255.sched01/tmpagfdxo7m/88tnrj_5ym.sdf

>  <i_m_source_file_index>  (272) 
24

>  <i_lp_mmshare_version>  (272) 
48012

>  <i_f3d_flags>  (272) 
0

>  <s_epik_input>  (272) 
W0NIXTE9W0NIXVtDSDJdQyg9TylbQ0BAXTIoW0NIM10pQyhPQyg9TylbQ0gzXSk9QyhbQ0gyXVtDQEhdM1tDQEBdMTJbT0hdKVtDQEhdNFtDQEBIXShbQ0gyXTMpQzQoW0NIM10pW0NIM10=

>  <s_epik_cmdline>  (272) 
J2VwaWtfcHl0aG9uJywgJy1waHQnLCAnMi4wJywgJy1waCcsICc3LjAnLCAnLXRuJywgJzgnLCAnLW1hJywgJzIwMCcsICctaW1hZScsICc8aW5maWxlLm1hZT4nLCAnLW9tYWUnLCAnPG91dGZpbGUubWFlPic=

>  <r_lp_tautomer_probability>  (272) 
1

>  <r_epik_Ionization_Penalty>  (272) 
6.51074e-07

>  <r_epik_Ionization_Penalty_Charging>  (272) 
0

>  <r_epik_Ionization_Penalty_Neutral>  (272) 
6.51074e-07

>  <r_epik_State_Penalty>  (272) 
-0

>  <r_epik_Charging_Adjusted_Penalty>  (272) 
0

>  <i_epik_Tot_Q>  (272) 
0

>  <i_epik_Tot_abs_Q>  (272) 
0

>  <s_lp_Force_Field>  (272) 
OPLS3e

>  <r_lp_Energy>  (272) 
68.6865

>  <b_lp_Chiralities_Consistent>  (272) 
1

>  <s_lp_Variant>  (272) 
79:0-1

>  <s_i_glide_gridfile>  (272) 
pfpi4k_grid

>  <i_i_glide_lignum>  (272) 
24

>  <i_i_glide_rotatable_bonds>  (272) 
3

>  <r_i_docking_score>  (272) 
-3.95512

>  <r_i_glide_ligand_efficiency>  (272) 
-0.171962

>  <r_i_glide_ligand_efficiency_sa>  (272) 
-0.489037

>  <r_i_glide_ligand_efficiency_ln>  (272) 
-0.956385

>  <r_i_glide_gscore>  (272) 
-3.95512

>  <r_i_glide_lipo>  (272) 
-0.3289

>  <r_i_glide_hbond>  (272) 
-0.382458

>  <r_i_glide_metal>  (272) 
-0

>  <r_i_glide_rewards>  (272) 
-1.50939

>  <r_i_glide_evdw>  (272) 
-23.3404

>  <r_i_glide_ecoul>  (272) 
-4.80891

>  <r_i_glide_erotb>  (272) 
0.185969

>  <r_i_glide_esite>  (272) 
-0.031987

>  <r_i_glide_emodel>  (272) 
-32.5283

>  <r_i_glide_energy>  (272) 
-28.1493

>  <r_i_glide_einternal>  (272) 
4.508

>  <r_i_glide_intrahb_reward>  (272) 
-0

>  <i_i_glide_confnum>  (272) 
4

>  <i_i_glide_posenum>  (272) 
36

>  <r_i_glide_eff_state_penalty>  (272) 
0

>  <ligand_id>  (272) 
79

>  <original_smiles>  (272) 
CC(=O)OC1=C2CC(CC3C2C3(C)C)C2(O)C=CCC(=O)C12C

>  <smiles>  (272) 
[H]OC12C([H])=C([H])C([H])([H])C(=O)C1(C([H])([H])[H])C(OC(=O)C([H])([H])[H])=C1C([H])([H])C2([H])C([H])([H])C2([H])C1([H])C2(C([H])([H])[H])C([H])([H])[H]

$$$$
79:0:1
     RDKit          3D

 47 50  0  0  1  0  0  0  0  0999 V2000
    1.1133   -0.8767    2.0978 C   0  0  0  0  0  0  0  0  0  0  0  0
    2.5451   -0.9629    1.6052 C   0  0  0  0  0  0  0  0  0  0  0  0
    3.2195    0.0487    1.4020 O   0  0  0  0  0  0  0  0  0  0  0  0
    2.9098   -2.2569    1.4995 O   0  0  0  0  0  0  0  0  0  0  0  0
    4.2284   -2.6219    1.5565 C   0  0  0  0  0  0  0  0  0  0  0  0
    5.2428   -2.0440    0.8713 C   0  0  0  0  0  0  0  0  0  0  0  0
    6.6167   -2.6511    1.0165 C   0  0  0  0  0  0  0  0  0  0  0  0
    6.4372   -3.9991    0.3605 C   0  0  2  0  0  0  0  0  0  0  0  0
    6.1521   -3.6963   -1.1646 C   0  0  0  0  0  0  0  0  0  0  0  0
    5.7323   -2.2521   -1.5270 C   0  0  2  0  0  0  0  0  0  0  0  0
    5.1124   -1.3749   -0.4392 C   0  0  1  0  0  0  0  0  0  0  0  0
    4.2960   -1.8144   -1.6557 C   0  0  0  0  0  0  0  0  0  0  0  0
    3.9587   -0.7817   -2.7034 C   0  0  0  0  0  0  0  0  0  0  0  0
    3.1741   -2.8229   -1.5875 C   0  0  0  0  0  0  0  0  0  0  0  0
    5.3982   -4.8576    1.2251 C   0  0  1  0  0  0  0  0  0  0  0  0
    4.6128   -5.5986    0.3085 O   0  0  0  0  0  0  0  0  0  0  0  0
    6.1765   -5.9020    2.0101 C   0  0  0  0  0  0  0  0  0  0  0  0
    6.2663   -5.9665    3.3521 C   0  0  0  0  0  0  0  0  0  0  0  0
    5.5984   -5.0037    4.3158 C   0  0  0  0  0  0  0  0  0  0  0  0
    5.0217   -3.7847    3.5979 C   0  0  0  0  0  0  0  0  0  0  0  0
    5.0034   -2.6915    4.1579 O   0  0  0  0  0  0  0  0  0  0  0  0
    4.4292   -4.0017    2.1808 C   0  0  1  0  0  0  0  0  0  0  0  0
    3.0688   -4.7082    2.4301 C   0  0  0  0  0  0  0  0  0  0  0  0
    0.6738   -1.8741    2.1175 H   0  0  0  0  0  0  0  0  0  0  0  0
    0.4996   -0.2415    1.4546 H   0  0  0  0  0  0  0  0  0  0  0  0
    1.1186   -0.4918    3.1130 H   0  0  0  0  0  0  0  0  0  0  0  0
    7.3926   -2.0403    0.5411 H   0  0  0  0  0  0  0  0  0  0  0  0
    6.9019   -2.7470    2.0623 H   0  0  0  0  0  0  0  0  0  0  0  0
    7.3950   -4.5227    0.3922 H   0  0  0  0  0  0  0  0  0  0  0  0
    7.1003   -3.8573   -1.6794 H   0  0  0  0  0  0  0  0  0  0  0  0
    5.4571   -4.3946   -1.6324 H   0  0  0  0  0  0  0  0  0  0  0  0
    6.4247   -1.7807   -2.2166 H   0  0  0  0  0  0  0  0  0  0  0  0
    5.4700   -0.3482   -0.4016 H   0  0  0  0  0  0  0  0  0  0  0  0
    3.0100   -0.3224   -2.4312 H   0  0  0  0  0  0  0  0  0  0  0  0
    3.8390   -1.2377   -3.6895 H   0  0  0  0  0  0  0  0  0  0  0  0
    4.7334   -0.0203   -2.7465 H   0  0  0  0  0  0  0  0  0  0  0  0
    2.2503   -2.3279   -1.2862 H   0  0  0  0  0  0  0  0  0  0  0  0
    3.3943   -3.6039   -0.8623 H   0  0  0  0  0  0  0  0  0  0  0  0
    3.0124   -3.2762   -2.5711 H   0  0  0  0  0  0  0  0  0  0  0  0
    4.1764   -4.9914   -0.2730 H   0  0  0  0  0  0  0  0  0  0  0  0
    6.6710   -6.6569    1.4137 H   0  0  0  0  0  0  0  0  0  0  0  0
    6.8186   -6.7725    3.8137 H   0  0  0  0  0  0  0  0  0  0  0  0
    4.8167   -5.5195    4.8715 H   0  0  0  0  0  0  0  0  0  0  0  0
    6.3414   -4.6767    5.0442 H   0  0  0  0  0  0  0  0  0  0  0  0
    2.4831   -4.1482    3.1563 H   0  0  0  0  0  0  0  0  0  0  0  0
    3.2191   -5.7112    2.8345 H   0  0  0  0  0  0  0  0  0  0  0  0
    2.4667   -4.7945    1.5233 H   0  0  0  0  0  0  0  0  0  0  0  0
  1  2  1  0
  1 24  1  0
  1 25  1  0
  1 26  1  0
  2  3  2  0
  2  4  1  0
  4  5  1  0
  5 22  1  0
  5  6  2  0
  6 11  1  0
  6  7  1  0
  7  8  1  0
  7 27  1  0
  7 28  1  0
  8  9  1  0
  8 15  1  0
  8 29  1  6
  9 10  1  0
  9 30  1  0
  9 31  1  0
 10 12  1  0
 10 11  1  0
 10 32  1  6
 11 12  1  0
 11 33  1  1
 12 13  1  0
 12 14  1  0
 13 34  1  0
 13 35  1  0
 13 36  1  0
 14 37  1  0
 14 38  1  0
 14 39  1  0
 15 22  1  0
 15 16  1  6
 15 17  1  0
 16 40  1  0
 17 18  2  0
 17 41  1  0
 18 19  1  0
 18 42  1  0
 19 20  1  0
 19 43  1  0
 19 44  1  0
 20 21  2  0
 20 22  1  0
 22 23  1  1
 23 45  1  0
 23 46  1  0
 23 47  1  0
M  END
>  <i_m_ct_stereo_status>  (273) 
1

>  <s_m_source_file>  (273) 
/var/tmp/pbs.5076255.sched01/tmpagfdxo7m/88tnrj_5ym.sdf

>  <i_m_source_file_index>  (273) 
24

>  <i_lp_mmshare_version>  (273) 
48012

>  <i_f3d_flags>  (273) 
0

>  <s_epik_input>  (273) 
W0NIXTE9W0NIXVtDSDJdQyg9TylbQ0BAXTIoW0NIM10pQyhPQyg9TylbQ0gzXSk9QyhbQ0gyXVtDQEhdM1tDQEBdMTJbT0hdKVtDQEhdNFtDQEBIXShbQ0gyXTMpQzQoW0NIM10pW0NIM10=

>  <s_epik_cmdline>  (273) 
J2VwaWtfcHl0aG9uJywgJy1waHQnLCAnMi4wJywgJy1waCcsICc3LjAnLCAnLXRuJywgJzgnLCAnLW1hJywgJzIwMCcsICctaW1hZScsICc8aW5maWxlLm1hZT4nLCAnLW9tYWUnLCAnPG91dGZpbGUubWFlPic=

>  <r_lp_tautomer_probability>  (273) 
1

>  <r_epik_Ionization_Penalty>  (273) 
6.51074e-07

>  <r_epik_Ionization_Penalty_Charging>  (273) 
0

>  <r_epik_Ionization_Penalty_Neutral>  (273) 
6.51074e-07

>  <r_epik_State_Penalty>  (273) 
-0

>  <r_epik_Charging_Adjusted_Penalty>  (273) 
0

>  <i_epik_Tot_Q>  (273) 
0

>  <i_epik_Tot_abs_Q>  (273) 
0

>  <s_lp_Force_Field>  (273) 
OPLS3e

>  <r_lp_Energy>  (273) 
68.6865

>  <b_lp_Chiralities_Consistent>  (273) 
1

>  <s_lp_Variant>  (273) 
79:0-1

>  <s_i_glide_gridfile>  (273) 
pfpi4k_grid

>  <i_i_glide_lignum>  (273) 
24

>  <i_i_glide_rotatable_bonds>  (273) 
3

>  <r_i_docking_score>  (273) 
-2.97333

>  <r_i_glide_ligand_efficiency>  (273) 
-0.129275

>  <r_i_glide_ligand_efficiency_sa>  (273) 
-0.367641

>  <r_i_glide_ligand_efficiency_ln>  (273) 
-0.718978

>  <r_i_glide_gscore>  (273) 
-2.97333

>  <r_i_glide_lipo>  (273) 
-0.501019

>  <r_i_glide_hbond>  (273) 
0

>  <r_i_glide_metal>  (273) 
-0

>  <r_i_glide_rewards>  (273) 
-1.28997

>  <r_i_glide_evdw>  (273) 
-21.118

>  <r_i_glide_ecoul>  (273) 
-1.68103

>  <r_i_glide_erotb>  (273) 
0.185969

>  <r_i_glide_esite>  (273) 
-0.0602543

>  <r_i_glide_emodel>  (273) 
-26.1236

>  <r_i_glide_energy>  (273) 
-22.799

>  <r_i_glide_einternal>  (273) 
3.42455

>  <r_i_glide_intrahb_reward>  (273) 
-0

>  <i_i_glide_confnum>  (273) 
3

>  <i_i_glide_posenum>  (273) 
5

>  <r_i_glide_eff_state_penalty>  (273) 
0

>  <ligand_id>  (273) 
79

>  <original_smiles>  (273) 
CC(=O)OC1=C2CC(CC3C2C3(C)C)C2(O)C=CCC(=O)C12C

>  <smiles>  (273) 
[H]OC12C([H])=C([H])C([H])([H])C(=O)C1(C([H])([H])[H])C(OC(=O)C([H])([H])[H])=C1C([H])([H])C2([H])C([H])([H])C2([H])C1([H])C2(C([H])([H])[H])C([H])([H])[H]

$$$$
79:0:2
     RDKit          3D

 47 50  0  0  1  0  0  0  0  0999 V2000
    2.8010    0.3970    1.7642 C   0  0  0  0  0  0  0  0  0  0  0  0
    3.8267   -0.6611    2.1264 C   0  0  0  0  0  0  0  0  0  0  0  0
    5.0172   -0.3648    2.2551 O   0  0  0  0  0  0  0  0  0  0  0  0
    3.2555   -1.8814    2.2998 O   0  0  0  0  0  0  0  0  0  0  0  0
    4.0260   -2.9915    2.5607 C   0  0  0  0  0  0  0  0  0  0  0  0
    5.1622   -3.3167    1.9021 C   0  0  0  0  0  0  0  0  0  0  0  0
    5.8110   -4.6513    2.2011 C   0  0  0  0  0  0  0  0  0  0  0  0
    4.7739   -5.6219    1.6704 C   0  0  2  0  0  0  0  0  0  0  0  0
    4.7252   -5.3956    0.0998 C   0  0  0  0  0  0  0  0  0  0  0  0
    5.3469   -4.0717   -0.4401 C   0  0  2  0  0  0  0  0  0  0  0  0
    5.4866   -2.8921    0.5186 C   0  0  1  0  0  0  0  0  0  0  0  0
    4.5560   -2.8015   -0.6884 C   0  0  0  0  0  0  0  0  0  0  0  0
    4.9746   -1.9009   -1.8394 C   0  0  0  0  0  0  0  0  0  0  0  0
    3.0437   -2.8299   -0.5803 C   0  0  0  0  0  0  0  0  0  0  0  0
    3.4421   -5.4784    2.5490 C   0  0  1  0  0  0  0  0  0  0  0  0
    2.3376   -5.6135    1.6660 O   0  0  0  0  0  0  0  0  0  0  0  0
    3.3551   -6.6785    3.4875 C   0  0  0  0  0  0  0  0  0  0  0  0
    3.4108   -6.6242    4.8324 C   0  0  0  0  0  0  0  0  0  0  0  0
    3.5666   -5.3560    5.6474 C   0  0  0  0  0  0  0  0  0  0  0  0
    3.9275   -4.1579    4.7680 C   0  0  0  0  0  0  0  0  0  0  0  0
    4.6520   -3.2657    5.2125 O   0  0  0  0  0  0  0  0  0  0  0  0
    3.2923   -4.0856    3.3537 C   0  0  1  0  0  0  0  0  0  0  0  0
    1.8051   -3.7025    3.5992 C   0  0  0  0  0  0  0  0  0  0  0  0
    1.8258   -0.0508    1.5642 H   0  0  0  0  0  0  0  0  0  0  0  0
    3.1255    0.9410    0.8806 H   0  0  0  0  0  0  0  0  0  0  0  0
    2.7070    1.1010    2.5915 H   0  0  0  0  0  0  0  0  0  0  0  0
    6.7787   -4.7513    1.7033 H   0  0  0  0  0  0  0  0  0  0  0  0
    6.0113   -4.7900    3.2644 H   0  0  0  0  0  0  0  0  0  0  0  0
    5.1585   -6.6324    1.8134 H   0  0  0  0  0  0  0  0  0  0  0  0
    5.3198   -6.1991   -0.3399 H   0  0  0  0  0  0  0  0  0  0  0  0
    3.7319   -5.5335   -0.3272 H   0  0  0  0  0  0  0  0  0  0  0  0
    6.1854   -4.2406   -1.1116 H   0  0  0  0  0  0  0  0  0  0  0  0
    6.4069   -2.3212    0.4745 H   0  0  0  0  0  0  0  0  0  0  0  0
    4.6634   -0.8703   -1.6595 H   0  0  0  0  0  0  0  0  0  0  0  0
    4.5254   -2.2384   -2.7740 H   0  0  0  0  0  0  0  0  0  0  0  0
    6.0544   -1.9141   -1.9630 H   0  0  0  0  0  0  0  0  0  0  0  0
    2.6672   -1.8281   -0.3698 H   0  0  0  0  0  0  0  0  0  0  0  0
    2.7140   -3.4878    0.2202 H   0  0  0  0  0  0  0  0  0  0  0  0
    2.6003   -3.1761   -1.5170 H   0  0  0  0  0  0  0  0  0  0  0  0
    2.4816   -6.3889    1.1416 H   0  0  0  0  0  0  0  0  0  0  0  0
    3.2325   -7.6443    3.0190 H   0  0  0  0  0  0  0  0  0  0  0  0
    3.3203   -7.5367    5.4016 H   0  0  0  0  0  0  0  0  0  0  0  0
    2.6498   -5.1561    6.2004 H   0  0  0  0  0  0  0  0  0  0  0  0
    4.3571   -5.5102    6.3814 H   0  0  0  0  0  0  0  0  0  0  0  0
    1.7301   -2.8098    4.2216 H   0  0  0  0  0  0  0  0  0  0  0  0
    1.2631   -4.5006    4.1082 H   0  0  0  0  0  0  0  0  0  0  0  0
    1.2771   -3.4849    2.6698 H   0  0  0  0  0  0  0  0  0  0  0  0
  1  2  1  0
  1 24  1  0
  1 25  1  0
  1 26  1  0
  2  3  2  0
  2  4  1  0
  4  5  1  0
  5 22  1  0
  5  6  2  0
  6 11  1  0
  6  7  1  0
  7  8  1  0
  7 27  1  0
  7 28  1  0
  8  9  1  0
  8 15  1  0
  8 29  1  6
  9 10  1  0
  9 30  1  0
  9 31  1  0
 10 12  1  0
 10 11  1  0
 10 32  1  6
 11 12  1  0
 11 33  1  1
 12 13  1  0
 12 14  1  0
 13 34  1  0
 13 35  1  0
 13 36  1  0
 14 37  1  0
 14 38  1  0
 14 39  1  0
 15 22  1  0
 15 16  1  6
 15 17  1  0
 16 40  1  0
 17 18  2  0
 17 41  1  0
 18 19  1  0
 18 42  1  0
 19 20  1  0
 19 43  1  0
 19 44  1  0
 20 21  2  0
 20 22  1  0
 22 23  1  1
 23 45  1  0
 23 46  1  0
 23 47  1  0
M  END
>  <i_m_ct_stereo_status>  (274) 
1

>  <s_m_source_file>  (274) 
/var/tmp/pbs.5076255.sched01/tmpagfdxo7m/88tnrj_5ym.sdf

>  <i_m_source_file_index>  (274) 
24

>  <i_lp_mmshare_version>  (274) 
48012

>  <i_f3d_flags>  (274) 
0

>  <s_epik_input>  (274) 
W0NIXTE9W0NIXVtDSDJdQyg9TylbQ0BAXTIoW0NIM10pQyhPQyg9TylbQ0gzXSk9QyhbQ0gyXVtDQEhdM1tDQEBdMTJbT0hdKVtDQEhdNFtDQEBIXShbQ0gyXTMpQzQoW0NIM10pW0NIM10=

>  <s_epik_cmdline>  (274) 
J2VwaWtfcHl0aG9uJywgJy1waHQnLCAnMi4wJywgJy1waCcsICc3LjAnLCAnLXRuJywgJzgnLCAnLW1hJywgJzIwMCcsICctaW1hZScsICc8aW5maWxlLm1hZT4nLCAnLW9tYWUnLCAnPG91dGZpbGUubWFlPic=

>  <r_lp_tautomer_probability>  (274) 
1

>  <r_epik_Ionization_Penalty>  (274) 
6.51074e-07

>  <r_epik_Ionization_Penalty_Charging>  (274) 
0

>  <r_epik_Ionization_Penalty_Neutral>  (274) 
6.51074e-07

>  <r_epik_State_Penalty>  (274) 
-0

>  <r_epik_Charging_Adjusted_Penalty>  (274) 
0

>  <i_epik_Tot_Q>  (274) 
0

>  <i_epik_Tot_abs_Q>  (274) 
0

>  <s_lp_Force_Field>  (274) 
OPLS3e

>  <r_lp_Energy>  (274) 
68.6865

>  <b_lp_Chiralities_Consistent>  (274) 
1

>  <s_lp_Variant>  (274) 
79:0-1

>  <s_i_glide_gridfile>  (274) 
pfpi4k_grid

>  <i_i_glide_lignum>  (274) 
24

>  <i_i_glide_rotatable_bonds>  (274) 
3

>  <r_i_docking_score>  (274) 
-2.61531

>  <r_i_glide_ligand_efficiency>  (274) 
-0.113709

>  <r_i_glide_ligand_efficiency_sa>  (274) 
-0.323374

>  <r_i_glide_ligand_efficiency_ln>  (274) 
-0.632406

>  <r_i_glide_gscore>  (274) 
-2.61531

>  <r_i_glide_lipo>  (274) 
-0.264229

>  <r_i_glide_hbond>  (274) 
-0.0393245

>  <r_i_glide_metal>  (274) 
-0

>  <r_i_glide_rewards>  (274) 
-1.28139

>  <r_i_glide_evdw>  (274) 
-20.6494

>  <r_i_glide_ecoul>  (274) 
-1.22576

>  <r_i_glide_erotb>  (274) 
0.185969

>  <r_i_glide_esite>  (274) 
0

>  <r_i_glide_emodel>  (274) 
-26.5707

>  <r_i_glide_energy>  (274) 
-21.8752

>  <r_i_glide_einternal>  (274) 
0.0358577

>  <r_i_glide_intrahb_reward>  (274) 
-0

>  <i_i_glide_confnum>  (274) 
1

>  <i_i_glide_posenum>  (274) 
18

>  <r_i_glide_eff_state_penalty>  (274) 
0

>  <ligand_id>  (274) 
79

>  <original_smiles>  (274) 
CC(=O)OC1=C2CC(CC3C2C3(C)C)C2(O)C=CCC(=O)C12C

>  <smiles>  (274) 
[H]OC12C([H])=C([H])C([H])([H])C(=O)C1(C([H])([H])[H])C(OC(=O)C([H])([H])[H])=C1C([H])([H])C2([H])C([H])([H])C2([H])C1([H])C2(C([H])([H])[H])C([H])([H])[H]

$$$$
80:1:0
     RDKit          3D

 63 69  0  0  1  0  0  0  0  0999 V2000
   -1.7684   -4.5211    7.7874 C   0  0  0  0  0  0  0  0  0  0  0  0
   -0.7264   -3.9299    7.0037 O   0  0  0  0  0  0  0  0  0  0  0  0
    0.1804   -4.8059    6.4421 C   0  0  0  0  0  0  0  0  0  0  0  0
    1.1716   -4.2810    5.5853 C   0  0  0  0  0  0  0  0  0  0  0  0
    2.1140   -5.1445    4.9794 C   0  0  0  0  0  0  0  0  0  0  0  0
    2.0767   -6.5411    5.2175 C   0  0  0  0  0  0  0  0  0  0  0  0
    1.1008   -7.0788    6.0771 C   0  0  0  0  0  0  0  0  0  0  0  0
    0.1796   -6.2074    6.6723 C   0  0  0  0  0  0  0  0  0  0  0  0
    0.9279   -8.5575    6.4381 C   0  0  2  0  0  0  0  0  0  0  0  0
    1.5857   -8.9710    7.7709 C   0  0  0  0  0  0  0  0  0  0  0  0
    3.1136   -8.8712    7.8777 C   0  0  0  0  0  0  0  0  0  0  0  0
    3.9758   -9.8632    7.0688 C   0  0  1  0  0  0  0  0  0  0  0  0
    4.2361  -11.2972    7.6251 C   0  0  0  0  0  0  0  0  0  0  0  0
    4.0938  -12.2185    6.3684 C   0  0  0  0  0  0  0  0  0  0  0  0
    3.0336  -11.4864    5.6871 N   0  0  2  0  0  0  0  0  0  0  0  0
    2.7148  -11.3164    4.2861 C   0  0  0  0  0  0  0  0  0  0  0  0
    2.4144   -9.8385    4.7341 C   0  0  2  0  0  0  0  0  0  0  0  0
    1.0096   -9.5940    5.3099 C   0  0  2  0  0  0  0  0  0  0  0  0
   -0.0158   -9.4020    4.1773 C   0  0  0  0  0  0  0  0  0  0  0  0
    0.3840   -8.3439    3.1383 C   0  0  0  0  0  0  0  0  0  0  0  0
    1.7635   -8.5235    2.6934 N   0  0  0  0  0  0  0  0  0  0  0  0
    2.1238   -7.4712    1.7405 C   0  0  0  0  0  0  0  0  0  0  0  0
    3.4687   -7.7206    1.0672 C   0  0  0  0  0  0  0  0  0  0  0  0
    4.7227   -6.9491    1.4443 C   0  0  0  0  0  0  0  0  0  0  0  0
    4.0590   -6.6816    0.1328 C   0  0  0  0  0  0  0  0  0  0  0  0
    2.7324   -8.6755    3.7931 C   0  0  1  0  0  0  0  0  0  0  0  0
    3.1558   -7.3902    4.5683 C   0  0  0  0  0  0  0  0  0  0  0  0
    3.5802  -10.1610    5.6467 C   0  0  1  0  0  0  0  0  0  0  0  0
   -2.4625   -3.8058    8.2138 H   0  0  0  0  0  0  0  0  0  0  0  0
   -1.3609   -5.0785    8.6329 H   0  0  0  0  0  0  0  0  0  0  0  0
   -2.3653   -5.1860    7.1609 H   0  0  0  0  0  0  0  0  0  0  0  0
    1.2253   -3.2180    5.4013 H   0  0  0  0  0  0  0  0  0  0  0  0
    2.8756   -4.7163    4.3401 H   0  0  0  0  0  0  0  0  0  0  0  0
   -0.5335   -6.6685    7.3298 H   0  0  0  0  0  0  0  0  0  0  0  0
   -0.1299   -8.6318    6.6792 H   0  0  0  0  0  0  0  0  0  0  0  0
    1.1748   -8.3157    8.5434 H   0  0  0  0  0  0  0  0  0  0  0  0
    1.2688   -9.9761    8.0496 H   0  0  0  0  0  0  0  0  0  0  0  0
    3.3965   -7.8591    7.5915 H   0  0  0  0  0  0  0  0  0  0  0  0
    3.3919   -8.9566    8.9290 H   0  0  0  0  0  0  0  0  0  0  0  0
    4.9568   -9.3938    7.0346 H   0  0  0  0  0  0  0  0  0  0  0  0
    5.2096  -11.3950    8.1211 H   0  0  0  0  0  0  0  0  0  0  0  0
    3.4554  -11.5542    8.3511 H   0  0  0  0  0  0  0  0  0  0  0  0
    5.0246  -12.2407    5.7986 H   0  0  0  0  0  0  0  0  0  0  0  0
    3.8275  -13.2412    6.6293 H   0  0  0  0  0  0  0  0  0  0  0  0
    3.5380  -11.4448    3.5779 H   0  0  0  0  0  0  0  0  0  0  0  0
    1.8288  -11.8740    3.9830 H   0  0  0  0  0  0  0  0  0  0  0  0
    0.6616  -10.5110    5.7970 H   0  0  0  0  0  0  0  0  0  0  0  0
   -0.1390  -10.3629    3.6726 H   0  0  0  0  0  0  0  0  0  0  0  0
   -0.9893   -9.1434    4.5985 H   0  0  0  0  0  0  0  0  0  0  0  0
   -0.2863   -8.4321    2.2849 H   0  0  0  0  0  0  0  0  0  0  0  0
    0.2347   -7.3506    3.5484 H   0  0  0  0  0  0  0  0  0  0  0  0
    1.3667   -7.4410    0.9594 H   0  0  0  0  0  0  0  0  0  0  0  0
    2.1083   -6.4908    2.2139 H   0  0  0  0  0  0  0  0  0  0  0  0
    3.5976   -8.7484    0.7240 H   0  0  0  0  0  0  0  0  0  0  0  0
    4.6962   -6.0852    2.1030 H   0  0  0  0  0  0  0  0  0  0  0  0
    5.6440   -7.5296    1.4653 H   0  0  0  0  0  0  0  0  0  0  0  0
    4.6054   -7.0009   -0.7525 H   0  0  0  0  0  0  0  0  0  0  0  0
    3.5299   -5.7367    0.0431 H   0  0  0  0  0  0  0  0  0  0  0  0
    3.6465   -8.9784    3.2770 H   0  0  0  0  0  0  0  0  0  0  0  0
    3.6807   -6.7272    3.9072 H   0  0  0  0  0  0  0  0  0  0  0  0
    3.9015   -7.6392    5.3277 H   0  0  0  0  0  0  0  0  0  0  0  0
    4.4982  -10.1171    5.0423 H   0  0  0  0  0  0  0  0  0  0  0  0
    2.1986  -11.5262    6.2820 H   0  0  0  0  0  0  0  0  0  0  0  0
  1  2  1  0
  1 29  1  0
  1 30  1  0
  1 31  1  0
  2  3  1  0
  3  8  2  0
  3  4  1  0
  4  5  2  0
  4 32  1  0
  5  6  1  0
  5 33  1  0
  6 27  1  0
  6  7  2  0
  7  8  1  0
  7  9  1  0
  8 34  1  0
  9 18  1  0
  9 10  1  0
  9 35  1  1
 10 11  1  0
 10 36  1  0
 10 37  1  0
 11 12  1  0
 11 38  1  0
 11 39  1  0
 12 28  1  0
 12 13  1  0
 12 40  1  6
 13 14  1  0
 13 41  1  0
 13 42  1  0
 14 15  1  0
 14 43  1  0
 14 44  1  0
 15 28  1  0
 15 16  1  0
 15 63  1  1
 17 16  1  6
 16 45  1  0
 16 46  1  0
 17 26  1  0
 17 18  1  0
 17 28  1  0
 18 19  1  0
 18 47  1  1
 19 20  1  0
 19 48  1  0
 19 49  1  0
 20 21  1  0
 20 50  1  0
 20 51  1  0
 21 22  1  0
 21 26  1  0
 22 23  1  0
 22 52  1  0
 22 53  1  0
 23 25  1  0
 23 24  1  0
 23 54  1  0
 24 25  1  0
 24 55  1  0
 24 56  1  0
 25 57  1  0
 25 58  1  0
 26 27  1  0
 26 59  1  6
 27 60  1  0
 27 61  1  0
 28 62  1  6
M  CHG  1  15   1
M  END
>  <i_m_ct_stereo_status>  (275) 
1

>  <s_m_source_file>  (275) 
/var/tmp/pbs.5076255.sched01/tmpagfdxo7m/88tnrj_5ym.sdf

>  <i_m_source_file_index>  (275) 
26

>  <i_lp_mmshare_version>  (275) 
48012

>  <i_f3d_flags>  (275) 
0

>  <s_epik_input>  (275) 
W0NIMl0xW0NIMl1bQ0hdMVtDSDJdTihbQ0gyXVtDSDJdMilbQ0BIXTNbQ0gyXWMoW2NIXVtjSF1jKFtjSF00KU9bQ0gzXSljNFtDQEBIXShbQ0BASF0yW0NAXTM1NilbQ0gyXVtDSDJdW0NAQEhdN1tDQEhdNk4oW0NIMl01KVtDSDJdW0NIMl03

>  <s_epik_cmdline>  (275) 
J2VwaWtfcHl0aG9uJywgJy1waHQnLCAnMi4wJywgJy1waCcsICc3LjAnLCAnLXRuJywgJzgnLCAnLW1hJywgJzIwMCcsICctaW1hZScsICc8aW5maWxlLm1hZT4nLCAnLW9tYWUnLCAnPG91dGZpbGUubWFlPic=

>  <r_lp_tautomer_probability>  (275) 
1

>  <r_epik_Ionization_Penalty>  (275) 
2.24953

>  <r_epik_Ionization_Penalty_Charging>  (275) 
0.000204335

>  <r_epik_Ionization_Penalty_Neutral>  (275) 
2.24932

>  <r_epik_State_Penalty>  (275) 
2.39633

>  <r_epik_Charging_Adjusted_Penalty>  (275) 
2.39653

>  <i_epik_Tot_Q>  (275) 
1

>  <i_epik_Tot_abs_Q>  (275) 
1

>  <s_lp_Force_Field>  (275) 
OPLS3e

>  <r_lp_Energy>  (275) 
105.212

>  <b_lp_Chiralities_Consistent>  (275) 
1

>  <s_lp_Variant>  (275) 
80:0-2

>  <s_i_glide_gridfile>  (275) 
pfpi4k_grid

>  <i_i_glide_lignum>  (275) 
26

>  <i_i_glide_rotatable_bonds>  (275) 
3

>  <r_i_docking_score>  (275) 
-2.83544

>  <r_i_glide_ligand_efficiency>  (275) 
-0.101266

>  <r_i_glide_ligand_efficiency_sa>  (275) 
-0.307503

>  <r_i_glide_ligand_efficiency_ln>  (275) 
-0.654503

>  <r_i_glide_gscore>  (275) 
-2.83544

>  <r_i_glide_lipo>  (275) 
-0.210133

>  <r_i_glide_hbond>  (275) 
-0.190054

>  <r_i_glide_metal>  (275) 
-0

>  <r_i_glide_rewards>  (275) 
-0.821194

>  <r_i_glide_evdw>  (275) 
-18.285

>  <r_i_glide_ecoul>  (275) 
-5.82161

>  <r_i_glide_erotb>  (275) 
0.269201

>  <r_i_glide_esite>  (275) 
-0.0957707

>  <r_i_glide_emodel>  (275) 
-27.669

>  <r_i_glide_energy>  (275) 
-24.1066

>  <r_i_glide_einternal>  (275) 
5.07657

>  <r_i_glide_intrahb_reward>  (275) 
-0

>  <i_i_glide_confnum>  (275) 
2

>  <i_i_glide_posenum>  (275) 
14

>  <r_i_glide_eff_state_penalty>  (275) 
0

>  <ligand_id>  (275) 
80

>  <original_smiles>  (275) 
COc1ccc2c(c1)C1CCC3CCN4CC5(C1CCN(CC1CC1)C5C2)C34

>  <smiles>  (275) 
[H]c1c([H])c2c(c([H])c1OC([H])([H])[H])C1([H])C([H])([H])C([H])([H])C3([H])C([H])([H])C([H])([H])[N+]4([H])C([H])([H])C5(C([H])(N(C([H])([H])C6([H])C([H])([H])C6([H])[H])C([H])([H])C([H])([H])C15[H])C2([H])[H])C34[H]

$$$$
80:1:1
     RDKit          3D

 63 69  0  0  1  0  0  0  0  0999 V2000
   -0.8549   -2.7404    6.0456 C   0  0  0  0  0  0  0  0  0  0  0  0
   -0.7784   -4.0837    6.5024 O   0  0  0  0  0  0  0  0  0  0  0  0
    0.2764   -4.8620    6.0805 C   0  0  0  0  0  0  0  0  0  0  0  0
    1.3737   -4.3790    5.3316 C   0  0  0  0  0  0  0  0  0  0  0  0
    2.3993   -5.2527    4.9508 C   0  0  0  0  0  0  0  0  0  0  0  0
    2.3630   -6.6283    5.2904 C   0  0  0  0  0  0  0  0  0  0  0  0
    1.2690   -7.1261    6.0498 C   0  0  0  0  0  0  0  0  0  0  0  0
    0.2497   -6.2228    6.4350 C   0  0  0  0  0  0  0  0  0  0  0  0
    1.0923   -8.5889    6.4968 C   0  0  2  0  0  0  0  0  0  0  0  0
    1.5733   -8.8995    7.9344 C   0  0  0  0  0  0  0  0  0  0  0  0
    3.0680   -8.7312    8.2491 C   0  0  0  0  0  0  0  0  0  0  0  0
    4.0745   -9.7382    7.6547 C   0  0  1  0  0  0  0  0  0  0  0  0
    4.3000  -11.1117    8.3521 C   0  0  0  0  0  0  0  0  0  0  0  0
    4.3890  -12.1339    7.1746 C   0  0  0  0  0  0  0  0  0  0  0  0
    3.4180  -11.4989    6.2932 N   0  0  2  0  0  0  0  0  0  0  0  0
    3.2755  -11.4292    4.8366 C   0  0  0  0  0  0  0  0  0  0  0  0
    2.8574   -9.9336    5.1321 C   0  0  2  0  0  0  0  0  0  0  0  0
    1.3781   -9.7160    5.4806 C   0  0  2  0  0  0  0  0  0  0  0  0
    0.5270   -9.6665    4.2001 C   0  0  0  0  0  0  0  0  0  0  0  0
    1.0386   -8.6694    3.1489 C   0  0  0  0  0  0  0  0  0  0  0  0
    2.4788   -8.8091    2.9204 N   0  0  0  0  0  0  0  0  0  0  0  0
    2.9473   -7.8165    1.9460 C   0  0  0  0  0  0  0  0  0  0  0  0
    4.4438   -7.8925    1.6364 C   0  0  0  0  0  0  0  0  0  0  0  0
    5.0085   -7.1470    0.4580 C   0  0  0  0  0  0  0  0  0  0  0  0
    4.9515   -8.6569    0.4456 C   0  0  0  0  0  0  0  0  0  0  0  0
    3.2817   -8.8415    4.1539 C   0  0  1  0  0  0  0  0  0  0  0  0
    3.5490   -7.4747    4.8504 C   0  0  0  0  0  0  0  0  0  0  0  0
    3.9027  -10.1502    6.2173 C   0  0  1  0  0  0  0  0  0  0  0  0
   -1.7506   -2.2768    6.4571 H   0  0  0  0  0  0  0  0  0  0  0  0
   -0.9343   -2.6905    4.9596 H   0  0  0  0  0  0  0  0  0  0  0  0
   -0.0016   -2.1478    6.3740 H   0  0  0  0  0  0  0  0  0  0  0  0
    1.4556   -3.3363    5.0562 H   0  0  0  0  0  0  0  0  0  0  0  0
    3.2391   -4.8519    4.3996 H   0  0  0  0  0  0  0  0  0  0  0  0
   -0.5876   -6.5806    7.0208 H   0  0  0  0  0  0  0  0  0  0  0  0
    0.0129   -8.6825    6.5946 H   0  0  0  0  0  0  0  0  0  0  0  0
    1.0363   -8.2158    8.5948 H   0  0  0  0  0  0  0  0  0  0  0  0
    1.2534   -9.8981    8.2338 H   0  0  0  0  0  0  0  0  0  0  0  0
    3.3598   -7.7308    7.9317 H   0  0  0  0  0  0  0  0  0  0  0  0
    3.1948   -8.7335    9.3333 H   0  0  0  0  0  0  0  0  0  0  0  0
    5.0359   -9.2293    7.7255 H   0  0  0  0  0  0  0  0  0  0  0  0
    5.1914  -11.1339    8.9823 H   0  0  0  0  0  0  0  0  0  0  0  0
    3.4341  -11.3659    8.9649 H   0  0  0  0  0  0  0  0  0  0  0  0
    5.3862  -12.1531    6.7240 H   0  0  0  0  0  0  0  0  0  0  0  0
    4.1102  -13.1550    7.4505 H   0  0  0  0  0  0  0  0  0  0  0  0
    4.1919  -11.5805    4.2623 H   0  0  0  0  0  0  0  0  0  0  0  0
    2.4619  -12.0464    4.4597 H   0  0  0  0  0  0  0  0  0  0  0  0
    1.0106  -10.6142    5.9832 H   0  0  0  0  0  0  0  0  0  0  0  0
    0.5187  -10.6626    3.7555 H   0  0  0  0  0  0  0  0  0  0  0  0
   -0.5091   -9.4468    4.4518 H   0  0  0  0  0  0  0  0  0  0  0  0
    0.5113   -8.8471    2.2102 H   0  0  0  0  0  0  0  0  0  0  0  0
    0.7900   -7.6544    3.4481 H   0  0  0  0  0  0  0  0  0  0  0  0
    2.3914   -7.9552    1.0221 H   0  0  0  0  0  0  0  0  0  0  0  0
    2.7101   -6.8072    2.2825 H   0  0  0  0  0  0  0  0  0  0  0  0
    5.1194   -7.8486    2.4859 H   0  0  0  0  0  0  0  0  0  0  0  0
    4.3165   -6.6008   -0.1830 H   0  0  0  0  0  0  0  0  0  0  0  0
    5.9836   -6.6881    0.5994 H   0  0  0  0  0  0  0  0  0  0  0  0
    5.8844   -9.2048    0.5830 H   0  0  0  0  0  0  0  0  0  0  0  0
    4.2066   -9.1362   -0.1899 H   0  0  0  0  0  0  0  0  0  0  0  0
    4.2569   -9.1911    3.8243 H   0  0  0  0  0  0  0  0  0  0  0  0
    4.1496   -6.8621    4.1857 H   0  0  0  0  0  0  0  0  0  0  0  0
    4.2063   -7.6106    5.7065 H   0  0  0  0  0  0  0  0  0  0  0  0
    4.8982  -10.1164    5.7525 H   0  0  0  0  0  0  0  0  0  0  0  0
    2.4911  -11.5675    6.7310 H   0  0  0  0  0  0  0  0  0  0  0  0
  1  2  1  0
  1 29  1  0
  1 30  1  0
  1 31  1  0
  2  3  1  0
  3  8  2  0
  3  4  1  0
  4  5  2  0
  4 32  1  0
  5  6  1  0
  5 33  1  0
  6 27  1  0
  6  7  2  0
  7  8  1  0
  7  9  1  0
  8 34  1  0
  9 18  1  0
  9 10  1  0
  9 35  1  1
 10 11  1  0
 10 36  1  0
 10 37  1  0
 11 12  1  0
 11 38  1  0
 11 39  1  0
 12 28  1  0
 12 13  1  0
 12 40  1  6
 13 14  1  0
 13 41  1  0
 13 42  1  0
 14 15  1  0
 14 43  1  0
 14 44  1  0
 15 28  1  0
 15 16  1  0
 15 63  1  1
 17 16  1  6
 16 45  1  0
 16 46  1  0
 17 26  1  0
 17 18  1  0
 17 28  1  0
 18 19  1  0
 18 47  1  1
 19 20  1  0
 19 48  1  0
 19 49  1  0
 20 21  1  0
 20 50  1  0
 20 51  1  0
 21 22  1  0
 21 26  1  0
 22 23  1  0
 22 52  1  0
 22 53  1  0
 23 25  1  0
 23 24  1  0
 23 54  1  0
 24 25  1  0
 24 55  1  0
 24 56  1  0
 25 57  1  0
 25 58  1  0
 26 27  1  0
 26 59  1  6
 27 60  1  0
 27 61  1  0
 28 62  1  6
M  CHG  1  15   1
M  END
>  <i_m_ct_stereo_status>  (276) 
1

>  <s_m_source_file>  (276) 
/var/tmp/pbs.5076255.sched01/tmpagfdxo7m/88tnrj_5ym.sdf

>  <i_m_source_file_index>  (276) 
26

>  <i_lp_mmshare_version>  (276) 
48012

>  <i_f3d_flags>  (276) 
0

>  <s_epik_input>  (276) 
W0NIMl0xW0NIMl1bQ0hdMVtDSDJdTihbQ0gyXVtDSDJdMilbQ0BIXTNbQ0gyXWMoW2NIXVtjSF1jKFtjSF00KU9bQ0gzXSljNFtDQEBIXShbQ0BASF0yW0NAXTM1NilbQ0gyXVtDSDJdW0NAQEhdN1tDQEhdNk4oW0NIMl01KVtDSDJdW0NIMl03

>  <s_epik_cmdline>  (276) 
J2VwaWtfcHl0aG9uJywgJy1waHQnLCAnMi4wJywgJy1waCcsICc3LjAnLCAnLXRuJywgJzgnLCAnLW1hJywgJzIwMCcsICctaW1hZScsICc8aW5maWxlLm1hZT4nLCAnLW9tYWUnLCAnPG91dGZpbGUubWFlPic=

>  <r_lp_tautomer_probability>  (276) 
1

>  <r_epik_Ionization_Penalty>  (276) 
2.24953

>  <r_epik_Ionization_Penalty_Charging>  (276) 
0.000204335

>  <r_epik_Ionization_Penalty_Neutral>  (276) 
2.24932

>  <r_epik_State_Penalty>  (276) 
2.39633

>  <r_epik_Charging_Adjusted_Penalty>  (276) 
2.39653

>  <i_epik_Tot_Q>  (276) 
1

>  <i_epik_Tot_abs_Q>  (276) 
1

>  <s_lp_Force_Field>  (276) 
OPLS3e

>  <r_lp_Energy>  (276) 
105.212

>  <b_lp_Chiralities_Consistent>  (276) 
1

>  <s_lp_Variant>  (276) 
80:0-2

>  <s_i_glide_gridfile>  (276) 
pfpi4k_grid

>  <i_i_glide_lignum>  (276) 
26

>  <i_i_glide_rotatable_bonds>  (276) 
3

>  <r_i_docking_score>  (276) 
-2.72349

>  <r_i_glide_ligand_efficiency>  (276) 
-0.0972676

>  <r_i_glide_ligand_efficiency_sa>  (276) 
-0.295362

>  <r_i_glide_ligand_efficiency_ln>  (276) 
-0.628662

>  <r_i_glide_gscore>  (276) 
-2.72349

>  <r_i_glide_lipo>  (276) 
-0.0772727

>  <r_i_glide_hbond>  (276) 
-0.2

>  <r_i_glide_metal>  (276) 
-0

>  <r_i_glide_rewards>  (276) 
-0.821194

>  <r_i_glide_evdw>  (276) 
-16.6745

>  <r_i_glide_ecoul>  (276) 
-6.40334

>  <r_i_glide_erotb>  (276) 
0.269201

>  <r_i_glide_esite>  (276) 
-0.1

>  <r_i_glide_emodel>  (276) 
-28.1417

>  <r_i_glide_energy>  (276) 
-23.0779

>  <r_i_glide_einternal>  (276) 
1.77253

>  <r_i_glide_intrahb_reward>  (276) 
-0

>  <i_i_glide_confnum>  (276) 
2

>  <i_i_glide_posenum>  (276) 
29

>  <r_i_glide_eff_state_penalty>  (276) 
0

>  <ligand_id>  (276) 
80

>  <original_smiles>  (276) 
COc1ccc2c(c1)C1CCC3CCN4CC5(C1CCN(CC1CC1)C5C2)C34

>  <smiles>  (276) 
[H]c1c([H])c2c(c([H])c1OC([H])([H])[H])C1([H])C([H])([H])C([H])([H])C3([H])C([H])([H])C([H])([H])[N+]4([H])C([H])([H])C5(C([H])(N(C([H])([H])C6([H])C([H])([H])C6([H])[H])C([H])([H])C([H])([H])C15[H])C2([H])[H])C34[H]

$$$$
80:1:2
     RDKit          3D

 63 69  0  0  1  0  0  0  0  0999 V2000
    4.7640   -1.3944    0.4477 C   0  0  0  0  0  0  0  0  0  0  0  0
    5.3421   -2.4323    1.2298 O   0  0  0  0  0  0  0  0  0  0  0  0
    4.7123   -3.6574    1.2630 C   0  0  0  0  0  0  0  0  0  0  0  0
    3.5418   -3.9737    0.5411 C   0  0  0  0  0  0  0  0  0  0  0  0
    2.9780   -5.2598    0.6441 C   0  0  0  0  0  0  0  0  0  0  0  0
    3.5525   -6.2514    1.4711 C   0  0  0  0  0  0  0  0  0  0  0  0
    4.7396   -5.9508    2.1961 C   0  0  0  0  0  0  0  0  0  0  0  0
    5.2930   -4.6535    2.0744 C   0  0  0  0  0  0  0  0  0  0  0  0
    5.4835   -6.9287    3.1242 C   0  0  2  0  0  0  0  0  0  0  0  0
    6.6788   -7.6699    2.4802 C   0  0  0  0  0  0  0  0  0  0  0  0
    6.3885   -8.6235    1.3160 C   0  0  0  0  0  0  0  0  0  0  0  0
    5.6689   -9.9558    1.5989 C   0  0  1  0  0  0  0  0  0  0  0  0
    6.4762  -11.1883    2.1142 C   0  0  0  0  0  0  0  0  0  0  0  0
    5.5525  -11.8158    3.2035 C   0  0  0  0  0  0  0  0  0  0  0  0
    4.9881  -10.5685    3.7307 N   0  0  2  0  0  0  0  0  0  0  0  0
    3.6927  -10.2418    4.3250 C   0  0  0  0  0  0  0  0  0  0  0  0
    3.8335   -8.9300    3.4617 C   0  0  2  0  0  0  0  0  0  0  0  0
    4.6552   -7.7941    4.0989 C   0  0  2  0  0  0  0  0  0  0  0  0
    3.7954   -6.9996    5.0955 C   0  0  0  0  0  0  0  0  0  0  0  0
    2.4676   -6.4970    4.5040 C   0  0  0  0  0  0  0  0  0  0  0  0
    1.7560   -7.5638    3.7999 N   0  0  0  0  0  0  0  0  0  0  0  0
    0.5100   -7.0510    3.2234 C   0  0  0  0  0  0  0  0  0  0  0  0
   -0.3709   -8.1443    2.6304 C   0  0  0  0  0  0  0  0  0  0  0  0
   -1.8651   -7.9668    2.5601 C   0  0  0  0  0  0  0  0  0  0  0  0
   -1.2725   -8.9718    3.5111 C   0  0  0  0  0  0  0  0  0  0  0  0
    2.5844   -8.3109    2.8394 C   0  0  1  0  0  0  0  0  0  0  0  0
    2.8675   -7.6159    1.4801 C   0  0  0  0  0  0  0  0  0  0  0  0
    4.4871   -9.9440    2.5342 C   0  0  1  0  0  0  0  0  0  0  0  0
    5.3740   -0.4942    0.5362 H   0  0  0  0  0  0  0  0  0  0  0  0
    3.7590   -1.1437    0.7865 H   0  0  0  0  0  0  0  0  0  0  0  0
    4.7325   -1.6609   -0.6094 H   0  0  0  0  0  0  0  0  0  0  0  0
    3.0656   -3.2543   -0.1071 H   0  0  0  0  0  0  0  0  0  0  0  0
    2.1020   -5.4800    0.0541 H   0  0  0  0  0  0  0  0  0  0  0  0
    6.1907   -4.4040    2.6176 H   0  0  0  0  0  0  0  0  0  0  0  0
    5.9849   -6.2577    3.8195 H   0  0  0  0  0  0  0  0  0  0  0  0
    7.3502   -6.9007    2.0917 H   0  0  0  0  0  0  0  0  0  0  0  0
    7.2572   -8.1985    3.2387 H   0  0  0  0  0  0  0  0  0  0  0  0
    5.7839   -8.0760    0.5965 H   0  0  0  0  0  0  0  0  0  0  0  0
    7.3272   -8.8498    0.8104 H   0  0  0  0  0  0  0  0  0  0  0  0
    5.2911  -10.2470    0.6218 H   0  0  0  0  0  0  0  0  0  0  0  0
    6.7200  -11.8943    1.3199 H   0  0  0  0  0  0  0  0  0  0  0  0
    7.4032  -10.8482    2.5783 H   0  0  0  0  0  0  0  0  0  0  0  0
    4.7880  -12.4569    2.7628 H   0  0  0  0  0  0  0  0  0  0  0  0
    6.0954  -12.3902    3.9553 H   0  0  0  0  0  0  0  0  0  0  0  0
    2.8664  -10.9091    4.0768 H   0  0  0  0  0  0  0  0  0  0  0  0
    3.7600  -10.0693    5.4002 H   0  0  0  0  0  0  0  0  0  0  0  0
    5.4166   -8.2395    4.7437 H   0  0  0  0  0  0  0  0  0  0  0  0
    3.5711   -7.6453    5.9460 H   0  0  0  0  0  0  0  0  0  0  0  0
    4.3634   -6.1619    5.5003 H   0  0  0  0  0  0  0  0  0  0  0  0
    1.8403   -6.1348    5.3181 H   0  0  0  0  0  0  0  0  0  0  0  0
    2.6437   -5.6453    3.8532 H   0  0  0  0  0  0  0  0  0  0  0  0
   -0.0542   -6.5418    4.0033 H   0  0  0  0  0  0  0  0  0  0  0  0
    0.7126   -6.2966    2.4614 H   0  0  0  0  0  0  0  0  0  0  0  0
    0.0382   -8.6465    1.7566 H   0  0  0  0  0  0  0  0  0  0  0  0
   -2.2861   -7.0578    2.9793 H   0  0  0  0  0  0  0  0  0  0  0  0
   -2.3730   -8.3792    1.6912 H   0  0  0  0  0  0  0  0  0  0  0  0
   -1.3728  -10.0222    3.2530 H   0  0  0  0  0  0  0  0  0  0  0  0
   -1.2835   -8.7458    4.5759 H   0  0  0  0  0  0  0  0  0  0  0  0
    1.9727   -9.1760    2.5769 H   0  0  0  0  0  0  0  0  0  0  0  0
    1.9243   -7.5213    0.9496 H   0  0  0  0  0  0  0  0  0  0  0  0
    3.4442   -8.2835    0.8462 H   0  0  0  0  0  0  0  0  0  0  0  0
    3.6949  -10.5514    2.0654 H   0  0  0  0  0  0  0  0  0  0  0  0
    5.7149   -9.9859    4.1326 H   0  0  0  0  0  0  0  0  0  0  0  0
  1  2  1  0
  1 29  1  0
  1 30  1  0
  1 31  1  0
  2  3  1  0
  3  8  2  0
  3  4  1  0
  4  5  2  0
  4 32  1  0
  5  6  1  0
  5 33  1  0
  6 27  1  0
  6  7  2  0
  7  8  1  0
  7  9  1  0
  8 34  1  0
  9 18  1  0
  9 10  1  0
  9 35  1  1
 10 11  1  0
 10 36  1  0
 10 37  1  0
 11 12  1  0
 11 38  1  0
 11 39  1  0
 12 28  1  0
 12 13  1  0
 12 40  1  6
 13 14  1  0
 13 41  1  0
 13 42  1  0
 14 15  1  0
 14 43  1  0
 14 44  1  0
 15 28  1  0
 15 16  1  0
 15 63  1  1
 17 16  1  1
 16 45  1  0
 16 46  1  0
 17 26  1  0
 17 18  1  0
 17 28  1  0
 18 19  1  0
 18 47  1  1
 19 20  1  0
 19 48  1  0
 19 49  1  0
 20 21  1  0
 20 50  1  0
 20 51  1  0
 21 22  1  0
 21 26  1  0
 22 23  1  0
 22 52  1  0
 22 53  1  0
 23 25  1  0
 23 24  1  0
 23 54  1  0
 24 25  1  0
 24 55  1  0
 24 56  1  0
 25 57  1  0
 25 58  1  0
 26 27  1  0
 26 59  1  6
 27 60  1  0
 27 61  1  0
 28 62  1  6
M  CHG  1  15   1
M  END
>  <i_m_ct_stereo_status>  (277) 
1

>  <s_m_source_file>  (277) 
/var/tmp/pbs.5076255.sched01/tmpagfdxo7m/88tnrj_5ym.sdf

>  <i_m_source_file_index>  (277) 
26

>  <i_lp_mmshare_version>  (277) 
48012

>  <i_f3d_flags>  (277) 
0

>  <s_epik_input>  (277) 
W0NIMl0xW0NIMl1bQ0hdMVtDSDJdTihbQ0gyXVtDSDJdMilbQ0BIXTNbQ0gyXWMoW2NIXVtjSF1jKFtjSF00KU9bQ0gzXSljNFtDQEBIXShbQ0BASF0yW0NAXTM1NilbQ0gyXVtDSDJdW0NAQEhdN1tDQEhdNk4oW0NIMl01KVtDSDJdW0NIMl03

>  <s_epik_cmdline>  (277) 
J2VwaWtfcHl0aG9uJywgJy1waHQnLCAnMi4wJywgJy1waCcsICc3LjAnLCAnLXRuJywgJzgnLCAnLW1hJywgJzIwMCcsICctaW1hZScsICc8aW5maWxlLm1hZT4nLCAnLW9tYWUnLCAnPG91dGZpbGUubWFlPic=

>  <r_lp_tautomer_probability>  (277) 
1

>  <r_epik_Ionization_Penalty>  (277) 
2.24953

>  <r_epik_Ionization_Penalty_Charging>  (277) 
0.000204335

>  <r_epik_Ionization_Penalty_Neutral>  (277) 
2.24932

>  <r_epik_State_Penalty>  (277) 
2.39633

>  <r_epik_Charging_Adjusted_Penalty>  (277) 
2.39653

>  <i_epik_Tot_Q>  (277) 
1

>  <i_epik_Tot_abs_Q>  (277) 
1

>  <s_lp_Force_Field>  (277) 
OPLS3e

>  <r_lp_Energy>  (277) 
105.212

>  <b_lp_Chiralities_Consistent>  (277) 
1

>  <s_lp_Variant>  (277) 
80:0-2

>  <s_i_glide_gridfile>  (277) 
pfpi4k_grid

>  <i_i_glide_lignum>  (277) 
26

>  <i_i_glide_rotatable_bonds>  (277) 
3

>  <r_i_docking_score>  (277) 
-2.20672

>  <r_i_glide_ligand_efficiency>  (277) 
-0.0788114

>  <r_i_glide_ligand_efficiency_sa>  (277) 
-0.239318

>  <r_i_glide_ligand_efficiency_ln>  (277) 
-0.509376

>  <r_i_glide_gscore>  (277) 
-2.20672

>  <r_i_glide_lipo>  (277) 
-0.295773

>  <r_i_glide_hbond>  (277) 
0

>  <r_i_glide_metal>  (277) 
-0

>  <r_i_glide_rewards>  (277) 
-0.821194

>  <r_i_glide_evdw>  (277) 
-21.6852

>  <r_i_glide_ecoul>  (277) 
-1.73006

>  <r_i_glide_erotb>  (277) 
0.269201

>  <r_i_glide_esite>  (277) 
-0.0151857

>  <r_i_glide_emodel>  (277) 
-27.7449

>  <r_i_glide_energy>  (277) 
-23.4152

>  <r_i_glide_einternal>  (277) 
1.51756

>  <r_i_glide_intrahb_reward>  (277) 
-0

>  <i_i_glide_confnum>  (277) 
2

>  <i_i_glide_posenum>  (277) 
20

>  <r_i_glide_eff_state_penalty>  (277) 
0

>  <ligand_id>  (277) 
80

>  <original_smiles>  (277) 
COc1ccc2c(c1)C1CCC3CCN4CC5(C1CCN(CC1CC1)C5C2)C34

>  <smiles>  (277) 
[H]c1c([H])c2c(c([H])c1OC([H])([H])[H])C1([H])C([H])([H])C([H])([H])C3([H])C([H])([H])C([H])([H])[N+]4([H])C([H])([H])C5(C([H])(N(C([H])([H])C6([H])C([H])([H])C6([H])[H])C([H])([H])C([H])([H])C15[H])C2([H])[H])C34[H]

$$$$
81:0:0
     RDKit          3D

 19 20  0  0  1  0  0  0  0  0999 V2000
    3.4111   -0.1899   -5.0766 C   0  0  0  0  0  0  0  0  0  0  0  0
    3.9292   -1.4589   -4.7221 O   0  0  0  0  0  0  0  0  0  0  0  0
    4.2731   -1.5921   -3.3642 C   0  0  2  0  0  0  0  0  0  0  0  0
    5.0171   -2.9252   -3.0677 C   0  0  0  0  0  0  0  0  0  0  0  0
    4.6232   -3.1677   -1.6752 C   0  0  0  0  0  0  0  0  0  0  0  0
    5.1258   -3.8829   -0.6738 N   0  0  0  0  0  0  0  0  0  0  0  0
    4.2918   -3.5645    0.4007 N   0  0  0  0  0  0  0  0  0  0  0  0
    3.3957   -2.6890   -0.0928 C   0  0  0  0  0  0  0  0  0  0  0  0
    3.5785   -2.4308   -1.3808 N   0  0  0  0  0  0  0  0  0  0  0  0
    3.0500   -1.6254   -2.4232 C   0  0  0  0  0  0  0  0  0  0  0  0
    3.2065   -0.1704   -6.1525 H   0  0  0  0  0  0  0  0  0  0  0  0
    4.1163    0.6130   -4.8595 H   0  0  0  0  0  0  0  0  0  0  0  0
    2.4728    0.0137   -4.5618 H   0  0  0  0  0  0  0  0  0  0  0  0
    4.9297   -0.7781   -3.0676 H   0  0  0  0  0  0  0  0  0  0  0  0
    4.5931   -3.7392   -3.6476 H   0  0  0  0  0  0  0  0  0  0  0  0
    6.1045   -2.8919   -3.1676 H   0  0  0  0  0  0  0  0  0  0  0  0
    2.6530   -2.1840    0.5087 H   0  0  0  0  0  0  0  0  0  0  0  0
    2.7226   -0.6490   -2.0578 H   0  0  0  0  0  0  0  0  0  0  0  0
    2.1929   -2.1473   -2.8707 H   0  0  0  0  0  0  0  0  0  0  0  0
  1  2  1  0
  1 11  1  0
  1 12  1  0
  1 13  1  0
  2  3  1  0
  3 10  1  0
  3  4  1  0
  3 14  1  1
  4  5  1  0
  4 15  1  0
  4 16  1  0
  5  9  1  0
  5  6  2  0
  6  7  1  0
  7  8  2  0
  8  9  1  0
  8 17  1  0
  9 10  1  0
 10 18  1  0
 10 19  1  0
M  END
>  <i_m_ct_stereo_status>  (278) 
1

>  <s_m_source_file>  (278) 
/var/tmp/pbs.5076255.sched01/tmpagfdxo7m/88tnrj_5ym.sdf

>  <i_m_source_file_index>  (278) 
27

>  <i_lp_mmshare_version>  (278) 
48012

>  <i_f3d_flags>  (278) 
0

>  <s_epik_input>  (278) 
W0NIM11PW0NASF0oW0NIMl0xKVtDSDJdbihjMTIpW2NIXW5uMg==

>  <s_epik_cmdline>  (278) 
J2VwaWtfcHl0aG9uJywgJy1waHQnLCAnMi4wJywgJy1waCcsICc3LjAnLCAnLXRuJywgJzgnLCAnLW1hJywgJzIwMCcsICctaW1hZScsICc8aW5maWxlLm1hZT4nLCAnLW9tYWUnLCAnPG91dGZpbGUubWFlPic=

>  <r_lp_tautomer_probability>  (278) 
1

>  <r_epik_Ionization_Penalty>  (278) 
1.89051e-05

>  <r_epik_Ionization_Penalty_Charging>  (278) 
0

>  <r_epik_Ionization_Penalty_Neutral>  (278) 
1.89051e-05

>  <r_epik_State_Penalty>  (278) 
-0

>  <r_epik_Charging_Adjusted_Penalty>  (278) 
0

>  <i_epik_Tot_Q>  (278) 
0

>  <i_epik_Tot_abs_Q>  (278) 
0

>  <s_lp_Force_Field>  (278) 
OPLS3e

>  <r_lp_Energy>  (278) 
17.8871

>  <b_lp_Chiralities_Consistent>  (278) 
1

>  <s_lp_Variant>  (278) 
81:0-1

>  <s_i_glide_gridfile>  (278) 
pfpi4k_grid

>  <i_i_glide_lignum>  (278) 
27

>  <i_i_glide_rotatable_bonds>  (278) 
1

>  <r_i_docking_score>  (278) 
-4.44743

>  <r_i_glide_ligand_efficiency>  (278) 
-0.444743

>  <r_i_glide_ligand_efficiency_sa>  (278) 
-0.958169

>  <r_i_glide_ligand_efficiency_ln>  (278) 
-1.34665

>  <r_i_glide_gscore>  (278) 
-4.44743

>  <r_i_glide_lipo>  (278) 
-0.422202

>  <r_i_glide_hbond>  (278) 
-0.32

>  <r_i_glide_metal>  (278) 
-0

>  <r_i_glide_rewards>  (278) 
-2.25016

>  <r_i_glide_evdw>  (278) 
-16.7126

>  <r_i_glide_ecoul>  (278) 
-3.62119

>  <r_i_glide_erotb>  (278) 
0

>  <r_i_glide_esite>  (278) 
-0.0762498

>  <r_i_glide_emodel>  (278) 
-25.4285

>  <r_i_glide_energy>  (278) 
-20.3338

>  <r_i_glide_einternal>  (278) 
0.00311896

>  <r_i_glide_intrahb_reward>  (278) 
-0

>  <i_i_glide_confnum>  (278) 
1

>  <i_i_glide_posenum>  (278) 
29

>  <r_i_glide_eff_state_penalty>  (278) 
0

>  <ligand_id>  (278) 
81

>  <original_smiles>  (278) 
COC1Cc2nncn2C1

>  <smiles>  (278) 
[H]c1nnc2n1C([H])([H])C([H])(OC([H])([H])[H])C2([H])[H]

$$$$
81:0:1
     RDKit          3D

 19 20  0  0  1  0  0  0  0  0999 V2000
    3.4756    0.1969   -5.0243 C   0  0  0  0  0  0  0  0  0  0  0  0
    3.8101   -1.1434   -4.6857 O   0  0  0  0  0  0  0  0  0  0  0  0
    3.4136   -1.4805   -3.3623 C   0  0  2  0  0  0  0  0  0  0  0  0
    4.3923   -0.9589   -2.2697 C   0  0  0  0  0  0  0  0  0  0  0  0
    4.2096   -1.9682   -1.2124 C   0  0  0  0  0  0  0  0  0  0  0  0
    4.4793   -2.0067    0.0898 N   0  0  0  0  0  0  0  0  0  0  0  0
    4.0003   -3.2613    0.4772 N   0  0  0  0  0  0  0  0  0  0  0  0
    3.4992   -3.8194   -0.6414 C   0  0  0  0  0  0  0  0  0  0  0  0
    3.6382   -3.0413   -1.7162 N   0  0  0  0  0  0  0  0  0  0  0  0
    3.3396   -3.0117   -3.1192 C   0  0  0  0  0  0  0  0  0  0  0  0
    3.8067    0.4212   -6.0411 H   0  0  0  0  0  0  0  0  0  0  0  0
    3.9581    0.9058   -4.3486 H   0  0  0  0  0  0  0  0  0  0  0  0
    2.3962    0.3630   -4.9804 H   0  0  0  0  0  0  0  0  0  0  0  0
    2.4189   -1.0929   -3.1416 H   0  0  0  0  0  0  0  0  0  0  0  0
    5.4205   -1.0417   -2.6156 H   0  0  0  0  0  0  0  0  0  0  0  0
    4.2182    0.0533   -1.8992 H   0  0  0  0  0  0  0  0  0  0  0  0
    3.0024   -4.7796   -0.6707 H   0  0  0  0  0  0  0  0  0  0  0  0
    2.3719   -3.4649   -3.3394 H   0  0  0  0  0  0  0  0  0  0  0  0
    4.1386   -3.5409   -3.6462 H   0  0  0  0  0  0  0  0  0  0  0  0
  1  2  1  0
  1 11  1  0
  1 12  1  0
  1 13  1  0
  2  3  1  0
  3 10  1  0
  3  4  1  0
  3 14  1  1
  4  5  1  0
  4 15  1  0
  4 16  1  0
  5  9  1  0
  5  6  2  0
  6  7  1  0
  7  8  2  0
  8  9  1  0
  8 17  1  0
  9 10  1  0
 10 18  1  0
 10 19  1  0
M  END
>  <i_m_ct_stereo_status>  (279) 
1

>  <s_m_source_file>  (279) 
/var/tmp/pbs.5076255.sched01/tmpagfdxo7m/88tnrj_5ym.sdf

>  <i_m_source_file_index>  (279) 
27

>  <i_lp_mmshare_version>  (279) 
48012

>  <i_f3d_flags>  (279) 
0

>  <s_epik_input>  (279) 
W0NIM11PW0NASF0oW0NIMl0xKVtDSDJdbihjMTIpW2NIXW5uMg==

>  <s_epik_cmdline>  (279) 
J2VwaWtfcHl0aG9uJywgJy1waHQnLCAnMi4wJywgJy1waCcsICc3LjAnLCAnLXRuJywgJzgnLCAnLW1hJywgJzIwMCcsICctaW1hZScsICc8aW5maWxlLm1hZT4nLCAnLW9tYWUnLCAnPG91dGZpbGUubWFlPic=

>  <r_lp_tautomer_probability>  (279) 
1

>  <r_epik_Ionization_Penalty>  (279) 
1.89051e-05

>  <r_epik_Ionization_Penalty_Charging>  (279) 
0

>  <r_epik_Ionization_Penalty_Neutral>  (279) 
1.89051e-05

>  <r_epik_State_Penalty>  (279) 
-0

>  <r_epik_Charging_Adjusted_Penalty>  (279) 
0

>  <i_epik_Tot_Q>  (279) 
0

>  <i_epik_Tot_abs_Q>  (279) 
0

>  <s_lp_Force_Field>  (279) 
OPLS3e

>  <r_lp_Energy>  (279) 
17.8871

>  <b_lp_Chiralities_Consistent>  (279) 
1

>  <s_lp_Variant>  (279) 
81:0-1

>  <s_i_glide_gridfile>  (279) 
pfpi4k_grid

>  <i_i_glide_lignum>  (279) 
27

>  <i_i_glide_rotatable_bonds>  (279) 
1

>  <r_i_docking_score>  (279) 
-4.24274

>  <r_i_glide_ligand_efficiency>  (279) 
-0.424274

>  <r_i_glide_ligand_efficiency_sa>  (279) 
-0.91407

>  <r_i_glide_ligand_efficiency_ln>  (279) 
-1.28467

>  <r_i_glide_gscore>  (279) 
-4.24274

>  <r_i_glide_lipo>  (279) 
-0.31311

>  <r_i_glide_hbond>  (279) 
-0.32

>  <r_i_glide_metal>  (279) 
-0

>  <r_i_glide_rewards>  (279) 
-2.25

>  <r_i_glide_evdw>  (279) 
-16.9032

>  <r_i_glide_ecoul>  (279) 
-3.01163

>  <r_i_glide_erotb>  (279) 
0

>  <r_i_glide_esite>  (279) 
-0.0627223

>  <r_i_glide_emodel>  (279) 
-24.6303

>  <r_i_glide_energy>  (279) 
-19.9148

>  <r_i_glide_einternal>  (279) 
0.397762

>  <r_i_glide_intrahb_reward>  (279) 
-0

>  <i_i_glide_confnum>  (279) 
2

>  <i_i_glide_posenum>  (279) 
22

>  <r_i_glide_eff_state_penalty>  (279) 
0

>  <ligand_id>  (279) 
81

>  <original_smiles>  (279) 
COC1Cc2nncn2C1

>  <smiles>  (279) 
[H]c1nnc2n1C([H])([H])C([H])(OC([H])([H])[H])C2([H])[H]

$$$$
81:0:2
     RDKit          3D

 19 20  0  0  1  0  0  0  0  0999 V2000
    3.1694    0.1521   -5.2868 C   0  0  0  0  0  0  0  0  0  0  0  0
    3.9656   -0.7905   -4.5823 O   0  0  0  0  0  0  0  0  0  0  0  0
    3.3826   -1.2000   -3.3555 C   0  0  2  0  0  0  0  0  0  0  0  0
    4.4443   -1.4183   -2.2417 C   0  0  0  0  0  0  0  0  0  0  0  0
    3.7895   -2.4449   -1.4055 C   0  0  0  0  0  0  0  0  0  0  0  0
    3.9543   -2.8704   -0.1583 N   0  0  0  0  0  0  0  0  0  0  0  0
    2.9359   -3.8123   -0.0039 N   0  0  0  0  0  0  0  0  0  0  0  0
    2.2837   -3.8333   -1.1772 C   0  0  0  0  0  0  0  0  0  0  0  0
    2.8141   -3.0085   -2.0832 N   0  0  0  0  0  0  0  0  0  0  0  0
    2.6190   -2.5507   -3.4322 C   0  0  0  0  0  0  0  0  0  0  0  0
    3.6559    0.4300   -6.2227 H   0  0  0  0  0  0  0  0  0  0  0  0
    3.0274    1.0633   -4.7075 H   0  0  0  0  0  0  0  0  0  0  0  0
    2.1809   -0.2574   -5.5111 H   0  0  0  0  0  0  0  0  0  0  0  0
    2.6950   -0.4439   -2.9695 H   0  0  0  0  0  0  0  0  0  0  0  0
    5.3425   -1.8703   -2.6602 H   0  0  0  0  0  0  0  0  0  0  0  0
    4.6840   -0.5249   -1.6631 H   0  0  0  0  0  0  0  0  0  0  0  0
    1.4124   -4.4390   -1.3810 H   0  0  0  0  0  0  0  0  0  0  0  0
    1.5643   -2.4827   -3.6947 H   0  0  0  0  0  0  0  0  0  0  0  0
    3.1235   -3.2517   -4.1012 H   0  0  0  0  0  0  0  0  0  0  0  0
  1  2  1  0
  1 11  1  0
  1 12  1  0
  1 13  1  0
  2  3  1  0
  3 10  1  0
  3  4  1  0
  3 14  1  1
  4  5  1  0
  4 15  1  0
  4 16  1  0
  5  9  1  0
  5  6  2  0
  6  7  1  0
  7  8  2  0
  8  9  1  0
  8 17  1  0
  9 10  1  0
 10 18  1  0
 10 19  1  0
M  END
>  <i_m_ct_stereo_status>  (280) 
1

>  <s_m_source_file>  (280) 
/var/tmp/pbs.5076255.sched01/tmpagfdxo7m/88tnrj_5ym.sdf

>  <i_m_source_file_index>  (280) 
27

>  <i_lp_mmshare_version>  (280) 
48012

>  <i_f3d_flags>  (280) 
0

>  <s_epik_input>  (280) 
W0NIM11PW0NASF0oW0NIMl0xKVtDSDJdbihjMTIpW2NIXW5uMg==

>  <s_epik_cmdline>  (280) 
J2VwaWtfcHl0aG9uJywgJy1waHQnLCAnMi4wJywgJy1waCcsICc3LjAnLCAnLXRuJywgJzgnLCAnLW1hJywgJzIwMCcsICctaW1hZScsICc8aW5maWxlLm1hZT4nLCAnLW9tYWUnLCAnPG91dGZpbGUubWFlPic=

>  <r_lp_tautomer_probability>  (280) 
1

>  <r_epik_Ionization_Penalty>  (280) 
1.89051e-05

>  <r_epik_Ionization_Penalty_Charging>  (280) 
0

>  <r_epik_Ionization_Penalty_Neutral>  (280) 
1.89051e-05

>  <r_epik_State_Penalty>  (280) 
-0

>  <r_epik_Charging_Adjusted_Penalty>  (280) 
0

>  <i_epik_Tot_Q>  (280) 
0

>  <i_epik_Tot_abs_Q>  (280) 
0

>  <s_lp_Force_Field>  (280) 
OPLS3e

>  <r_lp_Energy>  (280) 
17.8871

>  <b_lp_Chiralities_Consistent>  (280) 
1

>  <s_lp_Variant>  (280) 
81:0-1

>  <s_i_glide_gridfile>  (280) 
pfpi4k_grid

>  <i_i_glide_lignum>  (280) 
27

>  <i_i_glide_rotatable_bonds>  (280) 
1

>  <r_i_docking_score>  (280) 
-4.14668

>  <r_i_glide_ligand_efficiency>  (280) 
-0.414668

>  <r_i_glide_ligand_efficiency_sa>  (280) 
-0.893374

>  <r_i_glide_ligand_efficiency_ln>  (280) 
-1.25558

>  <r_i_glide_gscore>  (280) 
-4.14668

>  <r_i_glide_lipo>  (280) 
-0.46134

>  <r_i_glide_hbond>  (280) 
-0.140465

>  <r_i_glide_metal>  (280) 
-0

>  <r_i_glide_rewards>  (280) 
-2.25

>  <r_i_glide_evdw>  (280) 
-17.4239

>  <r_i_glide_ecoul>  (280) 
-2.18337

>  <r_i_glide_erotb>  (280) 
0

>  <r_i_glide_esite>  (280) 
-0.0961696

>  <r_i_glide_emodel>  (280) 
-23.5474

>  <r_i_glide_energy>  (280) 
-19.6073

>  <r_i_glide_einternal>  (280) 
1.16349

>  <r_i_glide_intrahb_reward>  (280) 
-0

>  <i_i_glide_confnum>  (280) 
1

>  <i_i_glide_posenum>  (280) 
11

>  <r_i_glide_eff_state_penalty>  (280) 
0

>  <ligand_id>  (280) 
81

>  <original_smiles>  (280) 
COC1Cc2nncn2C1

>  <smiles>  (280) 
[H]c1nnc2n1C([H])([H])C([H])(OC([H])([H])[H])C2([H])[H]

$$$$
82:0:0
     RDKit          3D

 57 62  0  0  1  0  0  0  0  0999 V2000
    4.5449   -0.4037    2.5049 O   0  0  0  0  0  0  0  0  0  0  0  0
    3.5964    0.1239    1.9247 C   0  0  0  0  0  0  0  0  0  0  0  0
    2.8922    1.3228    2.3805 C   0  0  0  0  0  0  0  0  0  0  0  0
    3.2123    1.8936    3.5611 C   0  0  0  0  0  0  0  0  0  0  0  0
    2.6016    3.1236    4.0980 C   0  0  0  0  0  0  0  0  0  0  0  0
    1.6266    3.9356    3.4517 C   0  0  0  0  0  0  0  0  0  0  0  0
    1.3479    4.9390    4.3308 C   0  0  0  0  0  0  0  0  0  0  0  0
    2.0757    4.7911    5.4770 O   0  0  0  0  0  0  0  0  0  0  0  0
    2.8474    3.6779    5.3215 C   0  0  0  0  0  0  0  0  0  0  0  0
    3.1570   -0.3356    0.7397 N   0  0  0  0  0  0  0  0  0  0  0  0
    3.8305   -1.3620   -0.0775 C   0  0  2  0  0  0  0  0  0  0  0  0
    3.4384   -1.3037   -1.6022 C   0  0  0  0  0  0  0  0  0  0  0  0
    3.3891   -2.6897   -2.2328 C   0  0  0  0  0  0  0  0  0  0  0  0
    2.6125   -2.9685   -3.1397 O   0  0  0  0  0  0  0  0  0  0  0  0
    4.4425   -3.6590   -1.7490 C   0  0  1  0  0  0  0  0  0  0  0  0
    5.6909   -3.0462   -2.0795 O   0  0  0  0  0  0  0  0  0  0  0  0
    6.4995   -3.2234   -1.0010 C   0  0  0  0  0  0  0  0  0  0  0  0
    7.9001   -3.0398   -0.9010 C   0  0  0  0  0  0  0  0  0  0  0  0
    8.5854   -2.4806   -1.9275 O   0  0  0  0  0  0  0  0  0  0  0  0
    8.5853   -3.4569    0.2600 C   0  0  0  0  0  0  0  0  0  0  0  0
    7.9044   -4.1173    1.2867 C   0  0  0  0  0  0  0  0  0  0  0  0
    6.4922   -4.1965    1.2761 C   0  0  0  0  0  0  0  0  0  0  0  0
    5.8799   -3.7314    0.1112 C   0  0  0  0  0  0  0  0  0  0  0  0
    4.4281   -3.8719   -0.1794 C   0  0  1  0  0  0  0  0  0  0  0  0
    3.5983   -2.7669    0.5501 C   0  0  0  0  0  0  0  0  0  0  0  0
    3.9870   -5.3084    0.2620 C   0  0  2  0  0  0  0  0  0  0  0  0
    4.6199   -6.2115   -0.6155 O   0  0  0  0  0  0  0  0  0  0  0  0
    2.5744   -5.3585    0.1001 O   0  0  0  0  0  0  0  0  0  0  0  0
    1.7680   -6.2229    0.7988 C   0  0  0  0  0  0  0  0  0  0  0  0
    0.5576   -6.3280    0.6152 O   0  0  0  0  0  0  0  0  0  0  0  0
    2.4055   -7.0501    1.8831 C   0  0  0  0  0  0  0  0  0  0  0  0
    3.3906   -6.1734    2.6295 C   0  0  0  0  0  0  0  0  0  0  0  0
    4.5090   -5.7770    1.6744 C   0  0  2  0  0  0  0  0  0  0  0  0
    5.5259   -4.7979    2.2884 C   0  0  0  0  0  0  0  0  0  0  0  0
    2.1275    1.7902    1.7757 H   0  0  0  0  0  0  0  0  0  0  0  0
    3.9907    1.4493    4.1671 H   0  0  0  0  0  0  0  0  0  0  0  0
    1.1707    3.8132    2.4800 H   0  0  0  0  0  0  0  0  0  0  0  0
    0.6891    5.7937    4.3044 H   0  0  0  0  0  0  0  0  0  0  0  0
    3.4824    3.4333    6.1628 H   0  0  0  0  0  0  0  0  0  0  0  0
    2.3471    0.1052    0.3223 H   0  0  0  0  0  0  0  0  0  0  0  0
    4.9013   -1.1309   -0.0749 H   0  0  0  0  0  0  0  0  0  0  0  0
    2.4860   -0.8910   -1.8673 H   0  0  0  0  0  0  0  0  0  0  0  0
    4.0526   -0.6047   -2.1728 H   0  0  0  0  0  0  0  0  0  0  0  0
    4.3924   -4.5780   -2.3356 H   0  0  0  0  0  0  0  0  0  0  0  0
    9.5517   -2.6503   -1.9348 H   0  0  0  0  0  0  0  0  0  0  0  0
    9.6354   -3.2501    0.3918 H   0  0  0  0  0  0  0  0  0  0  0  0
    8.4688   -4.4414    2.1407 H   0  0  0  0  0  0  0  0  0  0  0  0
    3.8486   -2.7596    1.6060 H   0  0  0  0  0  0  0  0  0  0  0  0
    2.5235   -2.9749    0.5205 H   0  0  0  0  0  0  0  0  0  0  0  0
    4.1142   -6.2331   -1.4198 H   0  0  0  0  0  0  0  0  0  0  0  0
    1.6126   -7.4046    2.5457 H   0  0  0  0  0  0  0  0  0  0  0  0
    2.8712   -7.9376    1.4511 H   0  0  0  0  0  0  0  0  0  0  0  0
    2.8880   -5.2984    3.0412 H   0  0  0  0  0  0  0  0  0  0  0  0
    3.7921   -6.7423    3.4683 H   0  0  0  0  0  0  0  0  0  0  0  0
    5.0725   -6.7008    1.5034 H   0  0  0  0  0  0  0  0  0  0  0  0
    6.1057   -5.3415    3.0286 H   0  0  0  0  0  0  0  0  0  0  0  0
    5.0112   -4.0175    2.8542 H   0  0  0  0  0  0  0  0  0  0  0  0
  1  2  2  0
  2  3  1  0
  2 10  1  0
  3  4  2  3
  3 35  1  0
  4  5  1  0
  4 36  1  0
  5  9  2  0
  5  6  1  0
  6  7  2  0
  6 37  1  0
  7  8  1  0
  7 38  1  0
  8  9  1  0
  9 39  1  0
 10 11  1  0
 10 40  1  0
 11 25  1  0
 11 12  1  0
 11 41  1  6
 12 13  1  0
 12 42  1  0
 12 43  1  0
 13 14  2  0
 13 15  1  0
 15 24  1  0
 15 16  1  0
 15 44  1  6
 16 17  1  0
 17 23  2  0
 17 18  1  0
 18 19  1  0
 18 20  2  0
 19 45  1  0
 20 21  1  0
 20 46  1  0
 21 22  2  0
 21 47  1  0
 22 34  1  0
 22 23  1  0
 23 24  1  0
 24 25  1  1
 24 26  1  0
 25 48  1  0
 25 49  1  0
 26 33  1  0
 26 27  1  6
 26 28  1  0
 27 50  1  0
 28 29  1  0
 29 30  2  0
 29 31  1  0
 31 32  1  0
 31 51  1  0
 31 52  1  0
 32 33  1  0
 32 53  1  0
 32 54  1  0
 33 34  1  0
 33 55  1  6
 34 56  1  0
 34 57  1  0
M  END
>  <i_m_ct_stereo_status>  (281) 
1

>  <s_m_source_file>  (281) 
/var/tmp/pbs.5076255.sched01/tmpagfdxo7m/88tnrj_5ym.sdf

>  <i_m_source_file_index>  (281) 
28

>  <i_lp_mmshare_version>  (281) 
48012

>  <i_f3d_flags>  (281) 
0

>  <s_epik_input>  (281) 
W2NIXTFvW2NIXVtjSF1jMVxbQ0hdPVtDSF1cQyg9TylbTkhdW0NAQEhdKFtDSDJdMilbQ0gyXUMoPU8pW0NASF0oW0NAXTIzNClPYzVjM2MoW2NIXVtjSF1jNVtPSF0pW0NIMl1bQ0BASF02W0NAQF00KFtPSF0pT0MoPU8pW0NIMl1bQ0gyXTY=

>  <s_epik_cmdline>  (281) 
J2VwaWtfcHl0aG9uJywgJy1waHQnLCAnMi4wJywgJy1waCcsICc3LjAnLCAnLXRuJywgJzgnLCAnLW1hJywgJzIwMCcsICctaW1hZScsICc8aW5maWxlLm1hZT4nLCAnLW9tYWUnLCAnPG91dGZpbGUubWFlPic=

>  <r_lp_tautomer_probability>  (281) 
1

>  <r_epik_Ionization_Penalty>  (281) 
0.006039

>  <r_epik_Ionization_Penalty_Charging>  (281) 
0

>  <r_epik_Ionization_Penalty_Neutral>  (281) 
0.006039

>  <r_epik_State_Penalty>  (281) 
0.00443428

>  <r_epik_Charging_Adjusted_Penalty>  (281) 
0.00443428

>  <i_epik_Tot_Q>  (281) 
0

>  <i_epik_Tot_abs_Q>  (281) 
0

>  <s_epik_Chemistry_Notes>  (281) 
This compound has an ester and may undergo hydrolysis at high or low pH.

>  <s_lp_Force_Field>  (281) 
OPLS3e

>  <r_lp_Energy>  (281) 
52.6984

>  <b_lp_Chiralities_Consistent>  (281) 
1

>  <s_lp_Variant>  (281) 
82:0-1

>  <s_i_glide_gridfile>  (281) 
pfpi4k_grid

>  <i_i_glide_lignum>  (281) 
28

>  <i_i_glide_rotatable_bonds>  (281) 
6

>  <r_i_docking_score>  (281) 
-4.54458

>  <r_i_glide_ligand_efficiency>  (281) 
-0.133664

>  <r_i_glide_ligand_efficiency_sa>  (281) 
-0.43302

>  <r_i_glide_ligand_efficiency_ln>  (281) 
-1.00402

>  <r_i_glide_gscore>  (281) 
-4.54458

>  <r_i_glide_lipo>  (281) 
-0.617319

>  <r_i_glide_hbond>  (281) 
-0.204722

>  <r_i_glide_metal>  (281) 
-0

>  <r_i_glide_rewards>  (281) 
-0.274006

>  <r_i_glide_evdw>  (281) 
-20.6536

>  <r_i_glide_ecoul>  (281) 
-16.4232

>  <r_i_glide_erotb>  (281) 
0.195486

>  <r_i_glide_esite>  (281) 
-0.147862

>  <r_i_glide_emodel>  (281) 
-46.3852

>  <r_i_glide_energy>  (281) 
-37.0768

>  <r_i_glide_einternal>  (281) 
1.93528

>  <r_i_glide_intrahb_reward>  (281) 
-0

>  <i_i_glide_confnum>  (281) 
3

>  <i_i_glide_posenum>  (281) 
37

>  <r_i_glide_eff_state_penalty>  (281) 
0

>  <ligand_id>  (281) 
82

>  <original_smiles>  (281) 
O=C(C=Cc1ccoc1)NC1CC(=O)C2Oc3c(O)ccc4c3C2(C1)C1(O)OC(=O)CCC1C4

>  <smiles>  (281) 
[H]Oc1c([H])c([H])c2c3c1OC1([H])C(=O)C([H])([H])C([H])(N([H])C(=O)C([H])=C([H])c4c([H])oc([H])c4[H])C([H])([H])C31C1(O[H])OC(=O)C([H])([H])C([H])([H])C1([H])C2([H])[H]

$$$$
82:0:1
     RDKit          3D

 57 62  0  0  1  0  0  0  0  0999 V2000
    4.9232   -0.2757    2.3857 O   0  0  0  0  0  0  0  0  0  0  0  0
    3.8290    0.0524    1.9338 C   0  0  0  0  0  0  0  0  0  0  0  0
    2.9691    1.0402    2.5735 C   0  0  0  0  0  0  0  0  0  0  0  0
    1.6423    1.1356    2.3639 C   0  0  0  0  0  0  0  0  0  0  0  0
    0.7751    2.1283    3.0082 C   0  0  0  0  0  0  0  0  0  0  0  0
    1.1577    3.2057    3.8551 C   0  0  0  0  0  0  0  0  0  0  0  0
   -0.0260    3.7997    4.1894 C   0  0  0  0  0  0  0  0  0  0  0  0
   -1.0877    3.1569    3.6340 O   0  0  0  0  0  0  0  0  0  0  0  0
   -0.5773    2.1334    2.8985 C   0  0  0  0  0  0  0  0  0  0  0  0
    3.3369   -0.4763    0.8019 N   0  0  0  0  0  0  0  0  0  0  0  0
    3.9921   -1.5400    0.0629 C   0  0  2  0  0  0  0  0  0  0  0  0
    3.5759   -1.5002   -1.4369 C   0  0  0  0  0  0  0  0  0  0  0  0
    3.4298   -2.8915   -2.0119 C   0  0  0  0  0  0  0  0  0  0  0  0
    2.6037   -3.1688   -2.8776 O   0  0  0  0  0  0  0  0  0  0  0  0
    4.4429   -3.8780   -1.4768 C   0  0  1  0  0  0  0  0  0  0  0  0
    5.7257   -3.3226   -1.7978 O   0  0  0  0  0  0  0  0  0  0  0  0
    6.5260   -3.5199   -0.7353 C   0  0  0  0  0  0  0  0  0  0  0  0
    7.9318   -3.4238   -0.6792 C   0  0  0  0  0  0  0  0  0  0  0  0
    8.6004   -2.9552   -1.7747 O   0  0  0  0  0  0  0  0  0  0  0  0
    8.5925   -3.8619    0.4885 C   0  0  0  0  0  0  0  0  0  0  0  0
    7.8918   -4.4627    1.5644 C   0  0  0  0  0  0  0  0  0  0  0  0
    6.4773   -4.4888    1.5393 C   0  0  0  0  0  0  0  0  0  0  0  0
    5.8743   -4.0072    0.3775 C   0  0  0  0  0  0  0  0  0  0  0  0
    4.4047   -4.0772    0.0853 C   0  0  1  0  0  0  0  0  0  0  0  0
    3.6709   -2.8849    0.7758 C   0  0  0  0  0  0  0  0  0  0  0  0
    3.8471   -5.4778    0.5725 C   0  0  2  0  0  0  0  0  0  0  0  0
    4.3311   -6.4911   -0.2756 O   0  0  0  0  0  0  0  0  0  0  0  0
    2.4265   -5.4298    0.4880 O   0  0  0  0  0  0  0  0  0  0  0  0
    1.6136   -6.2769    1.1731 C   0  0  0  0  0  0  0  0  0  0  0  0
    0.4030   -6.3612    0.9766 O   0  0  0  0  0  0  0  0  0  0  0  0
    2.2528   -7.0837    2.2802 C   0  0  0  0  0  0  0  0  0  0  0  0
    3.2983   -6.2180    2.9749 C   0  0  0  0  0  0  0  0  0  0  0  0
    4.4063   -5.9213    1.9831 C   0  0  2  0  0  0  0  0  0  0  0  0
    5.4877   -4.9875    2.5599 C   0  0  0  0  0  0  0  0  0  0  0  0
    3.4240    1.7276    3.2652 H   0  0  0  0  0  0  0  0  0  0  0  0
    1.1270    0.4663    1.6923 H   0  0  0  0  0  0  0  0  0  0  0  0
    2.1391    3.5332    4.1839 H   0  0  0  0  0  0  0  0  0  0  0  0
   -0.2829    4.6662    4.7897 H   0  0  0  0  0  0  0  0  0  0  0  0
   -1.2972    1.5161    2.3697 H   0  0  0  0  0  0  0  0  0  0  0  0
    2.4312   -0.1724    0.4654 H   0  0  0  0  0  0  0  0  0  0  0  0
    5.0805   -1.3967    0.0387 H   0  0  0  0  0  0  0  0  0  0  0  0
    2.6277   -1.0655   -1.6253 H   0  0  0  0  0  0  0  0  0  0  0  0
    4.2345   -0.8848   -2.0627 H   0  0  0  0  0  0  0  0  0  0  0  0
    4.3877   -4.8212   -1.9984 H   0  0  0  0  0  0  0  0  0  0  0  0
    9.5620   -2.9745   -1.7856 H   0  0  0  0  0  0  0  0  0  0  0  0
    9.6505   -3.7390    0.5590 H   0  0  0  0  0  0  0  0  0  0  0  0
    8.4421   -4.8311    2.4316 H   0  0  0  0  0  0  0  0  0  0  0  0
    3.9165   -2.8542    1.8394 H   0  0  0  0  0  0  0  0  0  0  0  0
    2.5896   -3.0470    0.7562 H   0  0  0  0  0  0  0  0  0  0  0  0
    4.0441   -6.3103   -1.1676 H   0  0  0  0  0  0  0  0  0  0  0  0
    1.4522   -7.3626    2.9696 H   0  0  0  0  0  0  0  0  0  0  0  0
    2.6743   -8.0153    1.8772 H   0  0  0  0  0  0  0  0  0  0  0  0
    2.8362   -5.3102    3.3667 H   0  0  0  0  0  0  0  0  0  0  0  0
    3.6792   -6.7875    3.8298 H   0  0  0  0  0  0  0  0  0  0  0  0
    4.9076   -6.8741    1.8366 H   0  0  0  0  0  0  0  0  0  0  0  0
    6.0424   -5.5471    3.3015 H   0  0  0  0  0  0  0  0  0  0  0  0
    5.0236   -4.1534    3.0903 H   0  0  0  0  0  0  0  0  0  0  0  0
  1  2  2  0
  2  3  1  0
  2 10  1  0
  3  4  2  3
  3 35  1  0
  4  5  1  0
  4 36  1  0
  5  9  2  0
  5  6  1  0
  6  7  2  0
  6 37  1  0
  7  8  1  0
  7 38  1  0
  8  9  1  0
  9 39  1  0
 10 11  1  0
 10 40  1  0
 11 25  1  0
 11 12  1  0
 11 41  1  6
 12 13  1  0
 12 42  1  0
 12 43  1  0
 13 14  2  0
 13 15  1  0
 15 24  1  0
 15 16  1  0
 15 44  1  6
 16 17  1  0
 17 23  2  0
 17 18  1  0
 18 19  1  0
 18 20  2  0
 19 45  1  0
 20 21  1  0
 20 46  1  0
 21 22  2  0
 21 47  1  0
 22 34  1  0
 22 23  1  0
 23 24  1  0
 24 25  1  1
 24 26  1  0
 25 48  1  0
 25 49  1  0
 26 33  1  0
 26 27  1  6
 26 28  1  0
 27 50  1  0
 28 29  1  0
 29 30  2  0
 29 31  1  0
 31 32  1  0
 31 51  1  0
 31 52  1  0
 32 33  1  0
 32 53  1  0
 32 54  1  0
 33 34  1  0
 33 55  1  6
 34 56  1  0
 34 57  1  0
M  END
>  <i_m_ct_stereo_status>  (282) 
1

>  <s_m_source_file>  (282) 
/var/tmp/pbs.5076255.sched01/tmpagfdxo7m/88tnrj_5ym.sdf

>  <i_m_source_file_index>  (282) 
28

>  <i_lp_mmshare_version>  (282) 
48012

>  <i_f3d_flags>  (282) 
0

>  <s_epik_input>  (282) 
W2NIXTFvW2NIXVtjSF1jMVxbQ0hdPVtDSF1cQyg9TylbTkhdW0NAQEhdKFtDSDJdMilbQ0gyXUMoPU8pW0NASF0oW0NAXTIzNClPYzVjM2MoW2NIXVtjSF1jNVtPSF0pW0NIMl1bQ0BASF02W0NAQF00KFtPSF0pT0MoPU8pW0NIMl1bQ0gyXTY=

>  <s_epik_cmdline>  (282) 
J2VwaWtfcHl0aG9uJywgJy1waHQnLCAnMi4wJywgJy1waCcsICc3LjAnLCAnLXRuJywgJzgnLCAnLW1hJywgJzIwMCcsICctaW1hZScsICc8aW5maWxlLm1hZT4nLCAnLW9tYWUnLCAnPG91dGZpbGUubWFlPic=

>  <r_lp_tautomer_probability>  (282) 
1

>  <r_epik_Ionization_Penalty>  (282) 
0.006039

>  <r_epik_Ionization_Penalty_Charging>  (282) 
0

>  <r_epik_Ionization_Penalty_Neutral>  (282) 
0.006039

>  <r_epik_State_Penalty>  (282) 
0.00443428

>  <r_epik_Charging_Adjusted_Penalty>  (282) 
0.00443428

>  <i_epik_Tot_Q>  (282) 
0

>  <i_epik_Tot_abs_Q>  (282) 
0

>  <s_epik_Chemistry_Notes>  (282) 
This compound has an ester and may undergo hydrolysis at high or low pH.

>  <s_lp_Force_Field>  (282) 
OPLS3e

>  <r_lp_Energy>  (282) 
52.6984

>  <b_lp_Chiralities_Consistent>  (282) 
1

>  <s_lp_Variant>  (282) 
82:0-1

>  <s_i_glide_gridfile>  (282) 
pfpi4k_grid

>  <i_i_glide_lignum>  (282) 
28

>  <i_i_glide_rotatable_bonds>  (282) 
6

>  <r_i_docking_score>  (282) 
-4.53968

>  <r_i_glide_ligand_efficiency>  (282) 
-0.13352

>  <r_i_glide_ligand_efficiency_sa>  (282) 
-0.432553

>  <r_i_glide_ligand_efficiency_ln>  (282) 
-1.00294

>  <r_i_glide_gscore>  (282) 
-4.53968

>  <r_i_glide_lipo>  (282) 
-0.719655

>  <r_i_glide_hbond>  (282) 
-0.23617

>  <r_i_glide_metal>  (282) 
-0

>  <r_i_glide_rewards>  (282) 
-0.298735

>  <r_i_glide_evdw>  (282) 
-27.6677

>  <r_i_glide_ecoul>  (282) 
-13.1506

>  <r_i_glide_erotb>  (282) 
0.195486

>  <r_i_glide_esite>  (282) 
-0.124634

>  <r_i_glide_emodel>  (282) 
-49.3829

>  <r_i_glide_energy>  (282) 
-40.8183

>  <r_i_glide_einternal>  (282) 
4.39952

>  <r_i_glide_intrahb_reward>  (282) 
-0

>  <i_i_glide_confnum>  (282) 
5

>  <i_i_glide_posenum>  (282) 
33

>  <r_i_glide_eff_state_penalty>  (282) 
0

>  <ligand_id>  (282) 
82

>  <original_smiles>  (282) 
O=C(C=Cc1ccoc1)NC1CC(=O)C2Oc3c(O)ccc4c3C2(C1)C1(O)OC(=O)CCC1C4

>  <smiles>  (282) 
[H]Oc1c([H])c([H])c2c3c1OC1([H])C(=O)C([H])([H])C([H])(N([H])C(=O)C([H])=C([H])c4c([H])oc([H])c4[H])C([H])([H])C31C1(O[H])OC(=O)C([H])([H])C([H])([H])C1([H])C2([H])[H]

$$$$
82:0:2
     RDKit          3D

 57 62  0  0  1  0  0  0  0  0999 V2000
    5.1445   -0.5568    2.6425 O   0  0  0  0  0  0  0  0  0  0  0  0
    4.0833   -0.1273    2.2010 C   0  0  0  0  0  0  0  0  0  0  0  0
    3.2630    0.8744    2.8892 C   0  0  0  0  0  0  0  0  0  0  0  0
    1.9757    1.1371    2.5790 C   0  0  0  0  0  0  0  0  0  0  0  0
    1.1173    2.1132    3.2466 C   0  0  0  0  0  0  0  0  0  0  0  0
   -0.2621    2.2867    2.9127 C   0  0  0  0  0  0  0  0  0  0  0  0
   -0.6800    3.2662    3.7657 C   0  0  0  0  0  0  0  0  0  0  0  0
    0.3236    3.6932    4.5861 O   0  0  0  0  0  0  0  0  0  0  0  0
    1.4327    2.9696    4.2506 C   0  0  0  0  0  0  0  0  0  0  0  0
    3.5873   -0.5529    1.0313 N   0  0  0  0  0  0  0  0  0  0  0  0
    4.1541   -1.6365    0.2464 C   0  0  2  0  0  0  0  0  0  0  0  0
    3.6248   -1.5230   -1.2046 C   0  0  0  0  0  0  0  0  0  0  0  0
    3.5174   -2.8803   -1.8658 C   0  0  0  0  0  0  0  0  0  0  0  0
    2.7467   -3.0820   -2.7960 O   0  0  0  0  0  0  0  0  0  0  0  0
    4.5121   -3.9227   -1.3712 C   0  0  1  0  0  0  0  0  0  0  0  0
    5.8100   -3.4186   -1.6798 O   0  0  0  0  0  0  0  0  0  0  0  0
    6.5808   -3.7193   -0.6092 C   0  0  0  0  0  0  0  0  0  0  0  0
    7.9815   -3.6602   -0.5359 C   0  0  0  0  0  0  0  0  0  0  0  0
    8.5787   -3.1830   -1.6374 O   0  0  0  0  0  0  0  0  0  0  0  0
    8.6580   -4.1452    0.6218 C   0  0  0  0  0  0  0  0  0  0  0  0
    7.9389   -4.7295    1.6655 C   0  0  0  0  0  0  0  0  0  0  0  0
    6.5270   -4.7263    1.6358 C   0  0  0  0  0  0  0  0  0  0  0  0
    5.9339   -4.2057    0.4819 C   0  0  0  0  0  0  0  0  0  0  0  0
    4.4788   -4.1933    0.1792 C   0  0  1  0  0  0  0  0  0  0  0  0
    3.7936   -3.0028    0.9090 C   0  0  0  0  0  0  0  0  0  0  0  0
    3.8712   -5.5823    0.5973 C   0  0  2  0  0  0  0  0  0  0  0  0
    4.3126   -6.5737   -0.3186 O   0  0  0  0  0  0  0  0  0  0  0  0
    2.4620   -5.4570    0.5057 O   0  0  0  0  0  0  0  0  0  0  0  0
    1.6160   -6.3187    1.1480 C   0  0  0  0  0  0  0  0  0  0  0  0
    0.4041   -6.3287    0.9303 O   0  0  0  0  0  0  0  0  0  0  0  0
    2.2005   -7.1854    2.2432 C   0  0  0  0  0  0  0  0  0  0  0  0
    3.2673   -6.3937    2.9772 C   0  0  0  0  0  0  0  0  0  0  0  0
    4.4010   -6.1066    2.0014 C   0  0  2  0  0  0  0  0  0  0  0  0
    5.5129   -5.2362    2.6261 C   0  0  0  0  0  0  0  0  0  0  0  0
    3.7219    1.4262    3.6956 H   0  0  0  0  0  0  0  0  0  0  0  0
    1.4723    0.6131    1.7919 H   0  0  0  0  0  0  0  0  0  0  0  0
   -0.8597    1.7891    2.1567 H   0  0  0  0  0  0  0  0  0  0  0  0
   -1.6312    3.7634    3.8988 H   0  0  0  0  0  0  0  0  0  0  0  0
    2.3388    3.1966    4.8223 H   0  0  0  0  0  0  0  0  0  0  0  0
    2.7281   -0.1534    0.6954 H   0  0  0  0  0  0  0  0  0  0  0  0
    5.2495   -1.5271    0.1894 H   0  0  0  0  0  0  0  0  0  0  0  0
    2.6354   -1.0739   -1.2805 H   0  0  0  0  0  0  0  0  0  0  0  0
    4.2772   -0.8926   -1.8057 H   0  0  0  0  0  0  0  0  0  0  0  0
    4.4545   -4.8399   -1.9404 H   0  0  0  0  0  0  0  0  0  0  0  0
    9.5247   -3.0327   -1.6396 H   0  0  0  0  0  0  0  0  0  0  0  0
    9.7333   -4.0626    0.7191 H   0  0  0  0  0  0  0  0  0  0  0  0
    8.4676   -5.1190    2.5400 H   0  0  0  0  0  0  0  0  0  0  0  0
    4.0536   -3.0059    1.9625 H   0  0  0  0  0  0  0  0  0  0  0  0
    2.7067   -3.1095    0.8848 H   0  0  0  0  0  0  0  0  0  0  0  0
    4.0207   -6.3530   -1.1864 H   0  0  0  0  0  0  0  0  0  0  0  0
    1.3941   -7.4483    2.9125 H   0  0  0  0  0  0  0  0  0  0  0  0
    2.5892   -8.1083    1.8160 H   0  0  0  0  0  0  0  0  0  0  0  0
    2.8567   -5.4733    3.3967 H   0  0  0  0  0  0  0  0  0  0  0  0
    3.6300   -6.9949    3.8121 H   0  0  0  0  0  0  0  0  0  0  0  0
    4.8755   -7.0686    1.8146 H   0  0  0  0  0  0  0  0  0  0  0  0
    6.0481   -5.8343    3.3522 H   0  0  0  0  0  0  0  0  0  0  0  0
    5.0898   -4.4013    3.1876 H   0  0  0  0  0  0  0  0  0  0  0  0
  1  2  2  0
  2  3  1  0
  2 10  1  0
  3  4  2  3
  3 35  1  0
  4  5  1  0
  4 36  1  0
  5  9  2  0
  5  6  1  0
  6  7  2  0
  6 37  1  0
  7  8  1  0
  7 38  1  0
  8  9  1  0
  9 39  1  0
 10 11  1  0
 10 40  1  0
 11 25  1  0
 11 12  1  0
 11 41  1  6
 12 13  1  0
 12 42  1  0
 12 43  1  0
 13 14  2  0
 13 15  1  0
 15 24  1  0
 15 16  1  0
 15 44  1  6
 16 17  1  0
 17 23  2  0
 17 18  1  0
 18 19  1  0
 18 20  2  0
 19 45  1  0
 20 21  1  0
 20 46  1  0
 21 22  2  0
 21 47  1  0
 22 34  1  0
 22 23  1  0
 23 24  1  0
 24 25  1  1
 24 26  1  0
 25 48  1  0
 25 49  1  0
 26 33  1  0
 26 27  1  6
 26 28  1  0
 27 50  1  0
 28 29  1  0
 29 30  2  0
 29 31  1  0
 31 32  1  0
 31 51  1  0
 31 52  1  0
 32 33  1  0
 32 53  1  0
 32 54  1  0
 33 34  1  0
 33 55  1  6
 34 56  1  0
 34 57  1  0
M  END
>  <i_m_ct_stereo_status>  (283) 
1

>  <s_m_source_file>  (283) 
/var/tmp/pbs.5076255.sched01/tmpagfdxo7m/88tnrj_5ym.sdf

>  <i_m_source_file_index>  (283) 
28

>  <i_lp_mmshare_version>  (283) 
48012

>  <i_f3d_flags>  (283) 
0

>  <s_epik_input>  (283) 
W2NIXTFvW2NIXVtjSF1jMVxbQ0hdPVtDSF1cQyg9TylbTkhdW0NAQEhdKFtDSDJdMilbQ0gyXUMoPU8pW0NASF0oW0NAXTIzNClPYzVjM2MoW2NIXVtjSF1jNVtPSF0pW0NIMl1bQ0BASF02W0NAQF00KFtPSF0pT0MoPU8pW0NIMl1bQ0gyXTY=

>  <s_epik_cmdline>  (283) 
J2VwaWtfcHl0aG9uJywgJy1waHQnLCAnMi4wJywgJy1waCcsICc3LjAnLCAnLXRuJywgJzgnLCAnLW1hJywgJzIwMCcsICctaW1hZScsICc8aW5maWxlLm1hZT4nLCAnLW9tYWUnLCAnPG91dGZpbGUubWFlPic=

>  <r_lp_tautomer_probability>  (283) 
1

>  <r_epik_Ionization_Penalty>  (283) 
0.006039

>  <r_epik_Ionization_Penalty_Charging>  (283) 
0

>  <r_epik_Ionization_Penalty_Neutral>  (283) 
0.006039

>  <r_epik_State_Penalty>  (283) 
0.00443428

>  <r_epik_Charging_Adjusted_Penalty>  (283) 
0.00443428

>  <i_epik_Tot_Q>  (283) 
0

>  <i_epik_Tot_abs_Q>  (283) 
0

>  <s_epik_Chemistry_Notes>  (283) 
This compound has an ester and may undergo hydrolysis at high or low pH.

>  <s_lp_Force_Field>  (283) 
OPLS3e

>  <r_lp_Energy>  (283) 
52.6984

>  <b_lp_Chiralities_Consistent>  (283) 
1

>  <s_lp_Variant>  (283) 
82:0-1

>  <s_i_glide_gridfile>  (283) 
pfpi4k_grid

>  <i_i_glide_lignum>  (283) 
28

>  <i_i_glide_rotatable_bonds>  (283) 
6

>  <r_i_docking_score>  (283) 
-4.02303

>  <r_i_glide_ligand_efficiency>  (283) 
-0.118324

>  <r_i_glide_ligand_efficiency_sa>  (283) 
-0.383325

>  <r_i_glide_ligand_efficiency_ln>  (283) 
-0.8888

>  <r_i_glide_gscore>  (283) 
-4.02303

>  <r_i_glide_lipo>  (283) 
-0.574681

>  <r_i_glide_hbond>  (283) 
-0.152

>  <r_i_glide_metal>  (283) 
-0

>  <r_i_glide_rewards>  (283) 
-0.332613

>  <r_i_glide_evdw>  (283) 
-28.0793

>  <r_i_glide_ecoul>  (283) 
-11.6468

>  <r_i_glide_erotb>  (283) 
0.279265

>  <r_i_glide_esite>  (283) 
-0.0920192

>  <r_i_glide_emodel>  (283) 
-47.5991

>  <r_i_glide_energy>  (283) 
-39.726

>  <r_i_glide_einternal>  (283) 
4.42693

>  <r_i_glide_intrahb_reward>  (283) 
-0

>  <i_i_glide_confnum>  (283) 
5

>  <i_i_glide_posenum>  (283) 
14

>  <r_i_glide_eff_state_penalty>  (283) 
0

>  <ligand_id>  (283) 
82

>  <original_smiles>  (283) 
O=C(C=Cc1ccoc1)NC1CC(=O)C2Oc3c(O)ccc4c3C2(C1)C1(O)OC(=O)CCC1C4

>  <smiles>  (283) 
[H]Oc1c([H])c([H])c2c3c1OC1([H])C(=O)C([H])([H])C([H])(N([H])C(=O)C([H])=C([H])c4c([H])oc([H])c4[H])C([H])([H])C31C1(O[H])OC(=O)C([H])([H])C([H])([H])C1([H])C2([H])[H]

$$$$
82:1:0
     RDKit          3D

 57 62  0  0  1  0  0  0  0  0999 V2000
   -0.8563   -0.5393    6.3513 O   0  0  0  0  0  0  0  0  0  0  0  0
   -1.0092   -0.0245    5.2492 C   0  0  0  0  0  0  0  0  0  0  0  0
   -1.7830    1.1814    5.0041 C   0  0  0  0  0  0  0  0  0  0  0  0
   -2.1781    2.0909    5.9336 C   0  0  0  0  0  0  0  0  0  0  0  0
   -1.9243    2.2288    7.3922 C   0  0  0  0  0  0  0  0  0  0  0  0
   -0.9507    1.5739    8.2250 C   0  0  0  0  0  0  0  0  0  0  0  0
   -1.1960    1.9950    9.4910 C   0  0  0  0  0  0  0  0  0  0  0  0
   -2.2009    2.9056    9.5160 O   0  0  0  0  0  0  0  0  0  0  0  0
   -2.6212    3.0647    8.2277 C   0  0  0  0  0  0  0  0  0  0  0  0
   -0.4968   -0.5673    4.1254 N   0  0  0  0  0  0  0  0  0  0  0  0
    0.4839   -1.6636    4.0413 C   0  0  2  0  0  0  0  0  0  0  0  0
    0.0978   -2.9174    4.8909 C   0  0  0  0  0  0  0  0  0  0  0  0
    1.3108   -3.7032    5.3758 C   0  0  0  0  0  0  0  0  0  0  0  0
    1.2939   -4.3243    6.4359 O   0  0  0  0  0  0  0  0  0  0  0  0
    2.5281   -3.6964    4.4513 C   0  0  1  0  0  0  0  0  0  0  0  0
    2.1428   -4.3250    3.2129 O   0  0  0  0  0  0  0  0  0  0  0  0
    2.6858   -3.5942    2.1968 C   0  0  0  0  0  0  0  0  0  0  0  0
    2.7793   -3.9103    0.8211 C   0  0  0  0  0  0  0  0  0  0  0  0
    2.2267   -5.0610    0.3374 O   0  0  0  0  0  0  0  0  0  0  0  0
    3.4657   -3.0280   -0.0537 C   0  0  0  0  0  0  0  0  0  0  0  0
    4.0705   -1.8371    0.4265 C   0  0  0  0  0  0  0  0  0  0  0  0
    3.9590   -1.5068    1.7923 C   0  0  0  0  0  0  0  0  0  0  0  0
    3.2471   -2.4032    2.5975 C   0  0  0  0  0  0  0  0  0  0  0  0
    3.0324   -2.2455    4.0737 C   0  0  1  0  0  0  0  0  0  0  0  0
    1.9212   -1.1577    4.3497 C   0  0  0  0  0  0  0  0  0  0  0  0
    4.4121   -1.8575    4.7409 C   0  0  2  0  0  0  0  0  0  0  0  0
    5.2443   -3.0095    4.7396 O   0  0  0  0  0  0  0  0  0  0  0  0
    4.1234   -1.5008    6.0813 O   0  0  0  0  0  0  0  0  0  0  0  0
    4.9694   -0.7549    6.8432 C   0  0  0  0  0  0  0  0  0  0  0  0
    4.8298   -0.6040    8.0552 O   0  0  0  0  0  0  0  0  0  0  0  0
    6.0951   -0.0310    6.1198 C   0  0  0  0  0  0  0  0  0  0  0  0
    5.5802    0.4445    4.7698 C   0  0  0  0  0  0  0  0  0  0  0  0
    5.2062   -0.7559    3.9080 C   0  0  2  0  0  0  0  0  0  0  0  0
    4.5693   -0.3524    2.5585 C   0  0  0  0  0  0  0  0  0  0  0  0
   -2.0942    1.3775    3.9847 H   0  0  0  0  0  0  0  0  0  0  0  0
   -2.7791    2.8816    5.5253 H   0  0  0  0  0  0  0  0  0  0  0  0
   -0.1667    0.8700    7.9823 H   0  0  0  0  0  0  0  0  0  0  0  0
   -0.7437    1.7434   10.4381 H   0  0  0  0  0  0  0  0  0  0  0  0
   -3.4078    3.7932    8.1121 H   0  0  0  0  0  0  0  0  0  0  0  0
   -0.7754   -0.1646    3.2327 H   0  0  0  0  0  0  0  0  0  0  0  0
    0.4787   -1.9855    2.9998 H   0  0  0  0  0  0  0  0  0  0  0  0
   -0.4635   -2.7119    5.7945 H   0  0  0  0  0  0  0  0  0  0  0  0
   -0.5613   -3.5706    4.3282 H   0  0  0  0  0  0  0  0  0  0  0  0
    3.3028   -4.3109    4.9045 H   0  0  0  0  0  0  0  0  0  0  0  0
    2.4851   -5.2363   -0.5567 H   0  0  0  0  0  0  0  0  0  0  0  0
    3.5365   -3.2636   -1.1005 H   0  0  0  0  0  0  0  0  0  0  0  0
    4.6163   -1.1921   -0.2440 H   0  0  0  0  0  0  0  0  0  0  0  0
    2.1159   -0.2432    3.7944 H   0  0  0  0  0  0  0  0  0  0  0  0
    1.9326   -0.8536    5.3947 H   0  0  0  0  0  0  0  0  0  0  0  0
    6.0910   -2.7663    5.0840 H   0  0  0  0  0  0  0  0  0  0  0  0
    6.4107    0.8116    6.7339 H   0  0  0  0  0  0  0  0  0  0  0  0
    6.9566   -0.6924    6.0226 H   0  0  0  0  0  0  0  0  0  0  0  0
    4.7388    1.1302    4.9018 H   0  0  0  0  0  0  0  0  0  0  0  0
    6.3891    0.9901    4.2881 H   0  0  0  0  0  0  0  0  0  0  0  0
    6.1585   -1.1941    3.6162 H   0  0  0  0  0  0  0  0  0  0  0  0
    5.3457    0.0915    1.9341 H   0  0  0  0  0  0  0  0  0  0  0  0
    3.8283    0.4342    2.6962 H   0  0  0  0  0  0  0  0  0  0  0  0
  1  2  2  0
  2  3  1  0
  2 10  1  0
  3  4  2  3
  3 35  1  0
  4  5  1  0
  4 36  1  0
  5  9  2  0
  5  6  1  0
  6  7  2  0
  6 37  1  0
  7  8  1  0
  7 38  1  0
  8  9  1  0
  9 39  1  0
 10 11  1  0
 10 40  1  0
 11 25  1  0
 11 12  1  0
 11 41  1  6
 12 13  1  0
 12 42  1  0
 12 43  1  0
 13 14  2  0
 13 15  1  0
 15 24  1  0
 15 16  1  0
 15 44  1  1
 16 17  1  0
 17 23  2  0
 17 18  1  0
 18 19  1  0
 18 20  2  0
 19 45  1  0
 20 21  1  0
 20 46  1  0
 21 22  2  0
 21 47  1  0
 22 34  1  0
 22 23  1  0
 23 24  1  0
 24 25  1  6
 24 26  1  0
 25 48  1  0
 25 49  1  0
 26 33  1  0
 26 27  1  1
 26 28  1  0
 27 50  1  0
 28 29  1  0
 29 30  2  0
 29 31  1  0
 31 32  1  0
 31 51  1  0
 31 52  1  0
 32 33  1  0
 32 53  1  0
 32 54  1  0
 33 34  1  0
 33 55  1  6
 34 56  1  0
 34 57  1  0
M  END
>  <i_m_ct_stereo_status>  (284) 
1

>  <s_m_source_file>  (284) 
/var/tmp/pbs.5076255.sched01/tmpagfdxo7m/88tnrj_5ym.sdf

>  <i_m_source_file_index>  (284) 
29

>  <i_lp_mmshare_version>  (284) 
48012

>  <i_f3d_flags>  (284) 
0

>  <s_epik_input>  (284) 
W2NIXTFvW2NIXVtjSF1jMVxbQ0hdPVtDSF1cQyg9TylbTkhdW0NAQEhdKFtDSDJdMilbQ0gyXUMoPU8pW0NASF0oW0NAXTIzNClPYzVjM2MoW2NIXVtjSF1jNVtPSF0pW0NIMl1bQ0BASF02W0NAQF00KFtPSF0pT0MoPU8pW0NIMl1bQ0gyXTY=

>  <s_epik_cmdline>  (284) 
J2VwaWtfcHl0aG9uJywgJy1waHQnLCAnMi4wJywgJy1waCcsICc3LjAnLCAnLXRuJywgJzgnLCAnLW1hJywgJzIwMCcsICctaW1hZScsICc8aW5maWxlLm1hZT4nLCAnLW9tYWUnLCAnPG91dGZpbGUubWFlPic=

>  <r_lp_tautomer_probability>  (284) 
1

>  <r_epik_Ionization_Penalty>  (284) 
0.006039

>  <r_epik_Ionization_Penalty_Charging>  (284) 
0

>  <r_epik_Ionization_Penalty_Neutral>  (284) 
0.006039

>  <r_epik_State_Penalty>  (284) 
0.00443428

>  <r_epik_Charging_Adjusted_Penalty>  (284) 
0.00443428

>  <i_epik_Tot_Q>  (284) 
0

>  <i_epik_Tot_abs_Q>  (284) 
0

>  <s_epik_Chemistry_Notes>  (284) 
This compound has an ester and may undergo hydrolysis at high or low pH.

>  <s_lp_Force_Field>  (284) 
OPLS3e

>  <r_lp_Energy>  (284) 
57.9131

>  <b_lp_Chiralities_Consistent>  (284) 
1

>  <s_lp_Variant>  (284) 
82:0-2

>  <s_i_glide_gridfile>  (284) 
pfpi4k_grid

>  <i_i_glide_lignum>  (284) 
29

>  <i_i_glide_rotatable_bonds>  (284) 
6

>  <r_i_docking_score>  (284) 
-2.81463

>  <r_i_glide_ligand_efficiency>  (284) 
-0.0827833

>  <r_i_glide_ligand_efficiency_sa>  (284) 
-0.268186

>  <r_i_glide_ligand_efficiency_ln>  (284) 
-0.621831

>  <r_i_glide_gscore>  (284) 
-2.81463

>  <r_i_glide_lipo>  (284) 
-0.465055

>  <r_i_glide_hbond>  (284) 
-0.0394019

>  <r_i_glide_metal>  (284) 
-0

>  <r_i_glide_rewards>  (284) 
-0.253147

>  <r_i_glide_evdw>  (284) 
-25.2317

>  <r_i_glide_ecoul>  (284) 
-6.81781

>  <r_i_glide_erotb>  (284) 
0.279265

>  <r_i_glide_esite>  (284) 
-0.0520335

>  <r_i_glide_emodel>  (284) 
-36.8559

>  <r_i_glide_energy>  (284) 
-32.0495

>  <r_i_glide_einternal>  (284) 
1.60619

>  <r_i_glide_intrahb_reward>  (284) 
-0

>  <i_i_glide_confnum>  (284) 
1

>  <i_i_glide_posenum>  (284) 
3

>  <r_i_glide_eff_state_penalty>  (284) 
0

>  <ligand_id>  (284) 
82

>  <original_smiles>  (284) 
O=C(C=Cc1ccoc1)NC1CC(=O)C2Oc3c(O)ccc4c3C2(C1)C1(O)OC(=O)CCC1C4

>  <smiles>  (284) 
[H]Oc1c([H])c([H])c2c3c1OC1([H])C(=O)C([H])([H])C([H])(N([H])C(=O)C([H])=C([H])c4c([H])oc([H])c4[H])C([H])([H])C31C1(O[H])OC(=O)C([H])([H])C([H])([H])C1([H])C2([H])[H]

$$$$
82:1:1
     RDKit          3D

 57 62  0  0  1  0  0  0  0  0999 V2000
    0.5779    0.3299    4.2179 O   0  0  0  0  0  0  0  0  0  0  0  0
    0.2772    0.6444    3.0760 C   0  0  0  0  0  0  0  0  0  0  0  0
   -0.8574    1.4716    2.6899 C   0  0  0  0  0  0  0  0  0  0  0  0
   -1.7472    2.0579    3.5252 C   0  0  0  0  0  0  0  0  0  0  0  0
   -1.9400    2.0291    5.0050 C   0  0  0  0  0  0  0  0  0  0  0  0
   -2.7722    2.9531    5.7037 C   0  0  0  0  0  0  0  0  0  0  0  0
   -2.6866    2.6279    7.0283 C   0  0  0  0  0  0  0  0  0  0  0  0
   -1.8821    1.5495    7.2004 O   0  0  0  0  0  0  0  0  0  0  0  0
   -1.4373    1.1925    5.9651 C   0  0  0  0  0  0  0  0  0  0  0  0
    1.0452    0.2675    2.0437 N   0  0  0  0  0  0  0  0  0  0  0  0
    2.3557   -0.3617    2.2514 C   0  0  2  0  0  0  0  0  0  0  0  0
    3.2202   -0.2530    0.9799 C   0  0  0  0  0  0  0  0  0  0  0  0
    4.2301   -1.3906    0.8520 C   0  0  0  0  0  0  0  0  0  0  0  0
    4.6187   -1.7900   -0.2450 O   0  0  0  0  0  0  0  0  0  0  0  0
    4.7635   -1.9691    2.1641 C   0  0  1  0  0  0  0  0  0  0  0  0
    5.4871   -0.9247    2.8477 O   0  0  0  0  0  0  0  0  0  0  0  0
    5.1399   -0.9860    4.1664 C   0  0  0  0  0  0  0  0  0  0  0  0
    5.7273   -0.3293    5.2709 C   0  0  0  0  0  0  0  0  0  0  0  0
    6.7582    0.5426    5.0648 O   0  0  0  0  0  0  0  0  0  0  0  0
    5.2873   -0.6245    6.5854 C   0  0  0  0  0  0  0  0  0  0  0  0
    4.2607   -1.5815    6.8159 C   0  0  0  0  0  0  0  0  0  0  0  0
    3.6536   -2.2219    5.7194 C   0  0  0  0  0  0  0  0  0  0  0  0
    4.1147   -1.8689    4.4475 C   0  0  0  0  0  0  0  0  0  0  0  0
    3.6258   -2.4503    3.1557 C   0  0  1  0  0  0  0  0  0  0  0  0
    2.2377   -1.8228    2.7695 C   0  0  0  0  0  0  0  0  0  0  0  0
    3.5290   -4.0205    3.3171 C   0  0  2  0  0  0  0  0  0  0  0  0
    4.8469   -4.5510    3.3156 O   0  0  0  0  0  0  0  0  0  0  0  0
    2.8413   -4.4944    2.1709 O   0  0  0  0  0  0  0  0  0  0  0  0
    2.2240   -5.7056    2.1293 C   0  0  0  0  0  0  0  0  0  0  0  0
    1.7644   -6.1895    1.0975 O   0  0  0  0  0  0  0  0  0  0  0  0
    2.0244   -6.4211    3.4568 C   0  0  0  0  0  0  0  0  0  0  0  0
    1.6894   -5.3875    4.5249 C   0  0  0  0  0  0  0  0  0  0  0  0
    2.8953   -4.4654    4.7104 C   0  0  2  0  0  0  0  0  0  0  0  0
    2.6030   -3.3107    5.7004 C   0  0  0  0  0  0  0  0  0  0  0  0
   -1.0035    1.6692    1.6339 H   0  0  0  0  0  0  0  0  0  0  0  0
   -2.4771    2.6688    3.0163 H   0  0  0  0  0  0  0  0  0  0  0  0
   -3.3806    3.7418    5.2902 H   0  0  0  0  0  0  0  0  0  0  0  0
   -3.1274    3.0052    7.9452 H   0  0  0  0  0  0  0  0  0  0  0  0
   -0.8025    0.3280    5.9956 H   0  0  0  0  0  0  0  0  0  0  0  0
    0.7712    0.5021    1.0891 H   0  0  0  0  0  0  0  0  0  0  0  0
    2.8694    0.2306    3.0105 H   0  0  0  0  0  0  0  0  0  0  0  0
    2.6027   -0.2674    0.0878 H   0  0  0  0  0  0  0  0  0  0  0  0
    3.7475    0.7006    0.9605 H   0  0  0  0  0  0  0  0  0  0  0  0
    5.4725   -2.7631    1.9235 H   0  0  0  0  0  0  0  0  0  0  0  0
    7.0105    0.5832    4.1560 H   0  0  0  0  0  0  0  0  0  0  0  0
    5.7602   -0.1370    7.4225 H   0  0  0  0  0  0  0  0  0  0  0  0
    3.9644   -1.8231    7.8242 H   0  0  0  0  0  0  0  0  0  0  0  0
    1.5631   -1.8959    3.6127 H   0  0  0  0  0  0  0  0  0  0  0  0
    1.7441   -2.3847    1.9835 H   0  0  0  0  0  0  0  0  0  0  0  0
    4.7937   -5.4777    3.5017 H   0  0  0  0  0  0  0  0  0  0  0  0
    1.2081   -7.1351    3.3387 H   0  0  0  0  0  0  0  0  0  0  0  0
    2.9194   -6.9944    3.7140 H   0  0  0  0  0  0  0  0  0  0  0  0
    0.7919   -4.8301    4.2469 H   0  0  0  0  0  0  0  0  0  0  0  0
    1.4547   -5.9088    5.4569 H   0  0  0  0  0  0  0  0  0  0  0  0
    3.6441   -5.0798    5.2131 H   0  0  0  0  0  0  0  0  0  0  0  0
    2.5290   -3.7261    6.7053 H   0  0  0  0  0  0  0  0  0  0  0  0
    1.6285   -2.8643    5.5077 H   0  0  0  0  0  0  0  0  0  0  0  0
  1  2  2  0
  2  3  1  0
  2 10  1  0
  3  4  2  3
  3 35  1  0
  4  5  1  0
  4 36  1  0
  5  9  2  0
  5  6  1  0
  6  7  2  0
  6 37  1  0
  7  8  1  0
  7 38  1  0
  8  9  1  0
  9 39  1  0
 10 11  1  0
 10 40  1  0
 11 25  1  0
 11 12  1  0
 11 41  1  1
 12 13  1  0
 12 42  1  0
 12 43  1  0
 13 14  2  0
 13 15  1  0
 15 24  1  0
 15 16  1  0
 15 44  1  6
 16 17  1  0
 17 23  2  0
 17 18  1  0
 18 19  1  0
 18 20  2  0
 19 45  1  0
 20 21  1  0
 20 46  1  0
 21 22  2  0
 21 47  1  0
 22 34  1  0
 22 23  1  0
 23 24  1  0
 24 25  1  6
 24 26  1  0
 25 48  1  0
 25 49  1  0
 26 33  1  0
 26 27  1  6
 26 28  1  0
 27 50  1  0
 28 29  1  0
 29 30  2  0
 29 31  1  0
 31 32  1  0
 31 51  1  0
 31 52  1  0
 32 33  1  0
 32 53  1  0
 32 54  1  0
 33 34  1  0
 33 55  1  1
 34 56  1  0
 34 57  1  0
M  END
>  <i_m_ct_stereo_status>  (285) 
1

>  <s_m_source_file>  (285) 
/var/tmp/pbs.5076255.sched01/tmpagfdxo7m/88tnrj_5ym.sdf

>  <i_m_source_file_index>  (285) 
29

>  <i_lp_mmshare_version>  (285) 
48012

>  <i_f3d_flags>  (285) 
0

>  <s_epik_input>  (285) 
W2NIXTFvW2NIXVtjSF1jMVxbQ0hdPVtDSF1cQyg9TylbTkhdW0NAQEhdKFtDSDJdMilbQ0gyXUMoPU8pW0NASF0oW0NAXTIzNClPYzVjM2MoW2NIXVtjSF1jNVtPSF0pW0NIMl1bQ0BASF02W0NAQF00KFtPSF0pT0MoPU8pW0NIMl1bQ0gyXTY=

>  <s_epik_cmdline>  (285) 
J2VwaWtfcHl0aG9uJywgJy1waHQnLCAnMi4wJywgJy1waCcsICc3LjAnLCAnLXRuJywgJzgnLCAnLW1hJywgJzIwMCcsICctaW1hZScsICc8aW5maWxlLm1hZT4nLCAnLW9tYWUnLCAnPG91dGZpbGUubWFlPic=

>  <r_lp_tautomer_probability>  (285) 
1

>  <r_epik_Ionization_Penalty>  (285) 
0.006039

>  <r_epik_Ionization_Penalty_Charging>  (285) 
0

>  <r_epik_Ionization_Penalty_Neutral>  (285) 
0.006039

>  <r_epik_State_Penalty>  (285) 
0.00443428

>  <r_epik_Charging_Adjusted_Penalty>  (285) 
0.00443428

>  <i_epik_Tot_Q>  (285) 
0

>  <i_epik_Tot_abs_Q>  (285) 
0

>  <s_epik_Chemistry_Notes>  (285) 
This compound has an ester and may undergo hydrolysis at high or low pH.

>  <s_lp_Force_Field>  (285) 
OPLS3e

>  <r_lp_Energy>  (285) 
57.9131

>  <b_lp_Chiralities_Consistent>  (285) 
1

>  <s_lp_Variant>  (285) 
82:0-2

>  <s_i_glide_gridfile>  (285) 
pfpi4k_grid

>  <i_i_glide_lignum>  (285) 
29

>  <i_i_glide_rotatable_bonds>  (285) 
6

>  <r_i_docking_score>  (285) 
-2.54404

>  <r_i_glide_ligand_efficiency>  (285) 
-0.0748246

>  <r_i_glide_ligand_efficiency_sa>  (285) 
-0.242403

>  <r_i_glide_ligand_efficiency_ln>  (285) 
-0.562049

>  <r_i_glide_gscore>  (285) 
-2.54404

>  <r_i_glide_lipo>  (285) 
-0.378411

>  <r_i_glide_hbond>  (285) 
-0.0514355

>  <r_i_glide_metal>  (285) 
-0

>  <r_i_glide_rewards>  (285) 
-0.235588

>  <r_i_glide_evdw>  (285) 
-29.541

>  <r_i_glide_ecoul>  (285) 
-3.68714

>  <r_i_glide_erotb>  (285) 
0.279265

>  <r_i_glide_esite>  (285) 
-0.127747

>  <r_i_glide_emodel>  (285) 
-36.9684

>  <r_i_glide_energy>  (285) 
-33.2281

>  <r_i_glide_einternal>  (285) 
1.61032

>  <r_i_glide_intrahb_reward>  (285) 
-0

>  <i_i_glide_confnum>  (285) 
6

>  <i_i_glide_posenum>  (285) 
38

>  <r_i_glide_eff_state_penalty>  (285) 
0

>  <ligand_id>  (285) 
82

>  <original_smiles>  (285) 
O=C(C=Cc1ccoc1)NC1CC(=O)C2Oc3c(O)ccc4c3C2(C1)C1(O)OC(=O)CCC1C4

>  <smiles>  (285) 
[H]Oc1c([H])c([H])c2c3c1OC1([H])C(=O)C([H])([H])C([H])(N([H])C(=O)C([H])=C([H])c4c([H])oc([H])c4[H])C([H])([H])C31C1(O[H])OC(=O)C([H])([H])C([H])([H])C1([H])C2([H])[H]

$$$$
82:1:2
     RDKit          3D

 57 62  0  0  1  0  0  0  0  0999 V2000
    0.6207    0.3932    4.2256 O   0  0  0  0  0  0  0  0  0  0  0  0
    0.3133    0.6980    3.0864 C   0  0  0  0  0  0  0  0  0  0  0  0
   -0.8122    1.5314    2.7041 C   0  0  0  0  0  0  0  0  0  0  0  0
   -1.7069    2.1064    3.5418 C   0  0  0  0  0  0  0  0  0  0  0  0
   -1.9119    2.0576    5.0158 C   0  0  0  0  0  0  0  0  0  0  0  0
   -2.7618    2.9578    5.7217 C   0  0  0  0  0  0  0  0  0  0  0  0
   -2.6864    2.6199    7.0423 C   0  0  0  0  0  0  0  0  0  0  0  0
   -1.8634    1.5507    7.2083 O   0  0  0  0  0  0  0  0  0  0  0  0
   -1.4008    1.2159    5.9724 C   0  0  0  0  0  0  0  0  0  0  0  0
    1.0703    0.3048    2.0514 N   0  0  0  0  0  0  0  0  0  0  0  0
    2.3775   -0.3387    2.2486 C   0  0  2  0  0  0  0  0  0  0  0  0
    3.2342   -0.2507    0.9682 C   0  0  0  0  0  0  0  0  0  0  0  0
    4.2292   -1.4004    0.8399 C   0  0  0  0  0  0  0  0  0  0  0  0
    4.6007   -1.8139   -0.2590 O   0  0  0  0  0  0  0  0  0  0  0  0
    4.7661   -1.9730    2.1520 C   0  0  1  0  0  0  0  0  0  0  0  0
    5.5084   -0.9319    2.8220 O   0  0  0  0  0  0  0  0  0  0  0  0
    5.1726   -0.9753    4.1424 C   0  0  0  0  0  0  0  0  0  0  0  0
    5.7767   -0.3130    5.2359 C   0  0  0  0  0  0  0  0  0  0  0  0
    6.8165    0.5422    5.0100 O   0  0  0  0  0  0  0  0  0  0  0  0
    5.3469   -0.5928    6.5556 C   0  0  0  0  0  0  0  0  0  0  0  0
    4.3151   -1.5359    6.8034 C   0  0  0  0  0  0  0  0  0  0  0  0
    3.6905   -2.1815    5.7212 C   0  0  0  0  0  0  0  0  0  0  0  0
    4.1420   -1.8431    4.4396 C   0  0  0  0  0  0  0  0  0  0  0  0
    3.6320   -2.4293    3.1595 C   0  0  1  0  0  0  0  0  0  0  0  0
    2.2467   -1.7919    2.7798 C   0  0  0  0  0  0  0  0  0  0  0  0
    3.5202   -3.9931    3.3412 C   0  0  2  0  0  0  0  0  0  0  0  0
    4.8322   -4.5333    3.3485 O   0  0  0  0  0  0  0  0  0  0  0  0
    2.8301   -4.4794    2.2002 O   0  0  0  0  0  0  0  0  0  0  0  0
    2.1967   -5.6849    2.1794 C   0  0  0  0  0  0  0  0  0  0  0  0
    1.7128   -6.1653    1.1569 O   0  0  0  0  0  0  0  0  0  0  0  0
    1.9928   -6.3828    3.5167 C   0  0  0  0  0  0  0  0  0  0  0  0
    1.6761   -5.3333    4.5741 C   0  0  0  0  0  0  0  0  0  0  0  0
    2.8929   -4.4236    4.7417 C   0  0  2  0  0  0  0  0  0  0  0  0
    2.6252   -3.2581    5.7235 C   0  0  0  0  0  0  0  0  0  0  0  0
   -0.9540    1.7458    1.6488 H   0  0  0  0  0  0  0  0  0  0  0  0
   -2.4292    2.7278    3.0351 H   0  0  0  0  0  0  0  0  0  0  0  0
   -3.3745    3.7430    5.3116 H   0  0  0  0  0  0  0  0  0  0  0  0
   -3.1400    2.9817    7.9591 H   0  0  0  0  0  0  0  0  0  0  0  0
   -0.7507    0.3667    5.9930 H   0  0  0  0  0  0  0  0  0  0  0  0
    0.7962    0.5379    1.0951 H   0  0  0  0  0  0  0  0  0  0  0  0
    2.9035    0.2549    2.9951 H   0  0  0  0  0  0  0  0  0  0  0  0
    2.6137   -0.2687    0.0812 H   0  0  0  0  0  0  0  0  0  0  0  0
    3.7706    0.6984    0.9348 H   0  0  0  0  0  0  0  0  0  0  0  0
    5.4607   -2.7763    1.9101 H   0  0  0  0  0  0  0  0  0  0  0  0
    7.0641    0.5735    4.0991 H   0  0  0  0  0  0  0  0  0  0  0  0
    5.8344   -0.1029    7.3841 H   0  0  0  0  0  0  0  0  0  0  0  0
    4.0246   -1.7646    7.8175 H   0  0  0  0  0  0  0  0  0  0  0  0
    1.5796   -1.8522    3.6316 H   0  0  0  0  0  0  0  0  0  0  0  0
    1.7413   -2.3583    2.0043 H   0  0  0  0  0  0  0  0  0  0  0  0
    5.3048   -4.1373    4.0682 H   0  0  0  0  0  0  0  0  0  0  0  0
    1.1677   -7.0869    3.4101 H   0  0  0  0  0  0  0  0  0  0  0  0
    2.8848   -6.9595    3.7705 H   0  0  0  0  0  0  0  0  0  0  0  0
    0.7818   -4.7687    4.2987 H   0  0  0  0  0  0  0  0  0  0  0  0
    1.4453   -5.8429    5.5130 H   0  0  0  0  0  0  0  0  0  0  0  0
    3.6371   -5.0484    5.2381 H   0  0  0  0  0  0  0  0  0  0  0  0
    2.5556   -3.6638    6.7330 H   0  0  0  0  0  0  0  0  0  0  0  0
    1.6551   -2.8015    5.5347 H   0  0  0  0  0  0  0  0  0  0  0  0
  1  2  2  0
  2  3  1  0
  2 10  1  0
  3  4  2  3
  3 35  1  0
  4  5  1  0
  4 36  1  0
  5  9  2  0
  5  6  1  0
  6  7  2  0
  6 37  1  0
  7  8  1  0
  7 38  1  0
  8  9  1  0
  9 39  1  0
 10 11  1  0
 10 40  1  0
 11 25  1  0
 11 12  1  0
 11 41  1  1
 12 13  1  0
 12 42  1  0
 12 43  1  0
 13 14  2  0
 13 15  1  0
 15 24  1  0
 15 16  1  0
 15 44  1  6
 16 17  1  0
 17 23  2  0
 17 18  1  0
 18 19  1  0
 18 20  2  0
 19 45  1  0
 20 21  1  0
 20 46  1  0
 21 22  2  0
 21 47  1  0
 22 34  1  0
 22 23  1  0
 23 24  1  0
 24 25  1  6
 24 26  1  0
 25 48  1  0
 25 49  1  0
 26 33  1  0
 26 27  1  1
 26 28  1  0
 27 50  1  0
 28 29  1  0
 29 30  2  0
 29 31  1  0
 31 32  1  0
 31 51  1  0
 31 52  1  0
 32 33  1  0
 32 53  1  0
 32 54  1  0
 33 34  1  0
 33 55  1  1
 34 56  1  0
 34 57  1  0
M  END
>  <i_m_ct_stereo_status>  (286) 
1

>  <s_m_source_file>  (286) 
/var/tmp/pbs.5076255.sched01/tmpagfdxo7m/88tnrj_5ym.sdf

>  <i_m_source_file_index>  (286) 
29

>  <i_lp_mmshare_version>  (286) 
48012

>  <i_f3d_flags>  (286) 
0

>  <s_epik_input>  (286) 
W2NIXTFvW2NIXVtjSF1jMVxbQ0hdPVtDSF1cQyg9TylbTkhdW0NAQEhdKFtDSDJdMilbQ0gyXUMoPU8pW0NASF0oW0NAXTIzNClPYzVjM2MoW2NIXVtjSF1jNVtPSF0pW0NIMl1bQ0BASF02W0NAQF00KFtPSF0pT0MoPU8pW0NIMl1bQ0gyXTY=

>  <s_epik_cmdline>  (286) 
J2VwaWtfcHl0aG9uJywgJy1waHQnLCAnMi4wJywgJy1waCcsICc3LjAnLCAnLXRuJywgJzgnLCAnLW1hJywgJzIwMCcsICctaW1hZScsICc8aW5maWxlLm1hZT4nLCAnLW9tYWUnLCAnPG91dGZpbGUubWFlPic=

>  <r_lp_tautomer_probability>  (286) 
1

>  <r_epik_Ionization_Penalty>  (286) 
0.006039

>  <r_epik_Ionization_Penalty_Charging>  (286) 
0

>  <r_epik_Ionization_Penalty_Neutral>  (286) 
0.006039

>  <r_epik_State_Penalty>  (286) 
0.00443428

>  <r_epik_Charging_Adjusted_Penalty>  (286) 
0.00443428

>  <i_epik_Tot_Q>  (286) 
0

>  <i_epik_Tot_abs_Q>  (286) 
0

>  <s_epik_Chemistry_Notes>  (286) 
This compound has an ester and may undergo hydrolysis at high or low pH.

>  <s_lp_Force_Field>  (286) 
OPLS3e

>  <r_lp_Energy>  (286) 
57.9131

>  <b_lp_Chiralities_Consistent>  (286) 
1

>  <s_lp_Variant>  (286) 
82:0-2

>  <s_i_glide_gridfile>  (286) 
pfpi4k_grid

>  <i_i_glide_lignum>  (286) 
29

>  <i_i_glide_rotatable_bonds>  (286) 
6

>  <r_i_docking_score>  (286) 
-2.53801

>  <r_i_glide_ligand_efficiency>  (286) 
-0.0746472

>  <r_i_glide_ligand_efficiency_sa>  (286) 
-0.241828

>  <r_i_glide_ligand_efficiency_ln>  (286) 
-0.560717

>  <r_i_glide_gscore>  (286) 
-2.53801

>  <r_i_glide_lipo>  (286) 
-0.383914

>  <r_i_glide_hbond>  (286) 
-0.0601741

>  <r_i_glide_metal>  (286) 
-0

>  <r_i_glide_rewards>  (286) 
-0.235576

>  <r_i_glide_evdw>  (286) 
-29.4525

>  <r_i_glide_ecoul>  (286) 
-3.59659

>  <r_i_glide_erotb>  (286) 
0.279265

>  <r_i_glide_esite>  (286) 
-0.125492

>  <r_i_glide_emodel>  (286) 
-35.4974

>  <r_i_glide_energy>  (286) 
-33.0491

>  <r_i_glide_einternal>  (286) 
3.14718

>  <r_i_glide_intrahb_reward>  (286) 
-0

>  <i_i_glide_confnum>  (286) 
6

>  <i_i_glide_posenum>  (286) 
1

>  <r_i_glide_eff_state_penalty>  (286) 
0

>  <ligand_id>  (286) 
82

>  <original_smiles>  (286) 
O=C(C=Cc1ccoc1)NC1CC(=O)C2Oc3c(O)ccc4c3C2(C1)C1(O)OC(=O)CCC1C4

>  <smiles>  (286) 
[H]Oc1c([H])c([H])c2c3c1OC1([H])C(=O)C([H])([H])C([H])(N([H])C(=O)C([H])=C([H])c4c([H])oc([H])c4[H])C([H])([H])C31C1(O[H])OC(=O)C([H])([H])C([H])([H])C1([H])C2([H])[H]

$$$$
83:0:0
     RDKit          3D

 70 76  0  0  1  0  0  0  0  0999 V2000
    3.6252   -0.1799   -3.0800 C   0  0  0  0  0  0  0  0  0  0  0  0
    3.1091   -0.8041   -1.9045 O   0  0  0  0  0  0  0  0  0  0  0  0
    3.9982   -1.1484   -0.8287 C   0  0  2  0  0  0  0  0  0  0  0  0
    5.3775   -2.0386   -1.4982 C   0  0  1  0  0  0  0  0  0  0  0  0
    6.7237   -2.8355   -0.6656 C   0  0  1  0  0  0  0  0  0  0  0  0
    6.9317   -2.1139    0.4792 O   0  0  0  0  0  0  0  0  0  0  0  0
    5.6015   -2.1965    0.9054 C   0  0  2  0  0  0  0  0  0  0  0  0
    5.5438   -2.4201    2.4296 C   0  0  1  0  0  0  0  0  0  0  0  0
    5.6805   -1.1993    3.1375 O   0  0  0  0  0  0  0  0  0  0  0  0
    4.1795   -2.9617    2.7393 C   0  0  2  0  0  0  0  0  0  0  0  0
    4.0636   -4.1260    3.7389 C   0  0  1  0  0  0  0  0  0  0  0  0
    4.0016   -3.6307    5.1896 C   0  0  0  0  0  0  0  0  0  0  0  0
    2.8661   -2.8287    5.4557 O   0  0  0  0  0  0  0  0  0  0  0  0
    2.9474   -4.9791    3.1689 C   0  0  2  0  0  0  0  0  0  0  0  0
    4.2754   -5.6384    3.5458 C   0  0  1  0  0  0  0  0  0  0  0  0
    5.3592   -6.4372    2.7177 C   0  0  0  0  0  0  0  0  0  0  0  0
    5.8076   -7.5719    3.6906 C   0  0  0  0  0  0  0  0  0  0  0  0
    4.8106   -7.2319    1.5045 C   0  0  0  0  0  0  0  0  0  0  0  0
    6.6975   -5.6489    2.4680 C   0  0  0  0  0  0  0  0  0  0  0  0
    7.1956   -4.9961    1.1243 C   0  0  0  0  0  0  0  0  0  0  0  0
    6.2269   -4.3466    0.0955 C   0  0  1  0  0  0  0  0  0  0  0  0
    4.6411   -4.3967    0.5884 C   0  0  2  0  0  0  0  0  0  0  0  0
    4.5911   -3.4001   -0.2439 C   0  0  2  0  0  0  0  0  0  0  0  0
    4.6832   -3.2820   -1.8409 C   0  0  1  0  0  0  0  0  0  0  0  0
    3.4579   -3.2272   -2.8319 C   0  0  0  0  0  0  0  0  0  0  0  0
    5.5042   -4.0726   -2.6501 O   0  0  0  0  0  0  0  0  0  0  0  0
    3.5479   -3.3337    1.4026 C   0  0  2  0  0  0  0  0  0  0  0  0
    3.0370   -1.8314    0.5272 C   0  0  1  0  0  0  0  0  0  0  0  0
    2.6595   -0.7970    1.4123 O   0  0  0  0  0  0  0  0  0  0  0  0
    2.4304   -4.2721    1.9121 C   0  0  1  0  0  0  0  0  0  0  0  0
    1.9434   -5.1637    0.9037 O   0  0  0  0  0  0  0  0  0  0  0  0
    1.1381   -6.2511    1.3627 C   0  0  0  0  0  0  0  0  0  0  0  0
    2.7583    0.2196   -3.6210 H   0  0  0  0  0  0  0  0  0  0  0  0
    4.1241   -0.8792   -3.7476 H   0  0  0  0  0  0  0  0  0  0  0  0
    4.2804    0.6682   -2.8321 H   0  0  0  0  0  0  0  0  0  0  0  0
    4.3673   -0.1632   -0.5259 H   0  0  0  0  0  0  0  0  0  0  0  0
    5.7821   -1.5217   -2.3631 H   0  0  0  0  0  0  0  0  0  0  0  0
    7.6312   -2.9304   -1.2806 H   0  0  0  0  0  0  0  0  0  0  0  0
    5.4221   -1.1150    0.9081 H   0  0  0  0  0  0  0  0  0  0  0  0
    6.2860   -3.1245    2.7278 H   0  0  0  0  0  0  0  0  0  0  0  0
    5.5844   -1.3858    4.0590 H   0  0  0  0  0  0  0  0  0  0  0  0
    3.5714   -2.1631    3.1549 H   0  0  0  0  0  0  0  0  0  0  0  0
    3.9476   -4.4757    5.8676 H   0  0  0  0  0  0  0  0  0  0  0  0
    4.9077   -3.0856    5.4310 H   0  0  0  0  0  0  0  0  0  0  0  0
    2.9296   -2.0198    4.9657 H   0  0  0  0  0  0  0  0  0  0  0  0
    2.1378   -5.2319    3.8417 H   0  0  0  0  0  0  0  0  0  0  0  0
    4.1177   -6.1733    4.4837 H   0  0  0  0  0  0  0  0  0  0  0  0
    6.5426   -8.2270    3.2301 H   0  0  0  0  0  0  0  0  0  0  0  0
    4.9671   -8.2003    3.9854 H   0  0  0  0  0  0  0  0  0  0  0  0
    6.2513   -7.1692    4.6017 H   0  0  0  0  0  0  0  0  0  0  0  0
    5.3928   -7.0625    0.6033 H   0  0  0  0  0  0  0  0  0  0  0  0
    3.7778   -6.9748    1.2956 H   0  0  0  0  0  0  0  0  0  0  0  0
    4.8059   -8.3112    1.6678 H   0  0  0  0  0  0  0  0  0  0  0  0
    6.7831   -4.9789    3.3170 H   0  0  0  0  0  0  0  0  0  0  0  0
    7.5279   -6.3220    2.6868 H   0  0  0  0  0  0  0  0  0  0  0  0
    7.9537   -4.2582    1.3901 H   0  0  0  0  0  0  0  0  0  0  0  0
    7.7687   -5.7420    0.5839 H   0  0  0  0  0  0  0  0  0  0  0  0
    6.1956   -5.1128   -0.6720 H   0  0  0  0  0  0  0  0  0  0  0  0
    4.1611   -5.2412    0.1073 H   0  0  0  0  0  0  0  0  0  0  0  0
    3.5477   -3.6093   -0.6071 H   0  0  0  0  0  0  0  0  0  0  0  0
    2.5212   -2.8668   -2.4306 H   0  0  0  0  0  0  0  0  0  0  0  0
    3.1361   -4.2067   -3.1666 H   0  0  0  0  0  0  0  0  0  0  0  0
    3.7239   -2.7576   -3.7644 H   0  0  0  0  0  0  0  0  0  0  0  0
    5.1573   -4.9554   -2.6175 H   0  0  0  0  0  0  0  0  0  0  0  0
    2.1437   -2.2525    0.0717 H   0  0  0  0  0  0  0  0  0  0  0  0
    2.0102   -0.2818    0.9524 H   0  0  0  0  0  0  0  0  0  0  0  0
    1.6073   -3.6416    2.2366 H   0  0  0  0  0  0  0  0  0  0  0  0
    0.7601   -6.8042    0.5035 H   0  0  0  0  0  0  0  0  0  0  0  0
    0.2916   -5.9121    1.9607 H   0  0  0  0  0  0  0  0  0  0  0  0
    1.7078   -6.9553    1.9691 H   0  0  0  0  0  0  0  0  0  0  0  0
  1  2  1  0
  1 33  1  0
  1 34  1  0
  1 35  1  0
  2  3  1  0
  3 28  1  0
  3  4  1  0
  3 36  1  1
  4 24  1  0
  4  5  1  0
  4 37  1  6
  5 21  1  0
  5  6  1  0
  5 38  1  6
  6  7  1  0
  7 23  1  0
  7  8  1  0
  7 39  1  1
  8  9  1  0
  8 10  1  0
  8 40  1  1
  9 41  1  0
 10 27  1  0
 10 11  1  0
 10 42  1  1
 11 15  1  0
 11 12  1  1
 11 14  1  0
 12 13  1  0
 12 43  1  0
 12 44  1  0
 13 45  1  0
 14 30  1  0
 14 15  1  0
 14 46  1  1
 15 16  1  0
 15 47  1  1
 16 17  1  0
 16 18  1  0
 16 19  1  0
 17 48  1  0
 17 49  1  0
 17 50  1  0
 18 51  1  0
 18 52  1  0
 18 53  1  0
 19 20  1  0
 19 54  1  0
 19 55  1  0
 20 21  1  0
 20 56  1  0
 20 57  1  0
 21 22  1  0
 21 58  1  6
 22 23  1  0
 22 27  1  0
 22 59  1  6
 23 24  1  0
 23 60  1  1
 24 25  1  0
 24 26  1  6
 25 61  1  0
 25 62  1  0
 25 63  1  0
 26 64  1  0
 27 28  1  0
 27 30  1  1
 28 29  1  0
 28 65  1  6
 29 66  1  0
 30 31  1  0
 30 67  1  1
 31 32  1  0
 32 68  1  0
 32 69  1  0
 32 70  1  0
M  END
>  <i_m_ct_stereo_status>  (287) 
1

>  <s_m_source_file>  (287) 
/var/tmp/pbs.5076255.sched01/tmpagfdxo7m/88tnrj_5ym.sdf

>  <i_m_source_file_index>  (287) 
30

>  <i_lp_mmshare_version>  (287) 
48012

>  <i_f3d_flags>  (287) 
0

>  <s_epik_input>  (287) 
W09IXVtDQEBIXTFbQ0BASF0oTzIpW0NASF0oW0NAQEhdMzQpW0NAXShbQ0gzXSkoW09IXSlbQ0BASF0oW0NAQEhdKE9bQ0gzXSlbQ0BASF01W09IXSlbQ0BASF0yW0NASF0zW0NIMl1bQ0gyXUMoW0NIM10pKFtDSDNdKVtDQEBIXTZbQ0BASF0oW0NAQF02KFtDQEBIXTFbQ0BdNDU3KVtDSDJdW09IXSlbQ0BASF03T1tDSDNd

>  <s_epik_cmdline>  (287) 
J2VwaWtfcHl0aG9uJywgJy1waHQnLCAnMi4wJywgJy1waCcsICc3LjAnLCAnLXRuJywgJzgnLCAnLW1hJywgJzIwMCcsICctaW1hZScsICc8aW5maWxlLm1hZT4nLCAnLW9tYWUnLCAnPG91dGZpbGUubWFlPic=

>  <r_lp_tautomer_probability>  (287) 
1

>  <r_epik_Ionization_Penalty>  (287) 
8.68394e-07

>  <r_epik_Ionization_Penalty_Charging>  (287) 
0

>  <r_epik_Ionization_Penalty_Neutral>  (287) 
8.68394e-07

>  <r_epik_State_Penalty>  (287) 
-0

>  <r_epik_Charging_Adjusted_Penalty>  (287) 
0

>  <i_epik_Tot_Q>  (287) 
0

>  <i_epik_Tot_abs_Q>  (287) 
0

>  <s_lp_Force_Field>  (287) 
OPLS3e

>  <r_lp_Energy>  (287) 
581.491

>  <b_lp_Chiralities_Consistent>  (287) 
1

>  <s_lp_Variant>  (287) 
83:0-1

>  <s_i_glide_gridfile>  (287) 
pfpi4k_grid

>  <i_i_glide_lignum>  (287) 
30

>  <i_i_glide_rotatable_bonds>  (287) 
7

>  <r_i_docking_score>  (287) 
-1.99121

>  <r_i_glide_ligand_efficiency>  (287) 
-0.0622255

>  <r_i_glide_ligand_efficiency_sa>  (287) 
-0.197554

>  <r_i_glide_ligand_efficiency_ln>  (287) 
-0.445887

>  <r_i_glide_gscore>  (287) 
-1.99121

>  <r_i_glide_lipo>  (287) 
-0.607525

>  <r_i_glide_hbond>  (287) 
-0.070076

>  <r_i_glide_metal>  (287) 
-0

>  <r_i_glide_rewards>  (287) 
-0.337057

>  <r_i_glide_evdw>  (287) 
-11.1439

>  <r_i_glide_ecoul>  (287) 
-3.45417

>  <r_i_glide_erotb>  (287) 
0.0987643

>  <r_i_glide_esite>  (287) 
0

>  <r_i_glide_emodel>  (287) 
-10.1667

>  <r_i_glide_energy>  (287) 
-14.5981

>  <r_i_glide_einternal>  (287) 
4.86418

>  <r_i_glide_intrahb_reward>  (287) 
-0

>  <i_i_glide_confnum>  (287) 
4

>  <i_i_glide_posenum>  (287) 
13

>  <r_i_glide_eff_state_penalty>  (287) 
0

>  <ligand_id>  (287) 
83

>  <original_smiles>  (287) 
COC1C2C3OC4C(O)C5C6(CO)C7C6C(C)(C)CCC3C(C4C2(C)O)C5(C1O)C7OC

>  <smiles>  (287) 
[H]OC([H])([H])C12C3([H])C([H])(OC([H])([H])[H])C45C([H])(O[H])C([H])(OC([H])([H])[H])C6([H])C7([H])OC([H])(C([H])(O[H])C41[H])C([H])(C5([H])C7([H])C([H])([H])C([H])([H])C(C([H])([H])[H])(C([H])([H])[H])C32[H])C6(O[H])C([H])([H])[H]

$$$$
84:0:0
     RDKit          3D

 58 61  0  0  1  0  0  0  0  0999 V2000
    1.3019  -10.1203    3.0314 C   0  0  0  0  0  0  0  0  0  0  0  0
    2.5672   -9.2742    3.2400 C   0  0  2  0  0  0  0  0  0  0  0  0
    2.5745   -8.5170    4.5829 C   0  0  0  0  0  0  0  0  0  0  0  0
    2.8512   -7.0344    4.2518 C   0  0  1  0  0  0  0  0  0  0  0  0
    4.2161   -6.7726    4.4892 O   0  0  0  0  0  0  0  0  0  0  0  0
    2.3829   -6.8491    2.7741 C   0  0  2  0  0  0  0  0  0  0  0  0
    0.8266   -6.7381    2.8731 C   0  0  0  0  0  0  0  0  0  0  0  0
    2.7827   -8.2121    2.1338 C   0  0  1  0  0  0  0  0  0  0  0  0
    4.2596   -8.2673    1.6519 C   0  0  1  0  0  0  0  0  0  0  0  0
    4.4727   -9.4064    0.8455 O   0  0  0  0  0  0  0  0  0  0  0  0
    4.6758   -7.0465    0.8247 C   0  0  0  0  0  0  0  0  0  0  0  0
    4.4793   -5.7279    1.5967 C   0  0  1  0  0  0  0  0  0  0  0  0
    5.0842   -4.5242    0.7990 C   0  0  2  0  0  0  0  0  0  0  0  0
    5.4103   -3.2905    1.6866 C   0  0  0  0  0  0  0  0  0  0  0  0
    6.0876   -2.1680    0.9003 C   0  0  0  0  0  0  0  0  0  0  0  0
    5.2353   -1.8061   -0.3128 C   0  0  0  0  0  0  0  0  0  0  0  0
    4.9034   -0.6554   -0.5241 O   0  0  0  0  0  0  0  0  0  0  0  0
    4.8376   -2.9461   -1.2664 C   0  0  0  0  0  0  0  0  0  0  0  0
    3.8452   -2.4198   -2.3376 C   0  0  0  0  0  0  0  0  0  0  0  0
    6.1089   -3.3917   -2.0079 C   0  0  0  0  0  0  0  0  0  0  0  0
    4.2281   -4.1322   -0.4449 C   0  0  2  0  0  0  0  0  0  0  0  0
    2.7483   -3.9398   -0.0296 C   0  0  0  0  0  0  0  0  0  0  0  0
    2.2352   -5.1987    0.6777 C   0  0  0  0  0  0  0  0  0  0  0  0
    1.3291   -5.8550    0.1701 O   0  0  0  0  0  0  0  0  0  0  0  0
    2.9653   -5.5830    1.9907 C   0  0  1  0  0  0  0  0  0  0  0  0
    2.8366   -4.5006    2.8892 O   0  0  0  0  0  0  0  0  0  0  0  0
    0.3931   -9.5169    3.0230 H   0  0  0  0  0  0  0  0  0  0  0  0
    1.1941  -10.8697    3.8194 H   0  0  0  0  0  0  0  0  0  0  0  0
    1.3543  -10.6500    2.0850 H   0  0  0  0  0  0  0  0  0  0  0  0
    3.4076   -9.9689    3.2517 H   0  0  0  0  0  0  0  0  0  0  0  0
    1.6047   -8.6166    5.0752 H   0  0  0  0  0  0  0  0  0  0  0  0
    3.3038   -8.9366    5.2833 H   0  0  0  0  0  0  0  0  0  0  0  0
    2.3024   -6.3830    4.9317 H   0  0  0  0  0  0  0  0  0  0  0  0
    4.7309   -7.4100    4.0041 H   0  0  0  0  0  0  0  0  0  0  0  0
    0.3226   -7.1240    1.9882 H   0  0  0  0  0  0  0  0  0  0  0  0
    0.5049   -5.7096    3.0302 H   0  0  0  0  0  0  0  0  0  0  0  0
    0.4096   -7.3033    3.7059 H   0  0  0  0  0  0  0  0  0  0  0  0
    2.1351   -8.4123    1.2765 H   0  0  0  0  0  0  0  0  0  0  0  0
    4.9294   -8.3267    2.5100 H   0  0  0  0  0  0  0  0  0  0  0  0
    4.2183  -10.2003    1.3022 H   0  0  0  0  0  0  0  0  0  0  0  0
    5.7251   -7.1434    0.5448 H   0  0  0  0  0  0  0  0  0  0  0  0
    4.1214   -7.0450   -0.1173 H   0  0  0  0  0  0  0  0  0  0  0  0
    5.1027   -5.7911    2.4839 H   0  0  0  0  0  0  0  0  0  0  0  0
    6.0512   -4.8599    0.4258 H   0  0  0  0  0  0  0  0  0  0  0  0
    4.5043   -2.8662    2.1276 H   0  0  0  0  0  0  0  0  0  0  0  0
    6.0544   -3.5845    2.5185 H   0  0  0  0  0  0  0  0  0  0  0  0
    6.2134   -1.2855    1.5249 H   0  0  0  0  0  0  0  0  0  0  0  0
    7.0767   -2.4649    0.5705 H   0  0  0  0  0  0  0  0  0  0  0  0
    3.4824   -3.2297   -2.9695 H   0  0  0  0  0  0  0  0  0  0  0  0
    4.3123   -1.6781   -2.9872 H   0  0  0  0  0  0  0  0  0  0  0  0
    2.9800   -1.9309   -1.8891 H   0  0  0  0  0  0  0  0  0  0  0  0
    5.8750   -4.2032   -2.6972 H   0  0  0  0  0  0  0  0  0  0  0  0
    6.8822   -3.7331   -1.3203 H   0  0  0  0  0  0  0  0  0  0  0  0
    6.5442   -2.5811   -2.5947 H   0  0  0  0  0  0  0  0  0  0  0  0
    4.2395   -4.9905   -1.1180 H   0  0  0  0  0  0  0  0  0  0  0  0
    2.6284   -3.0769    0.6284 H   0  0  0  0  0  0  0  0  0  0  0  0
    2.1235   -3.7662   -0.9034 H   0  0  0  0  0  0  0  0  0  0  0  0
    3.3298   -4.7219    3.6735 H   0  0  0  0  0  0  0  0  0  0  0  0
  1  2  1  0
  1 27  1  0
  1 28  1  0
  1 29  1  0
  2  8  1  0
  2  3  1  0
  2 30  1  1
  3  4  1  0
  3 31  1  0
  3 32  1  0
  4  5  1  0
  4  6  1  0
  4 33  1  1
  5 34  1  0
  6 25  1  0
  6  7  1  1
  6  8  1  0
  7 35  1  0
  7 36  1  0
  7 37  1  0
  8  9  1  0
  8 38  1  6
  9 10  1  0
  9 11  1  0
  9 39  1  1
 10 40  1  0
 11 12  1  0
 11 41  1  0
 11 42  1  0
 12 25  1  0
 12 13  1  0
 12 43  1  1
 13 21  1  0
 13 14  1  0
 13 44  1  6
 14 15  1  0
 14 45  1  0
 14 46  1  0
 15 16  1  0
 15 47  1  0
 15 48  1  0
 16 17  2  0
 16 18  1  0
 18 19  1  0
 18 20  1  0
 18 21  1  0
 19 49  1  0
 19 50  1  0
 19 51  1  0
 20 52  1  0
 20 53  1  0
 20 54  1  0
 21 22  1  0
 21 55  1  6
 22 23  1  0
 22 56  1  0
 22 57  1  0
 23 24  2  0
 23 25  1  0
 25 26  1  1
 26 58  1  0
M  END
>  <i_m_ct_stereo_status>  (288) 
1

>  <s_m_source_file>  (288) 
/var/tmp/pbs.5076255.sched01/tmpagfdxo7m/88tnrj_5ym.sdf

>  <i_m_source_file_index>  (288) 
31

>  <i_lp_mmshare_version>  (288) 
48012

>  <i_f3d_flags>  (288) 
0

>  <s_epik_input>  (288) 
W09IXVtDQEBIXTFbQ0gyXVtDQEBIXShbQ0gzXSlbQ0BASF0oW0NAQF0xMltDSDNdKVtDQEBIXShbT0hdKVtDSDJdW0NASF0zW0NASF00W0NASF0oQyhbQ0gzXSkoW0NIM10pQyg9TylbQ0gyXVtDSDJdNClbQ0gyXUMoPU8pW0NAQF0yM1tPSF0=

>  <s_epik_cmdline>  (288) 
J2VwaWtfcHl0aG9uJywgJy1waHQnLCAnMi4wJywgJy1waCcsICc3LjAnLCAnLXRuJywgJzgnLCAnLW1hJywgJzIwMCcsICctaW1hZScsICc8aW5maWxlLm1hZT4nLCAnLW9tYWUnLCAnPG91dGZpbGUubWFlPic=

>  <r_lp_tautomer_probability>  (288) 
1

>  <r_epik_Ionization_Penalty>  (288) 
1.06356e-06

>  <r_epik_Ionization_Penalty_Charging>  (288) 
0

>  <r_epik_Ionization_Penalty_Neutral>  (288) 
1.06356e-06

>  <r_epik_State_Penalty>  (288) 
-0

>  <r_epik_Charging_Adjusted_Penalty>  (288) 
0

>  <i_epik_Tot_Q>  (288) 
0

>  <i_epik_Tot_abs_Q>  (288) 
0

>  <s_lp_Force_Field>  (288) 
OPLS3e

>  <r_lp_Energy>  (288) 
41.3191

>  <b_lp_Chiralities_Consistent>  (288) 
1

>  <s_lp_Variant>  (288) 
84:0-1

>  <s_i_glide_gridfile>  (288) 
pfpi4k_grid

>  <i_i_glide_lignum>  (288) 
31

>  <i_i_glide_rotatable_bonds>  (288) 
3

>  <r_i_docking_score>  (288) 
-4.0273

>  <r_i_glide_ligand_efficiency>  (288) 
-0.154896

>  <r_i_glide_ligand_efficiency_sa>  (288) 
-0.458879

>  <r_i_glide_ligand_efficiency_ln>  (288) 
-0.945798

>  <r_i_glide_gscore>  (288) 
-4.0273

>  <r_i_glide_lipo>  (288) 
-0.686294

>  <r_i_glide_hbond>  (288) 
-0.271019

>  <r_i_glide_metal>  (288) 
-0

>  <r_i_glide_rewards>  (288) 
-0.924029

>  <r_i_glide_evdw>  (288) 
-28.4732

>  <r_i_glide_ecoul>  (288) 
-4.368

>  <r_i_glide_erotb>  (288) 
0

>  <r_i_glide_esite>  (288) 
-0.0670943

>  <r_i_glide_emodel>  (288) 
-40.8267

>  <r_i_glide_energy>  (288) 
-32.8412

>  <r_i_glide_einternal>  (288) 
0.352128

>  <r_i_glide_intrahb_reward>  (288) 
-0

>  <i_i_glide_confnum>  (288) 
2

>  <i_i_glide_posenum>  (288) 
8

>  <r_i_glide_eff_state_penalty>  (288) 
0

>  <ligand_id>  (288) 
84

>  <original_smiles>  (288) 
CC1CC(O)C2(C)C1C(O)CC1C3CCC(=O)C(C)(C)C3CC(=O)C12O

>  <smiles>  (288) 
[H]OC1([H])C([H])([H])C2([H])C(O[H])(C(=O)C([H])([H])C3([H])C2([H])C([H])([H])C([H])([H])C(=O)C3(C([H])([H])[H])C([H])([H])[H])C2(C([H])([H])[H])C([H])(O[H])C([H])([H])C([H])(C([H])([H])[H])C12[H]

$$$$
84:0:1
     RDKit          3D

 58 61  0  0  1  0  0  0  0  0999 V2000
    1.8310   -9.8292    4.4982 C   0  0  0  0  0  0  0  0  0  0  0  0
    3.2020   -9.4471    3.9098 C   0  0  2  0  0  0  0  0  0  0  0  0
    4.2593   -9.1329    4.9863 C   0  0  0  0  0  0  0  0  0  0  0  0
    4.8505   -7.7540    4.6331 C   0  0  1  0  0  0  0  0  0  0  0  0
    6.0791   -7.9529    3.9718 O   0  0  0  0  0  0  0  0  0  0  0  0
    3.7520   -7.0318    3.7935 C   0  0  2  0  0  0  0  0  0  0  0  0
    2.7221   -6.5341    4.8573 C   0  0  0  0  0  0  0  0  0  0  0  0
    3.1514   -8.2143    2.9737 C   0  0  1  0  0  0  0  0  0  0  0  0
    3.9399   -8.5400    1.6747 C   0  0  1  0  0  0  0  0  0  0  0  0
    3.2015   -9.4514    0.8801 O   0  0  0  0  0  0  0  0  0  0  0  0
    4.2360   -7.2860    0.8378 C   0  0  0  0  0  0  0  0  0  0  0  0
    5.0490   -6.2329    1.6254 C   0  0  1  0  0  0  0  0  0  0  0  0
    5.5034   -5.0621    0.6836 C   0  0  2  0  0  0  0  0  0  0  0  0
    6.7290   -4.2755    1.2291 C   0  0  0  0  0  0  0  0  0  0  0  0
    7.2248   -3.1975    0.2620 C   0  0  0  0  0  0  0  0  0  0  0  0
    6.0811   -2.2723   -0.1275 C   0  0  0  0  0  0  0  0  0  0  0  0
    6.2165   -1.0536   -0.0641 O   0  0  0  0  0  0  0  0  0  0  0  0
    4.7991   -2.9418   -0.6679 C   0  0  0  0  0  0  0  0  0  0  0  0
    3.6799   -1.8933   -0.8499 C   0  0  0  0  0  0  0  0  0  0  0  0
    5.1140   -3.4926   -2.0756 C   0  0  0  0  0  0  0  0  0  0  0  0
    4.3373   -4.1044    0.2823 C   0  0  2  0  0  0  0  0  0  0  0  0
    3.5809   -3.6432    1.5527 C   0  0  0  0  0  0  0  0  0  0  0  0
    3.1112   -4.8615    2.3575 C   0  0  0  0  0  0  0  0  0  0  0  0
    1.9089   -5.0954    2.4600 O   0  0  0  0  0  0  0  0  0  0  0  0
    4.2304   -5.7994    2.8951 C   0  0  1  0  0  0  0  0  0  0  0  0
    5.0845   -5.0363    3.7254 O   0  0  0  0  0  0  0  0  0  0  0  0
    1.3936   -9.0213    5.0856 H   0  0  0  0  0  0  0  0  0  0  0  0
    1.9117  -10.7026    5.1497 H   0  0  0  0  0  0  0  0  0  0  0  0
    1.1254  -10.0778    3.7042 H   0  0  0  0  0  0  0  0  0  0  0  0
    3.5466  -10.3190    3.3514 H   0  0  0  0  0  0  0  0  0  0  0  0
    3.7935   -9.1005    5.9733 H   0  0  0  0  0  0  0  0  0  0  0  0
    5.0180   -9.9159    5.0464 H   0  0  0  0  0  0  0  0  0  0  0  0
    5.0931   -7.1978    5.5418 H   0  0  0  0  0  0  0  0  0  0  0  0
    5.9354   -8.5412    3.2465 H   0  0  0  0  0  0  0  0  0  0  0  0
    1.7062   -6.4917    4.4682 H   0  0  0  0  0  0  0  0  0  0  0  0
    2.9756   -5.5457    5.2379 H   0  0  0  0  0  0  0  0  0  0  0  0
    2.6656   -7.1751    5.7349 H   0  0  0  0  0  0  0  0  0  0  0  0
    2.1221   -7.9788    2.6973 H   0  0  0  0  0  0  0  0  0  0  0  0
    4.8955   -9.0111    1.9069 H   0  0  0  0  0  0  0  0  0  0  0  0
    3.5721  -10.3349    0.9257 H   0  0  0  0  0  0  0  0  0  0  0  0
    4.7781   -7.5776   -0.0618 H   0  0  0  0  0  0  0  0  0  0  0  0
    3.2943   -6.8548    0.4963 H   0  0  0  0  0  0  0  0  0  0  0  0
    5.9808   -6.7127    1.9180 H   0  0  0  0  0  0  0  0  0  0  0  0
    5.8597   -5.5377   -0.2316 H   0  0  0  0  0  0  0  0  0  0  0  0
    6.4803   -3.7653    2.1581 H   0  0  0  0  0  0  0  0  0  0  0  0
    7.5500   -4.9572    1.4562 H   0  0  0  0  0  0  0  0  0  0  0  0
    8.0202   -2.6091    0.7183 H   0  0  0  0  0  0  0  0  0  0  0  0
    7.6372   -3.6451   -0.6389 H   0  0  0  0  0  0  0  0  0  0  0  0
    2.7450   -2.3649   -1.1589 H   0  0  0  0  0  0  0  0  0  0  0  0
    3.9361   -1.1539   -1.6082 H   0  0  0  0  0  0  0  0  0  0  0  0
    3.4810   -1.3408    0.0706 H   0  0  0  0  0  0  0  0  0  0  0  0
    4.2473   -3.9894   -2.5132 H   0  0  0  0  0  0  0  0  0  0  0  0
    5.9189   -4.2258   -2.0504 H   0  0  0  0  0  0  0  0  0  0  0  0
    5.4263   -2.7010   -2.7579 H   0  0  0  0  0  0  0  0  0  0  0  0
    3.6256   -4.6948   -0.2980 H   0  0  0  0  0  0  0  0  0  0  0  0
    4.2037   -3.0070    2.1810 H   0  0  0  0  0  0  0  0  0  0  0  0
    2.6963   -3.0667    1.2860 H   0  0  0  0  0  0  0  0  0  0  0  0
    5.7781   -5.6074    4.0227 H   0  0  0  0  0  0  0  0  0  0  0  0
  1  2  1  0
  1 27  1  0
  1 28  1  0
  1 29  1  0
  2  8  1  0
  2  3  1  0
  2 30  1  6
  3  4  1  0
  3 31  1  0
  3 32  1  0
  4  5  1  0
  4  6  1  0
  4 33  1  1
  5 34  1  0
  6 25  1  0
  6  7  1  1
  6  8  1  0
  7 35  1  0
  7 36  1  0
  7 37  1  0
  8  9  1  0
  8 38  1  6
  9 10  1  0
  9 11  1  0
  9 39  1  1
 10 40  1  0
 11 12  1  0
 11 41  1  0
 11 42  1  0
 12 25  1  0
 12 13  1  0
 12 43  1  1
 13 21  1  0
 13 14  1  0
 13 44  1  6
 14 15  1  0
 14 45  1  0
 14 46  1  0
 15 16  1  0
 15 47  1  0
 15 48  1  0
 16 17  2  0
 16 18  1  0
 18 19  1  0
 18 20  1  0
 18 21  1  0
 19 49  1  0
 19 50  1  0
 19 51  1  0
 20 52  1  0
 20 53  1  0
 20 54  1  0
 21 22  1  0
 21 55  1  6
 22 23  1  0
 22 56  1  0
 22 57  1  0
 23 24  2  0
 23 25  1  0
 25 26  1  1
 26 58  1  0
M  END
>  <i_m_ct_stereo_status>  (289) 
1

>  <s_m_source_file>  (289) 
/var/tmp/pbs.5076255.sched01/tmpagfdxo7m/88tnrj_5ym.sdf

>  <i_m_source_file_index>  (289) 
31

>  <i_lp_mmshare_version>  (289) 
48012

>  <i_f3d_flags>  (289) 
0

>  <s_epik_input>  (289) 
W09IXVtDQEBIXTFbQ0gyXVtDQEBIXShbQ0gzXSlbQ0BASF0oW0NAQF0xMltDSDNdKVtDQEBIXShbT0hdKVtDSDJdW0NASF0zW0NASF00W0NASF0oQyhbQ0gzXSkoW0NIM10pQyg9TylbQ0gyXVtDSDJdNClbQ0gyXUMoPU8pW0NAQF0yM1tPSF0=

>  <s_epik_cmdline>  (289) 
J2VwaWtfcHl0aG9uJywgJy1waHQnLCAnMi4wJywgJy1waCcsICc3LjAnLCAnLXRuJywgJzgnLCAnLW1hJywgJzIwMCcsICctaW1hZScsICc8aW5maWxlLm1hZT4nLCAnLW9tYWUnLCAnPG91dGZpbGUubWFlPic=

>  <r_lp_tautomer_probability>  (289) 
1

>  <r_epik_Ionization_Penalty>  (289) 
1.06356e-06

>  <r_epik_Ionization_Penalty_Charging>  (289) 
0

>  <r_epik_Ionization_Penalty_Neutral>  (289) 
1.06356e-06

>  <r_epik_State_Penalty>  (289) 
-0

>  <r_epik_Charging_Adjusted_Penalty>  (289) 
0

>  <i_epik_Tot_Q>  (289) 
0

>  <i_epik_Tot_abs_Q>  (289) 
0

>  <s_lp_Force_Field>  (289) 
OPLS3e

>  <r_lp_Energy>  (289) 
41.3191

>  <b_lp_Chiralities_Consistent>  (289) 
1

>  <s_lp_Variant>  (289) 
84:0-1

>  <s_i_glide_gridfile>  (289) 
pfpi4k_grid

>  <i_i_glide_lignum>  (289) 
31

>  <i_i_glide_rotatable_bonds>  (289) 
3

>  <r_i_docking_score>  (289) 
-3.49457

>  <r_i_glide_ligand_efficiency>  (289) 
-0.134406

>  <r_i_glide_ligand_efficiency_sa>  (289) 
-0.398178

>  <r_i_glide_ligand_efficiency_ln>  (289) 
-0.820687

>  <r_i_glide_gscore>  (289) 
-3.49457

>  <r_i_glide_lipo>  (289) 
-0.676398

>  <r_i_glide_hbond>  (289) 
-0.189235

>  <r_i_glide_metal>  (289) 
-0

>  <r_i_glide_rewards>  (289) 
-0.924029

>  <r_i_glide_evdw>  (289) 
-24.9762

>  <r_i_glide_ecoul>  (289) 
-3.00668

>  <r_i_glide_erotb>  (289) 
0

>  <r_i_glide_esite>  (289) 
-0.00509194

>  <r_i_glide_emodel>  (289) 
-34.1761

>  <r_i_glide_energy>  (289) 
-27.9829

>  <r_i_glide_einternal>  (289) 
1.31706

>  <r_i_glide_intrahb_reward>  (289) 
-0

>  <i_i_glide_confnum>  (289) 
1

>  <i_i_glide_posenum>  (289) 
1

>  <r_i_glide_eff_state_penalty>  (289) 
0

>  <ligand_id>  (289) 
84

>  <original_smiles>  (289) 
CC1CC(O)C2(C)C1C(O)CC1C3CCC(=O)C(C)(C)C3CC(=O)C12O

>  <smiles>  (289) 
[H]OC1([H])C([H])([H])C2([H])C(O[H])(C(=O)C([H])([H])C3([H])C2([H])C([H])([H])C([H])([H])C(=O)C3(C([H])([H])[H])C([H])([H])[H])C2(C([H])([H])[H])C([H])(O[H])C([H])([H])C([H])(C([H])([H])[H])C12[H]

$$$$
84:0:2
     RDKit          3D

 58 61  0  0  1  0  0  0  0  0999 V2000
    5.6186   -2.1339    0.7440 C   0  0  0  0  0  0  0  0  0  0  0  0
    5.8514   -3.2917    1.7298 C   0  0  2  0  0  0  0  0  0  0  0  0
    6.9461   -4.2775    1.2646 C   0  0  0  0  0  0  0  0  0  0  0  0
    6.3315   -5.6855    1.3595 C   0  0  1  0  0  0  0  0  0  0  0  0
    6.7763   -6.2468    2.5789 O   0  0  0  0  0  0  0  0  0  0  0  0
    4.7904   -5.4664    1.2341 C   0  0  2  0  0  0  0  0  0  0  0  0
    4.5706   -5.2176   -0.2893 C   0  0  0  0  0  0  0  0  0  0  0  0
    4.5808   -4.1362    2.0120 C   0  0  1  0  0  0  0  0  0  0  0  0
    4.4154   -4.3406    3.5435 C   0  0  1  0  0  0  0  0  0  0  0  0
    3.9969   -3.1307    4.1432 O   0  0  0  0  0  0  0  0  0  0  0  0
    3.4107   -5.4354    3.9161 C   0  0  0  0  0  0  0  0  0  0  0  0
    3.7934   -6.8004    3.2918 C   0  0  1  0  0  0  0  0  0  0  0  0
    2.8614   -7.9395    3.8345 C   0  0  2  0  0  0  0  0  0  0  0  0
    3.4642   -9.3669    3.7021 C   0  0  0  0  0  0  0  0  0  0  0  0
    2.5746  -10.4505    4.3257 C   0  0  0  0  0  0  0  0  0  0  0  0
    1.1632  -10.3737    3.7476 C   0  0  0  0  0  0  0  0  0  0  0  0
    0.6201  -11.3677    3.2695 O   0  0  0  0  0  0  0  0  0  0  0  0
    0.4702   -8.9922    3.8077 C   0  0  0  0  0  0  0  0  0  0  0  0
   -0.8598   -9.0265    3.0136 C   0  0  0  0  0  0  0  0  0  0  0  0
    0.1284   -8.6990    5.2877 C   0  0  0  0  0  0  0  0  0  0  0  0
    1.4185   -7.8755    3.2459 C   0  0  2  0  0  0  0  0  0  0  0  0
    1.4868   -7.7911    1.7023 C   0  0  0  0  0  0  0  0  0  0  0  0
    2.3572   -6.6035    1.2831 C   0  0  0  0  0  0  0  0  0  0  0  0
    1.8385   -5.6491    0.7031 O   0  0  0  0  0  0  0  0  0  0  0  0
    3.8474   -6.6576    1.7293 C   0  0  1  0  0  0  0  0  0  0  0  0
    4.4166   -7.8337    1.1766 O   0  0  0  0  0  0  0  0  0  0  0  0
    5.2710   -2.4852   -0.2283 H   0  0  0  0  0  0  0  0  0  0  0  0
    6.5357   -1.5650    0.5862 H   0  0  0  0  0  0  0  0  0  0  0  0
    4.8672   -1.4448    1.1319 H   0  0  0  0  0  0  0  0  0  0  0  0
    6.1900   -2.8319    2.6581 H   0  0  0  0  0  0  0  0  0  0  0  0
    7.2437   -4.0573    0.2370 H   0  0  0  0  0  0  0  0  0  0  0  0
    7.8626   -4.1963    1.8496 H   0  0  0  0  0  0  0  0  0  0  0  0
    6.7100   -6.3247    0.5603 H   0  0  0  0  0  0  0  0  0  0  0  0
    7.7064   -6.4123    2.5092 H   0  0  0  0  0  0  0  0  0  0  0  0
    3.7094   -4.5823   -0.4921 H   0  0  0  0  0  0  0  0  0  0  0  0
    4.4257   -6.1643   -0.8005 H   0  0  0  0  0  0  0  0  0  0  0  0
    5.4106   -4.7437   -0.7905 H   0  0  0  0  0  0  0  0  0  0  0  0
    3.6880   -3.6336    1.6346 H   0  0  0  0  0  0  0  0  0  0  0  0
    5.3741   -4.6069    3.9887 H   0  0  0  0  0  0  0  0  0  0  0  0
    3.2080   -2.8348    3.7093 H   0  0  0  0  0  0  0  0  0  0  0  0
    3.3722   -5.5253    5.0038 H   0  0  0  0  0  0  0  0  0  0  0  0
    2.4114   -5.1226    3.6073 H   0  0  0  0  0  0  0  0  0  0  0  0
    4.7798   -7.0458    3.6767 H   0  0  0  0  0  0  0  0  0  0  0  0
    2.7821   -7.7706    4.9094 H   0  0  0  0  0  0  0  0  0  0  0  0
    3.6122   -9.6516    2.6618 H   0  0  0  0  0  0  0  0  0  0  0  0
    4.4495   -9.3973    4.1725 H   0  0  0  0  0  0  0  0  0  0  0  0
    2.9918  -11.4407    4.1416 H   0  0  0  0  0  0  0  0  0  0  0  0
    2.5215  -10.3300    5.4064 H   0  0  0  0  0  0  0  0  0  0  0  0
   -1.3318   -8.0446    2.9802 H   0  0  0  0  0  0  0  0  0  0  0  0
   -1.5745   -9.7149    3.4585 H   0  0  0  0  0  0  0  0  0  0  0  0
   -0.7134   -9.3736    1.9914 H   0  0  0  0  0  0  0  0  0  0  0  0
   -0.3647   -7.7334    5.4010 H   0  0  0  0  0  0  0  0  0  0  0  0
    1.0129   -8.6936    5.9256 H   0  0  0  0  0  0  0  0  0  0  0  0
   -0.5440   -9.4555    5.6945 H   0  0  0  0  0  0  0  0  0  0  0  0
    0.9789   -6.9326    3.5800 H   0  0  0  0  0  0  0  0  0  0  0  0
    1.8727   -8.7168    1.2699 H   0  0  0  0  0  0  0  0  0  0  0  0
    0.4941   -7.6360    1.2808 H   0  0  0  0  0  0  0  0  0  0  0  0
    3.9679   -8.5816    1.5344 H   0  0  0  0  0  0  0  0  0  0  0  0
  1  2  1  0
  1 27  1  0
  1 28  1  0
  1 29  1  0
  2  8  1  0
  2  3  1  0
  2 30  1  1
  3  4  1  0
  3 31  1  0
  3 32  1  0
  4  5  1  0
  4  6  1  0
  4 33  1  6
  5 34  1  0
  6 25  1  0
  6  7  1  6
  6  8  1  0
  7 35  1  0
  7 36  1  0
  7 37  1  0
  8  9  1  0
  8 38  1  6
  9 10  1  0
  9 11  1  0
  9 39  1  1
 10 40  1  0
 11 12  1  0
 11 41  1  0
 11 42  1  0
 12 25  1  0
 12 13  1  0
 12 43  1  1
 13 21  1  0
 13 14  1  0
 13 44  1  1
 14 15  1  0
 14 45  1  0
 14 46  1  0
 15 16  1  0
 15 47  1  0
 15 48  1  0
 16 17  2  0
 16 18  1  0
 18 19  1  0
 18 20  1  0
 18 21  1  0
 19 49  1  0
 19 50  1  0
 19 51  1  0
 20 52  1  0
 20 53  1  0
 20 54  1  0
 21 22  1  0
 21 55  1  1
 22 23  1  0
 22 56  1  0
 22 57  1  0
 23 24  2  0
 23 25  1  0
 25 26  1  6
 26 58  1  0
M  END
>  <i_m_ct_stereo_status>  (290) 
1

>  <s_m_source_file>  (290) 
/var/tmp/pbs.5076255.sched01/tmpagfdxo7m/88tnrj_5ym.sdf

>  <i_m_source_file_index>  (290) 
31

>  <i_lp_mmshare_version>  (290) 
48012

>  <i_f3d_flags>  (290) 
0

>  <s_epik_input>  (290) 
W09IXVtDQEBIXTFbQ0gyXVtDQEBIXShbQ0gzXSlbQ0BASF0oW0NAQF0xMltDSDNdKVtDQEBIXShbT0hdKVtDSDJdW0NASF0zW0NASF00W0NASF0oQyhbQ0gzXSkoW0NIM10pQyg9TylbQ0gyXVtDSDJdNClbQ0gyXUMoPU8pW0NAQF0yM1tPSF0=

>  <s_epik_cmdline>  (290) 
J2VwaWtfcHl0aG9uJywgJy1waHQnLCAnMi4wJywgJy1waCcsICc3LjAnLCAnLXRuJywgJzgnLCAnLW1hJywgJzIwMCcsICctaW1hZScsICc8aW5maWxlLm1hZT4nLCAnLW9tYWUnLCAnPG91dGZpbGUubWFlPic=

>  <r_lp_tautomer_probability>  (290) 
1

>  <r_epik_Ionization_Penalty>  (290) 
1.06356e-06

>  <r_epik_Ionization_Penalty_Charging>  (290) 
0

>  <r_epik_Ionization_Penalty_Neutral>  (290) 
1.06356e-06

>  <r_epik_State_Penalty>  (290) 
-0

>  <r_epik_Charging_Adjusted_Penalty>  (290) 
0

>  <i_epik_Tot_Q>  (290) 
0

>  <i_epik_Tot_abs_Q>  (290) 
0

>  <s_lp_Force_Field>  (290) 
OPLS3e

>  <r_lp_Energy>  (290) 
41.3191

>  <b_lp_Chiralities_Consistent>  (290) 
1

>  <s_lp_Variant>  (290) 
84:0-1

>  <s_i_glide_gridfile>  (290) 
pfpi4k_grid

>  <i_i_glide_lignum>  (290) 
31

>  <i_i_glide_rotatable_bonds>  (290) 
3

>  <r_i_docking_score>  (290) 
-3.2617

>  <r_i_glide_ligand_efficiency>  (290) 
-0.12545

>  <r_i_glide_ligand_efficiency_sa>  (290) 
-0.371645

>  <r_i_glide_ligand_efficiency_ln>  (290) 
-0.766

>  <r_i_glide_gscore>  (290) 
-3.2617

>  <r_i_glide_lipo>  (290) 
-0.441699

>  <r_i_glide_hbond>  (290) 
-0.0849767

>  <r_i_glide_metal>  (290) 
-0

>  <r_i_glide_rewards>  (290) 
-0.993786

>  <r_i_glide_evdw>  (290) 
-27.1269

>  <r_i_glide_ecoul>  (290) 
-2.47304

>  <r_i_glide_erotb>  (290) 
0

>  <r_i_glide_esite>  (290) 
-0.0139359

>  <r_i_glide_emodel>  (290) 
-35.0847

>  <r_i_glide_energy>  (290) 
-29.6

>  <r_i_glide_einternal>  (290) 
2.04534

>  <r_i_glide_intrahb_reward>  (290) 
-0

>  <i_i_glide_confnum>  (290) 
2

>  <i_i_glide_posenum>  (290) 
3

>  <r_i_glide_eff_state_penalty>  (290) 
0

>  <ligand_id>  (290) 
84

>  <original_smiles>  (290) 
CC1CC(O)C2(C)C1C(O)CC1C3CCC(=O)C(C)(C)C3CC(=O)C12O

>  <smiles>  (290) 
[H]OC1([H])C([H])([H])C2([H])C(O[H])(C(=O)C([H])([H])C3([H])C2([H])C([H])([H])C([H])([H])C(=O)C3(C([H])([H])[H])C([H])([H])[H])C2(C([H])([H])[H])C([H])(O[H])C([H])([H])C([H])(C([H])([H])[H])C12[H]

$$$$
85:0:0
     RDKit          3D

 22 23  0  0  1  0  0  0  0  0999 V2000
    1.9502   -4.2741   -0.7841 C   0  0  0  0  0  0  0  0  0  0  0  0
    1.3648   -5.4798   -0.3102 O   0  0  0  0  0  0  0  0  0  0  0  0
    1.9920   -5.9716    0.8300 C   0  0  0  0  0  0  0  0  0  0  0  0
    1.1252   -6.9467    1.4817 N   0  0  0  0  0  0  0  0  0  0  0  0
   -0.1913   -6.6583    1.6732 N   0  0  0  0  0  0  0  0  0  0  0  0
   -0.7072   -7.6705    2.3260 C   0  0  0  0  0  0  0  0  0  0  0  0
    0.2756   -8.6696    2.5885 C   0  0  0  0  0  0  0  0  0  0  0  0
    0.3204   -9.9270    3.2270 C   0  0  0  0  0  0  0  0  0  0  0  0
    1.5231  -10.6565    3.2939 C   0  0  0  0  0  0  0  0  0  0  0  0
    1.5356  -11.8539    3.9164 F   0  0  0  0  0  0  0  0  0  0  0  0
    2.7069  -10.1473    2.7252 C   0  0  0  0  0  0  0  0  0  0  0  0
    2.6895   -8.8908    2.0899 C   0  0  0  0  0  0  0  0  0  0  0  0
    1.4812   -8.1738    2.0196 C   0  0  0  0  0  0  0  0  0  0  0  0
    1.4253   -3.9440   -1.6828 H   0  0  0  0  0  0  0  0  0  0  0  0
    3.0020   -4.4079   -1.0359 H   0  0  0  0  0  0  0  0  0  0  0  0
    1.8784   -3.4776   -0.0430 H   0  0  0  0  0  0  0  0  0  0  0  0
    2.9275   -6.4532    0.5446 H   0  0  0  0  0  0  0  0  0  0  0  0
    2.2055   -5.1801    1.5505 H   0  0  0  0  0  0  0  0  0  0  0  0
   -1.7524   -7.6593    2.5972 H   0  0  0  0  0  0  0  0  0  0  0  0
   -0.5778  -10.3301    3.6727 H   0  0  0  0  0  0  0  0  0  0  0  0
    3.6233  -10.7148    2.7772 H   0  0  0  0  0  0  0  0  0  0  0  0
    3.5898   -8.4890    1.6538 H   0  0  0  0  0  0  0  0  0  0  0  0
  1  2  1  0
  1 14  1  0
  1 15  1  0
  1 16  1  0
  2  3  1  0
  3  4  1  0
  3 17  1  0
  3 18  1  0
  4 13  1  0
  4  5  1  0
  5  6  2  0
  6  7  1  0
  6 19  1  0
  7 13  2  0
  7  8  1  0
  8  9  2  0
  8 20  1  0
  9 10  1  0
  9 11  1  0
 11 12  2  0
 11 21  1  0
 12 13  1  0
 12 22  1  0
M  END
>  <i_m_ct_stereo_status>  (291) 
1

>  <s_m_source_file>  (291) 
/var/tmp/pbs.5076255.sched01/tmpagfdxo7m/88tnrj_5ym.sdf

>  <i_m_source_file_index>  (291) 
32

>  <i_lp_mmshare_version>  (291) 
48012

>  <i_f3d_flags>  (291) 
0

>  <s_epik_input>  (291) 
W0NIM11PW0NIMl1uKG5bY0hdMSljKGMxMilbY0hdW2NIXWMoRilbY0hdMg==

>  <s_epik_cmdline>  (291) 
J2VwaWtfcHl0aG9uJywgJy1waHQnLCAnMi4wJywgJy1waCcsICc3LjAnLCAnLXRuJywgJzgnLCAnLW1hJywgJzIwMCcsICctaW1hZScsICc8aW5maWxlLm1hZT4nLCAnLW9tYWUnLCAnPG91dGZpbGUubWFlPic=

>  <r_lp_tautomer_probability>  (291) 
1

>  <r_epik_Ionization_Penalty>  (291) 
6.35614e-07

>  <r_epik_Ionization_Penalty_Charging>  (291) 
0

>  <r_epik_Ionization_Penalty_Neutral>  (291) 
6.35614e-07

>  <r_epik_State_Penalty>  (291) 
-0

>  <r_epik_Charging_Adjusted_Penalty>  (291) 
0

>  <i_epik_Tot_Q>  (291) 
0

>  <i_epik_Tot_abs_Q>  (291) 
0

>  <s_epik_Chemistry_Notes>  (291) 
This compound contains an acetal/aminal-like group ( X-CH(R)-Y where X, Y are N, S, or O) that may be acid/base labile, releasing an aldehyde.

>  <s_lp_Force_Field>  (291) 
OPLS3e

>  <r_lp_Energy>  (291) 
13.6401

>  <b_lp_Chiralities_Consistent>  (291) 
1

>  <s_lp_Variant>  (291) 
85:0-1

>  <s_i_glide_gridfile>  (291) 
pfpi4k_grid

>  <i_i_glide_lignum>  (291) 
32

>  <i_i_glide_rotatable_bonds>  (291) 
2

>  <r_i_docking_score>  (291) 
-4.60138

>  <r_i_glide_ligand_efficiency>  (291) 
-0.353952

>  <r_i_glide_ligand_efficiency_sa>  (291) 
-0.83226

>  <r_i_glide_ligand_efficiency_ln>  (291) 
-1.29073

>  <r_i_glide_gscore>  (291) 
-4.60138

>  <r_i_glide_lipo>  (291) 
-0.133271

>  <r_i_glide_hbond>  (291) 
-0.51291

>  <r_i_glide_metal>  (291) 
-0

>  <r_i_glide_rewards>  (291) 
-2.1806

>  <r_i_glide_evdw>  (291) 
-17.645

>  <r_i_glide_ecoul>  (291) 
-5.1714

>  <r_i_glide_erotb>  (291) 
0

>  <r_i_glide_esite>  (291) 
-0.116643

>  <r_i_glide_emodel>  (291) 
-28.2789

>  <r_i_glide_energy>  (291) 
-22.8164

>  <r_i_glide_einternal>  (291) 
3.5598

>  <r_i_glide_intrahb_reward>  (291) 
-0

>  <i_i_glide_confnum>  (291) 
2

>  <i_i_glide_posenum>  (291) 
1

>  <r_i_glide_eff_state_penalty>  (291) 
0

>  <ligand_id>  (291) 
85

>  <original_smiles>  (291) 
COCn1ncc2cc(F)ccc21

>  <smiles>  (291) 
[H]c1c(F)c([H])c2c([H])nn(C([H])([H])OC([H])([H])[H])c2c1[H]

$$$$
85:0:1
     RDKit          3D

 22 23  0  0  1  0  0  0  0  0999 V2000
    3.0786   -4.7294    2.4328 C   0  0  0  0  0  0  0  0  0  0  0  0
    2.2599   -4.6199    1.2833 O   0  0  0  0  0  0  0  0  0  0  0  0
    2.8816   -4.7556    0.0303 C   0  0  0  0  0  0  0  0  0  0  0  0
    3.5642   -3.5250   -0.3378 N   0  0  0  0  0  0  0  0  0  0  0  0
    4.3911   -2.9240    0.5531 N   0  0  0  0  0  0  0  0  0  0  0  0
    4.7820   -1.8020    0.0116 C   0  0  0  0  0  0  0  0  0  0  0  0
    4.2751   -1.6647   -1.3015 C   0  0  0  0  0  0  0  0  0  0  0  0
    4.3928   -0.7264   -2.3705 C   0  0  0  0  0  0  0  0  0  0  0  0
    3.7615   -0.9323   -3.6235 C   0  0  0  0  0  0  0  0  0  0  0  0
    3.8995   -0.0250   -4.6411 F   0  0  0  0  0  0  0  0  0  0  0  0
    2.9771   -2.0833   -3.7990 C   0  0  0  0  0  0  0  0  0  0  0  0
    2.8057   -3.0075   -2.7591 C   0  0  0  0  0  0  0  0  0  0  0  0
    3.4717   -2.8060   -1.5270 C   0  0  0  0  0  0  0  0  0  0  0  0
    2.4288   -4.7466    3.3077 H   0  0  0  0  0  0  0  0  0  0  0  0
    3.7632   -3.8895    2.5009 H   0  0  0  0  0  0  0  0  0  0  0  0
    3.6279   -5.6615    2.4133 H   0  0  0  0  0  0  0  0  0  0  0  0
    3.6003   -5.5613   -0.0248 H   0  0  0  0  0  0  0  0  0  0  0  0
    2.1095   -4.9459   -0.7193 H   0  0  0  0  0  0  0  0  0  0  0  0
    5.4005   -1.1083    0.5458 H   0  0  0  0  0  0  0  0  0  0  0  0
    5.0092    0.1387   -2.2380 H   0  0  0  0  0  0  0  0  0  0  0  0
    2.4601   -2.2456   -4.7073 H   0  0  0  0  0  0  0  0  0  0  0  0
    2.1940   -3.8869   -2.9181 H   0  0  0  0  0  0  0  0  0  0  0  0
  1  2  1  0
  1 14  1  0
  1 15  1  0
  1 16  1  0
  2  3  1  0
  3  4  1  0
  3 17  1  0
  3 18  1  0
  4 13  1  0
  4  5  1  0
  5  6  2  0
  6  7  1  0
  6 19  1  0
  7 13  2  0
  7  8  1  0
  8  9  2  0
  8 20  1  0
  9 10  1  0
  9 11  1  0
 11 12  2  0
 11 21  1  0
 12 13  1  0
 12 22  1  0
M  END
>  <i_m_ct_stereo_status>  (292) 
1

>  <s_m_source_file>  (292) 
/var/tmp/pbs.5076255.sched01/tmpagfdxo7m/88tnrj_5ym.sdf

>  <i_m_source_file_index>  (292) 
32

>  <i_lp_mmshare_version>  (292) 
48012

>  <i_f3d_flags>  (292) 
0

>  <s_epik_input>  (292) 
W0NIM11PW0NIMl1uKG5bY0hdMSljKGMxMilbY0hdW2NIXWMoRilbY0hdMg==

>  <s_epik_cmdline>  (292) 
J2VwaWtfcHl0aG9uJywgJy1waHQnLCAnMi4wJywgJy1waCcsICc3LjAnLCAnLXRuJywgJzgnLCAnLW1hJywgJzIwMCcsICctaW1hZScsICc8aW5maWxlLm1hZT4nLCAnLW9tYWUnLCAnPG91dGZpbGUubWFlPic=

>  <r_lp_tautomer_probability>  (292) 
1

>  <r_epik_Ionization_Penalty>  (292) 
6.35614e-07

>  <r_epik_Ionization_Penalty_Charging>  (292) 
0

>  <r_epik_Ionization_Penalty_Neutral>  (292) 
6.35614e-07

>  <r_epik_State_Penalty>  (292) 
-0

>  <r_epik_Charging_Adjusted_Penalty>  (292) 
0

>  <i_epik_Tot_Q>  (292) 
0

>  <i_epik_Tot_abs_Q>  (292) 
0

>  <s_epik_Chemistry_Notes>  (292) 
This compound contains an acetal/aminal-like group ( X-CH(R)-Y where X, Y are N, S, or O) that may be acid/base labile, releasing an aldehyde.

>  <s_lp_Force_Field>  (292) 
OPLS3e

>  <r_lp_Energy>  (292) 
13.6401

>  <b_lp_Chiralities_Consistent>  (292) 
1

>  <s_lp_Variant>  (292) 
85:0-1

>  <s_i_glide_gridfile>  (292) 
pfpi4k_grid

>  <i_i_glide_lignum>  (292) 
32

>  <i_i_glide_rotatable_bonds>  (292) 
2

>  <r_i_docking_score>  (292) 
-4.37879

>  <r_i_glide_ligand_efficiency>  (292) 
-0.33683

>  <r_i_glide_ligand_efficiency_sa>  (292) 
-0.792001

>  <r_i_glide_ligand_efficiency_ln>  (292) 
-1.22829

>  <r_i_glide_gscore>  (292) 
-4.37879

>  <r_i_glide_lipo>  (292) 
-0.413735

>  <r_i_glide_hbond>  (292) 
-0.0042691

>  <r_i_glide_metal>  (292) 
-0

>  <r_i_glide_rewards>  (292) 
-2.58738

>  <r_i_glide_evdw>  (292) 
-17.6244

>  <r_i_glide_ecoul>  (292) 
-3.00504

>  <r_i_glide_erotb>  (292) 
0

>  <r_i_glide_esite>  (292) 
-0.0414331

>  <r_i_glide_emodel>  (292) 
-26.4038

>  <r_i_glide_energy>  (292) 
-20.6295

>  <r_i_glide_einternal>  (292) 
0.76161

>  <r_i_glide_intrahb_reward>  (292) 
-0

>  <i_i_glide_confnum>  (292) 
2

>  <i_i_glide_posenum>  (292) 
14

>  <r_i_glide_eff_state_penalty>  (292) 
0

>  <ligand_id>  (292) 
85

>  <original_smiles>  (292) 
COCn1ncc2cc(F)ccc21

>  <smiles>  (292) 
[H]c1c(F)c([H])c2c([H])nn(C([H])([H])OC([H])([H])[H])c2c1[H]

$$$$
85:0:2
     RDKit          3D

 22 23  0  0  1  0  0  0  0  0999 V2000
    3.4075   -6.7325    1.3635 C   0  0  0  0  0  0  0  0  0  0  0  0
    2.4965   -5.6646    1.1203 O   0  0  0  0  0  0  0  0  0  0  0  0
    3.0098   -4.3922    1.3982 C   0  0  0  0  0  0  0  0  0  0  0  0
    4.0037   -4.0336    0.3948 N   0  0  0  0  0  0  0  0  0  0  0  0
    5.3193   -4.2378    0.6697 N   0  0  0  0  0  0  0  0  0  0  0  0
    5.9786   -3.8513   -0.3952 C   0  0  0  0  0  0  0  0  0  0  0  0
    5.0977   -3.3490   -1.4039 C   0  0  0  0  0  0  0  0  0  0  0  0
    5.2159   -2.7964   -2.7014 C   0  0  0  0  0  0  0  0  0  0  0  0
    4.0727   -2.3717   -3.4132 C   0  0  0  0  0  0  0  0  0  0  0  0
    4.2088   -1.7887   -4.6296 F   0  0  0  0  0  0  0  0  0  0  0  0
    2.7919   -2.5263   -2.8567 C   0  0  0  0  0  0  0  0  0  0  0  0
    2.6510   -3.0756   -1.5708 C   0  0  0  0  0  0  0  0  0  0  0  0
    3.7933   -3.4775   -0.8610 C   0  0  0  0  0  0  0  0  0  0  0  0
    2.9161   -7.6929    1.2035 H   0  0  0  0  0  0  0  0  0  0  0  0
    3.7738   -6.7092    2.3911 H   0  0  0  0  0  0  0  0  0  0  0  0
    4.2617   -6.6941    0.6867 H   0  0  0  0  0  0  0  0  0  0  0  0
    2.1992   -3.6630    1.3346 H   0  0  0  0  0  0  0  0  0  0  0  0
    3.4368   -4.3368    2.4059 H   0  0  0  0  0  0  0  0  0  0  0  0
    7.0543   -3.9490   -0.4000 H   0  0  0  0  0  0  0  0  0  0  0  0
    6.1961   -2.6909   -3.1327 H   0  0  0  0  0  0  0  0  0  0  0  0
    1.9196   -2.2048   -3.4033 H   0  0  0  0  0  0  0  0  0  0  0  0
    1.6700   -3.1747   -1.1413 H   0  0  0  0  0  0  0  0  0  0  0  0
  1  2  1  0
  1 14  1  0
  1 15  1  0
  1 16  1  0
  2  3  1  0
  3  4  1  0
  3 17  1  0
  3 18  1  0
  4 13  1  0
  4  5  1  0
  5  6  2  0
  6  7  1  0
  6 19  1  0
  7 13  2  0
  7  8  1  0
  8  9  2  0
  8 20  1  0
  9 10  1  0
  9 11  1  0
 11 12  2  0
 11 21  1  0
 12 13  1  0
 12 22  1  0
M  END
>  <i_m_ct_stereo_status>  (293) 
1

>  <s_m_source_file>  (293) 
/var/tmp/pbs.5076255.sched01/tmpagfdxo7m/88tnrj_5ym.sdf

>  <i_m_source_file_index>  (293) 
32

>  <i_lp_mmshare_version>  (293) 
48012

>  <i_f3d_flags>  (293) 
0

>  <s_epik_input>  (293) 
W0NIM11PW0NIMl1uKG5bY0hdMSljKGMxMilbY0hdW2NIXWMoRilbY0hdMg==

>  <s_epik_cmdline>  (293) 
J2VwaWtfcHl0aG9uJywgJy1waHQnLCAnMi4wJywgJy1waCcsICc3LjAnLCAnLXRuJywgJzgnLCAnLW1hJywgJzIwMCcsICctaW1hZScsICc8aW5maWxlLm1hZT4nLCAnLW9tYWUnLCAnPG91dGZpbGUubWFlPic=

>  <r_lp_tautomer_probability>  (293) 
1

>  <r_epik_Ionization_Penalty>  (293) 
6.35614e-07

>  <r_epik_Ionization_Penalty_Charging>  (293) 
0

>  <r_epik_Ionization_Penalty_Neutral>  (293) 
6.35614e-07

>  <r_epik_State_Penalty>  (293) 
-0

>  <r_epik_Charging_Adjusted_Penalty>  (293) 
0

>  <i_epik_Tot_Q>  (293) 
0

>  <i_epik_Tot_abs_Q>  (293) 
0

>  <s_epik_Chemistry_Notes>  (293) 
This compound contains an acetal/aminal-like group ( X-CH(R)-Y where X, Y are N, S, or O) that may be acid/base labile, releasing an aldehyde.

>  <s_lp_Force_Field>  (293) 
OPLS3e

>  <r_lp_Energy>  (293) 
13.6401

>  <b_lp_Chiralities_Consistent>  (293) 
1

>  <s_lp_Variant>  (293) 
85:0-1

>  <s_i_glide_gridfile>  (293) 
pfpi4k_grid

>  <i_i_glide_lignum>  (293) 
32

>  <i_i_glide_rotatable_bonds>  (293) 
2

>  <r_i_docking_score>  (293) 
-4.11902

>  <r_i_glide_ligand_efficiency>  (293) 
-0.316848

>  <r_i_glide_ligand_efficiency_sa>  (293) 
-0.745015

>  <r_i_glide_ligand_efficiency_ln>  (293) 
-1.15542

>  <r_i_glide_gscore>  (293) 
-4.11902

>  <r_i_glide_lipo>  (293) 
-0.612781

>  <r_i_glide_hbond>  (293) 
0

>  <r_i_glide_metal>  (293) 
-0

>  <r_i_glide_rewards>  (293) 
-2.20633

>  <r_i_glide_evdw>  (293) 
-15.8792

>  <r_i_glide_ecoul>  (293) 
-2.74426

>  <r_i_glide_erotb>  (293) 
0

>  <r_i_glide_esite>  (293) 
-0.0943017

>  <r_i_glide_emodel>  (293) 
-24.9676

>  <r_i_glide_energy>  (293) 
-18.6235

>  <r_i_glide_einternal>  (293) 
0.246474

>  <r_i_glide_intrahb_reward>  (293) 
-0

>  <i_i_glide_confnum>  (293) 
1

>  <i_i_glide_posenum>  (293) 
15

>  <r_i_glide_eff_state_penalty>  (293) 
0

>  <ligand_id>  (293) 
85

>  <original_smiles>  (293) 
COCn1ncc2cc(F)ccc21

>  <smiles>  (293) 
[H]c1c(F)c([H])c2c([H])nn(C([H])([H])OC([H])([H])[H])c2c1[H]

$$$$
87:0:0
     RDKit          3D

 49 51  0  0  1  0  0  0  0  0999 V2000
    0.2021   -6.9354    9.3804 O   0  0  0  0  0  0  0  0  0  0  0  0
    1.0105   -7.8328    9.6281 C   0  0  0  0  0  0  0  0  0  0  0  0
    1.7359   -7.8010   10.9217 C   0  0  0  0  0  0  0  0  0  0  0  0
    2.0930   -8.8157   11.7601 C   0  0  0  0  0  0  0  0  0  0  0  0
    2.8217   -8.2250   12.8248 C   0  0  0  0  0  0  0  0  0  0  0  0
    2.7777   -6.8773   12.5990 C   0  0  0  0  0  0  0  0  0  0  0  0
    2.1109   -6.5997   11.4474 O   0  0  0  0  0  0  0  0  0  0  0  0
    1.2599   -8.8542    8.7741 N   0  0  0  0  0  0  0  0  0  0  0  0
    2.3925   -9.7953    8.8787 C   0  0  0  0  0  0  0  0  0  0  0  0
    3.1464   -9.8918    7.5509 C   0  0  0  0  0  0  0  0  0  0  0  0
    2.2400  -10.2276    6.4314 N   0  0  0  0  0  0  0  0  0  0  0  0
    3.0020  -10.3909    5.1650 C   0  0  0  0  0  0  0  0  0  0  0  0
    2.1054  -10.5495    3.9157 C   0  0  2  0  0  0  0  0  0  0  0  0
    1.2968  -11.7029    4.0583 O   0  0  0  0  0  0  0  0  0  0  0  0
    2.9180  -10.6231    2.6204 C   0  0  0  0  0  0  0  0  0  0  0  0
    3.7126   -9.4554    2.5322 O   0  0  0  0  0  0  0  0  0  0  0  0
    4.4908   -9.4097    1.3542 C   0  0  0  0  0  0  0  0  0  0  0  0
    5.3181   -8.1479    1.3098 C   0  0  0  0  0  0  0  0  0  0  0  0
    6.6652   -8.1560    1.7196 C   0  0  0  0  0  0  0  0  0  0  0  0
    7.3863   -6.9484    1.6743 C   0  0  0  0  0  0  0  0  0  0  0  0
    6.8444   -5.7831    1.2612 N   0  0  0  0  0  0  0  0  0  0  0  0
    5.5523   -5.7844    0.8712 C   0  0  0  0  0  0  0  0  0  0  0  0
    4.7457   -6.9372    0.8795 C   0  0  0  0  0  0  0  0  0  0  0  0
    1.1283   -9.2439    6.3373 C   0  0  0  0  0  0  0  0  0  0  0  0
    0.3554   -9.1383    7.6504 C   0  0  0  0  0  0  0  0  0  0  0  0
    1.8851   -9.8686   11.6026 H   0  0  0  0  0  0  0  0  0  0  0  0
    3.2959   -8.7199   13.6576 H   0  0  0  0  0  0  0  0  0  0  0  0
    3.1783   -6.0184   13.1137 H   0  0  0  0  0  0  0  0  0  0  0  0
    3.1605   -9.4828    9.5886 H   0  0  0  0  0  0  0  0  0  0  0  0
    2.0263  -10.7675    9.2167 H   0  0  0  0  0  0  0  0  0  0  0  0
    3.6285   -8.9278    7.3624 H   0  0  0  0  0  0  0  0  0  0  0  0
    3.9472  -10.6265    7.6464 H   0  0  0  0  0  0  0  0  0  0  0  0
    3.6400   -9.5106    5.0255 H   0  0  0  0  0  0  0  0  0  0  0  0
    3.6922  -11.2350    5.2595 H   0  0  0  0  0  0  0  0  0  0  0  0
    1.4616   -9.6782    3.8166 H   0  0  0  0  0  0  0  0  0  0  0  0
    1.8309  -12.4813    3.9603 H   0  0  0  0  0  0  0  0  0  0  0  0
    3.5242  -11.5308    2.5647 H   0  0  0  0  0  0  0  0  0  0  0  0
    2.2259  -10.6163    1.7861 H   0  0  0  0  0  0  0  0  0  0  0  0
    5.1539  -10.2722    1.3296 H   0  0  0  0  0  0  0  0  0  0  0  0
    3.8431   -9.4559    0.4772 H   0  0  0  0  0  0  0  0  0  0  0  0
    7.1404   -9.0601    2.0669 H   0  0  0  0  0  0  0  0  0  0  0  0
    8.4202   -6.9130    1.9825 H   0  0  0  0  0  0  0  0  0  0  0  0
    5.1466   -4.8364    0.5532 H   0  0  0  0  0  0  0  0  0  0  0  0
    3.7142   -6.8893    0.5669 H   0  0  0  0  0  0  0  0  0  0  0  0
    1.5317   -8.2581    6.0741 H   0  0  0  0  0  0  0  0  0  0  0  0
    0.3972   -9.5190    5.5753 H   0  0  0  0  0  0  0  0  0  0  0  0
   -0.1675  -10.0731    7.8372 H   0  0  0  0  0  0  0  0  0  0  0  0
   -0.4244   -8.3860    7.5164 H   0  0  0  0  0  0  0  0  0  0  0  0
    1.8219  -11.1273    6.6942 H   0  0  0  0  0  0  0  0  0  0  0  0
  1  2  2  0
  2  3  1  0
  2  8  1  0
  3  7  1  0
  3  4  2  0
  4  5  1  0
  4 26  1  0
  5  6  2  0
  5 27  1  0
  6  7  1  0
  6 28  1  0
  8 25  1  0
  8  9  1  0
  9 10  1  0
  9 29  1  0
  9 30  1  0
 10 11  1  0
 10 31  1  0
 10 32  1  0
 11 12  1  0
 11 24  1  0
 11 49  1  0
 12 13  1  0
 12 33  1  0
 12 34  1  0
 13 14  1  0
 13 15  1  0
 13 35  1  6
 14 36  1  0
 15 16  1  0
 15 37  1  0
 15 38  1  0
 16 17  1  0
 17 18  1  0
 17 39  1  0
 17 40  1  0
 18 23  1  0
 18 19  2  0
 19 20  1  0
 19 41  1  0
 20 21  2  0
 20 42  1  0
 21 22  1  0
 22 23  2  0
 22 43  1  0
 23 44  1  0
 24 25  1  0
 24 45  1  0
 24 46  1  0
 25 47  1  0
 25 48  1  0
M  CHG  1  11   1
M  END
>  <i_m_ct_stereo_status>  (294) 
1

>  <s_m_source_file>  (294) 
/var/tmp/pbs.5076255.sched01/tmpagfdxo7m/88tnrj_5ym.sdf

>  <i_m_source_file_index>  (294) 
34

>  <i_lp_mmshare_version>  (294) 
48012

>  <i_f3d_flags>  (294) 
0

>  <s_epik_input>  (294) 
bzFbY0hdW2NIXVtjSF1jMUMoPU8pTjJbQ0gyXVtDSDJdTihbQ0gyXVtDSDJdMilbQ0gyXVtDQEhdKFtPSF0pW0NIMl1PW0NIMl1jM1tjSF1bY0hdbltjSF1bY0hdMw==

>  <s_epik_cmdline>  (294) 
J2VwaWtfcHl0aG9uJywgJy1waHQnLCAnMi4wJywgJy1waCcsICc3LjAnLCAnLXRuJywgJzgnLCAnLW1hJywgJzIwMCcsICctaW1hZScsICc8aW5maWxlLm1hZT4nLCAnLW9tYWUnLCAnPG91dGZpbGUubWFlPic=

>  <r_lp_tautomer_probability>  (294) 
1

>  <r_epik_Ionization_Penalty>  (294) 
0.00640083

>  <r_epik_Ionization_Penalty_Charging>  (294) 
0.00226384

>  <r_epik_Ionization_Penalty_Neutral>  (294) 
0.00413699

>  <r_epik_State_Penalty>  (294) 
-0

>  <r_epik_Charging_Adjusted_Penalty>  (294) 
0.00226384

>  <i_epik_Tot_Q>  (294) 
1

>  <i_epik_Tot_abs_Q>  (294) 
1

>  <s_lp_Force_Field>  (294) 
OPLS3e

>  <r_lp_Energy>  (294) 
40.1651

>  <b_lp_Chiralities_Consistent>  (294) 
1

>  <s_lp_Variant>  (294) 
87:0-1

>  <s_i_glide_gridfile>  (294) 
pfpi4k_grid

>  <i_i_glide_lignum>  (294) 
34

>  <i_i_glide_rotatable_bonds>  (294) 
9

>  <r_i_docking_score>  (294) 
-3.69739

>  <r_i_glide_ligand_efficiency>  (294) 
-0.147896

>  <r_i_glide_ligand_efficiency_sa>  (294) 
-0.432449

>  <r_i_glide_ligand_efficiency_ln>  (294) 
-0.876392

>  <r_i_glide_gscore>  (294) 
-3.69739

>  <r_i_glide_lipo>  (294) 
-0.385505

>  <r_i_glide_hbond>  (294) 
-0.679063

>  <r_i_glide_metal>  (294) 
-0

>  <r_i_glide_rewards>  (294) 
-1.04727

>  <r_i_glide_evdw>  (294) 
-19.1542

>  <r_i_glide_ecoul>  (294) 
-10.4951

>  <r_i_glide_erotb>  (294) 
1.10907

>  <r_i_glide_esite>  (294) 
-0.162649

>  <r_i_glide_emodel>  (294) 
-37.0776

>  <r_i_glide_energy>  (294) 
-29.6494

>  <r_i_glide_einternal>  (294) 
3.74458

>  <r_i_glide_intrahb_reward>  (294) 
-0

>  <i_i_glide_confnum>  (294) 
5

>  <i_i_glide_posenum>  (294) 
16

>  <r_i_glide_eff_state_penalty>  (294) 
0

>  <ligand_id>  (294) 
87

>  <original_smiles>  (294) 
O=C(c1ccco1)N1CCN(CC(O)COCc2ccncc2)CC1

>  <smiles>  (294) 
[H]OC([H])(C([H])([H])OC([H])([H])c1c([H])c([H])nc([H])c1[H])C([H])([H])[N+]1([H])C([H])([H])C([H])([H])N(C(=O)c2oc([H])c([H])c2[H])C([H])([H])C1([H])[H]

$$$$
87:0:1
     RDKit          3D

 49 51  0  0  1  0  0  0  0  0999 V2000
   -0.1096    5.2805    4.7414 O   0  0  0  0  0  0  0  0  0  0  0  0
   -0.3779    4.1198    4.3526 C   0  0  0  0  0  0  0  0  0  0  0  0
   -1.6874    3.8804    3.6936 C   0  0  0  0  0  0  0  0  0  0  0  0
   -2.6029    2.8457    3.6580 C   0  0  0  0  0  0  0  0  0  0  0  0
   -3.6467    3.2136    2.7689 C   0  0  0  0  0  0  0  0  0  0  0  0
   -3.4397    4.5256    2.4670 C   0  0  0  0  0  0  0  0  0  0  0  0
   -2.1825    4.9001    2.9152 O   0  0  0  0  0  0  0  0  0  0  0  0
    0.5462    3.1300    4.3991 N   0  0  0  0  0  0  0  0  0  0  0  0
    2.0042    3.4094    4.5133 C   0  0  0  0  0  0  0  0  0  0  0  0
    2.7596    2.6137    3.4201 C   0  0  0  0  0  0  0  0  0  0  0  0
    2.4211    1.1672    3.4425 N   0  0  0  0  0  0  0  0  0  0  0  0
    3.1712    0.3713    2.4420 C   0  0  0  0  0  0  0  0  0  0  0  0
    3.2526   -1.1253    2.8083 C   0  0  2  0  0  0  0  0  0  0  0  0
    3.5159   -1.2749    4.1887 O   0  0  0  0  0  0  0  0  0  0  0  0
    4.3864   -1.8116    2.0325 C   0  0  0  0  0  0  0  0  0  0  0  0
    4.0411   -1.8033    0.6604 O   0  0  0  0  0  0  0  0  0  0  0  0
    5.0288   -2.3914   -0.1718 C   0  0  0  0  0  0  0  0  0  0  0  0
    4.6261   -2.3092   -1.6185 C   0  0  0  0  0  0  0  0  0  0  0  0
    4.2423   -1.0777   -2.1954 C   0  0  0  0  0  0  0  0  0  0  0  0
    3.8334   -1.0474   -3.5214 C   0  0  0  0  0  0  0  0  0  0  0  0
    3.7998   -2.1521   -4.3228 N   0  0  0  0  0  0  0  0  0  0  0  0
    4.1810   -3.3261   -3.7605 C   0  0  0  0  0  0  0  0  0  0  0  0
    4.6034   -3.4566   -2.4421 C   0  0  0  0  0  0  0  0  0  0  0  0
    0.9669    0.9594    3.3415 C   0  0  0  0  0  0  0  0  0  0  0  0
    0.2626    1.6801    4.4772 C   0  0  0  0  0  0  0  0  0  0  0  0
   -2.6181    1.8932    4.1292 H   0  0  0  0  0  0  0  0  0  0  0  0
   -4.5111    2.6169    2.5063 H   0  0  0  0  0  0  0  0  0  0  0  0
   -3.9815    5.2192    1.8506 H   0  0  0  0  0  0  0  0  0  0  0  0
    2.2502    4.4862    4.4025 H   0  0  0  0  0  0  0  0  0  0  0  0
    2.3545    3.1041    5.5123 H   0  0  0  0  0  0  0  0  0  0  0  0
    2.4824    2.9987    2.4386 H   0  0  0  0  0  0  0  0  0  0  0  0
    3.8190    2.7497    3.5644 H   0  0  0  0  0  0  0  0  0  0  0  0
    2.6972    0.4914    1.4687 H   0  0  0  0  0  0  0  0  0  0  0  0
    4.1774    0.7813    2.3536 H   0  0  0  0  0  0  0  0  0  0  0  0
    2.3003   -1.6219    2.5929 H   0  0  0  0  0  0  0  0  0  0  0  0
    3.5566   -2.2050    4.3797 H   0  0  0  0  0  0  0  0  0  0  0  0
    5.3374   -1.2889    2.1861 H   0  0  0  0  0  0  0  0  0  0  0  0
    4.5115   -2.8419    2.3700 H   0  0  0  0  0  0  0  0  0  0  0  0
    5.9776   -1.8661   -0.0580 H   0  0  0  0  0  0  0  0  0  0  0  0
    5.1961   -3.4331    0.1109 H   0  0  0  0  0  0  0  0  0  0  0  0
    4.2388   -0.1755   -1.5921 H   0  0  0  0  0  0  0  0  0  0  0  0
    3.5288   -0.1230   -4.0009 H   0  0  0  0  0  0  0  0  0  0  0  0
    4.1355   -4.1907   -4.4172 H   0  0  0  0  0  0  0  0  0  0  0  0
    4.8654   -4.4347   -2.0491 H   0  0  0  0  0  0  0  0  0  0  0  0
    0.6166    1.3260    2.3730 H   0  0  0  0  0  0  0  0  0  0  0  0
    0.7003   -0.0979    3.3905 H   0  0  0  0  0  0  0  0  0  0  0  0
    0.5290    1.3032    5.4693 H   0  0  0  0  0  0  0  0  0  0  0  0
   -0.7415    1.3675    4.2941 H   0  0  0  0  0  0  0  0  0  0  0  0
    2.6880    0.7986    4.3473 H   0  0  0  0  0  0  0  0  0  0  0  0
  1  2  2  0
  2  3  1  0
  2  8  1  0
  3  7  1  0
  3  4  2  0
  4  5  1  0
  4 26  1  0
  5  6  2  0
  5 27  1  0
  6  7  1  0
  6 28  1  0
  8 25  1  0
  8  9  1  0
  9 10  1  0
  9 29  1  0
  9 30  1  0
 10 11  1  0
 10 31  1  0
 10 32  1  0
 11 12  1  0
 11 24  1  0
 11 49  1  0
 12 13  1  0
 12 33  1  0
 12 34  1  0
 13 14  1  0
 13 15  1  0
 13 35  1  1
 14 36  1  0
 15 16  1  0
 15 37  1  0
 15 38  1  0
 16 17  1  0
 17 18  1  0
 17 39  1  0
 17 40  1  0
 18 23  1  0
 18 19  2  0
 19 20  1  0
 19 41  1  0
 20 21  2  0
 20 42  1  0
 21 22  1  0
 22 23  2  0
 22 43  1  0
 23 44  1  0
 24 25  1  0
 24 45  1  0
 24 46  1  0
 25 47  1  0
 25 48  1  0
M  CHG  1  11   1
M  END
>  <i_m_ct_stereo_status>  (295) 
1

>  <s_m_source_file>  (295) 
/var/tmp/pbs.5076255.sched01/tmpagfdxo7m/88tnrj_5ym.sdf

>  <i_m_source_file_index>  (295) 
34

>  <i_lp_mmshare_version>  (295) 
48012

>  <i_f3d_flags>  (295) 
0

>  <s_epik_input>  (295) 
bzFbY0hdW2NIXVtjSF1jMUMoPU8pTjJbQ0gyXVtDSDJdTihbQ0gyXVtDSDJdMilbQ0gyXVtDQEhdKFtPSF0pW0NIMl1PW0NIMl1jM1tjSF1bY0hdbltjSF1bY0hdMw==

>  <s_epik_cmdline>  (295) 
J2VwaWtfcHl0aG9uJywgJy1waHQnLCAnMi4wJywgJy1waCcsICc3LjAnLCAnLXRuJywgJzgnLCAnLW1hJywgJzIwMCcsICctaW1hZScsICc8aW5maWxlLm1hZT4nLCAnLW9tYWUnLCAnPG91dGZpbGUubWFlPic=

>  <r_lp_tautomer_probability>  (295) 
1

>  <r_epik_Ionization_Penalty>  (295) 
0.00640083

>  <r_epik_Ionization_Penalty_Charging>  (295) 
0.00226384

>  <r_epik_Ionization_Penalty_Neutral>  (295) 
0.00413699

>  <r_epik_State_Penalty>  (295) 
-0

>  <r_epik_Charging_Adjusted_Penalty>  (295) 
0.00226384

>  <i_epik_Tot_Q>  (295) 
1

>  <i_epik_Tot_abs_Q>  (295) 
1

>  <s_lp_Force_Field>  (295) 
OPLS3e

>  <r_lp_Energy>  (295) 
40.1651

>  <b_lp_Chiralities_Consistent>  (295) 
1

>  <s_lp_Variant>  (295) 
87:0-1

>  <s_i_glide_gridfile>  (295) 
pfpi4k_grid

>  <i_i_glide_lignum>  (295) 
34

>  <i_i_glide_rotatable_bonds>  (295) 
9

>  <r_i_docking_score>  (295) 
-3.47012

>  <r_i_glide_ligand_efficiency>  (295) 
-0.138805

>  <r_i_glide_ligand_efficiency_sa>  (295) 
-0.405868

>  <r_i_glide_ligand_efficiency_ln>  (295) 
-0.822523

>  <r_i_glide_gscore>  (295) 
-3.47012

>  <r_i_glide_lipo>  (295) 
-0.453444

>  <r_i_glide_hbond>  (295) 
-0.48

>  <r_i_glide_metal>  (295) 
-0

>  <r_i_glide_rewards>  (295) 
-1.04727

>  <r_i_glide_evdw>  (295) 
-25.3187

>  <r_i_glide_ecoul>  (295) 
-8.31681

>  <r_i_glide_erotb>  (295) 
1.10907

>  <r_i_glide_esite>  (295) 
-0.0850268

>  <r_i_glide_emodel>  (295) 
-38.3625

>  <r_i_glide_energy>  (295) 
-33.6356

>  <r_i_glide_einternal>  (295) 
5.31305

>  <r_i_glide_intrahb_reward>  (295) 
-0

>  <i_i_glide_confnum>  (295) 
5

>  <i_i_glide_posenum>  (295) 
5

>  <r_i_glide_eff_state_penalty>  (295) 
0

>  <ligand_id>  (295) 
87

>  <original_smiles>  (295) 
O=C(c1ccco1)N1CCN(CC(O)COCc2ccncc2)CC1

>  <smiles>  (295) 
[H]OC([H])(C([H])([H])OC([H])([H])c1c([H])c([H])nc([H])c1[H])C([H])([H])[N+]1([H])C([H])([H])C([H])([H])N(C(=O)c2oc([H])c([H])c2[H])C([H])([H])C1([H])[H]

$$$$
87:0:2
     RDKit          3D

 49 51  0  0  1  0  0  0  0  0999 V2000
    5.7112   -3.8696   -1.3001 O   0  0  0  0  0  0  0  0  0  0  0  0
    5.2506   -2.7433   -1.1268 C   0  0  0  0  0  0  0  0  0  0  0  0
    4.3719   -2.1700   -2.1907 C   0  0  0  0  0  0  0  0  0  0  0  0
    4.2539   -0.9147   -2.7267 C   0  0  0  0  0  0  0  0  0  0  0  0
    3.1931   -0.9605   -3.6730 C   0  0  0  0  0  0  0  0  0  0  0  0
    2.7809   -2.2653   -3.7146 C   0  0  0  0  0  0  0  0  0  0  0  0
    3.4938   -3.0048   -2.8237 O   0  0  0  0  0  0  0  0  0  0  0  0
    5.4137   -2.0864    0.0453 N   0  0  0  0  0  0  0  0  0  0  0  0
    5.8765   -2.7935    1.2701 C   0  0  0  0  0  0  0  0  0  0  0  0
    4.9260   -2.4767    2.4477 C   0  0  0  0  0  0  0  0  0  0  0  0
    4.7534   -1.0203    2.6451 N   0  0  0  0  0  0  0  0  0  0  0  0
    3.8681   -0.7001    3.7863 C   0  0  0  0  0  0  0  0  0  0  0  0
    4.1914    0.6763    4.4042 C   0  0  2  0  0  0  0  0  0  0  0  0
    5.4756    0.5986    4.9956 O   0  0  0  0  0  0  0  0  0  0  0  0
    3.1322    1.0882    5.4384 C   0  0  0  0  0  0  0  0  0  0  0  0
    2.0198    1.6237    4.7374 O   0  0  0  0  0  0  0  0  0  0  0  0
    0.9522    2.0131    5.5876 C   0  0  0  0  0  0  0  0  0  0  0  0
   -0.0303    2.8943    4.8441 C   0  0  0  0  0  0  0  0  0  0  0  0
   -1.3473    2.4617    4.5889 C   0  0  0  0  0  0  0  0  0  0  0  0
   -2.2047    3.3218    3.8778 C   0  0  0  0  0  0  0  0  0  0  0  0
   -1.8350    4.5379    3.4504 N   0  0  0  0  0  0  0  0  0  0  0  0
   -0.5637    4.9417    3.6768 C   0  0  0  0  0  0  0  0  0  0  0  0
    0.3682    4.1631    4.3895 C   0  0  0  0  0  0  0  0  0  0  0  0
    4.2800   -0.3771    1.4042 C   0  0  0  0  0  0  0  0  0  0  0  0
    5.2264   -0.6289    0.2171 C   0  0  0  0  0  0  0  0  0  0  0  0
    4.8261   -0.0436   -2.4395 H   0  0  0  0  0  0  0  0  0  0  0  0
    2.7796   -0.1372   -4.2527 H   0  0  0  0  0  0  0  0  0  0  0  0
    2.0307   -2.8095   -4.2942 H   0  0  0  0  0  0  0  0  0  0  0  0
    5.9259   -3.8804    1.1449 H   0  0  0  0  0  0  0  0  0  0  0  0
    6.8920   -2.4732    1.5058 H   0  0  0  0  0  0  0  0  0  0  0  0
    3.9485   -2.9161    2.2448 H   0  0  0  0  0  0  0  0  0  0  0  0
    5.3092   -2.9454    3.3659 H   0  0  0  0  0  0  0  0  0  0  0  0
    2.8279   -0.7253    3.4587 H   0  0  0  0  0  0  0  0  0  0  0  0
    3.9589   -1.4631    4.5726 H   0  0  0  0  0  0  0  0  0  0  0  0
    4.2262    1.4591    3.6460 H   0  0  0  0  0  0  0  0  0  0  0  0
    5.4268    0.0385    5.7568 H   0  0  0  0  0  0  0  0  0  0  0  0
    2.8306    0.2347    6.0549 H   0  0  0  0  0  0  0  0  0  0  0  0
    3.5277    1.8592    6.0962 H   0  0  0  0  0  0  0  0  0  0  0  0
    0.4518    1.1229    5.9681 H   0  0  0  0  0  0  0  0  0  0  0  0
    1.3195    2.5747    6.4479 H   0  0  0  0  0  0  0  0  0  0  0  0
   -1.6973    1.4932    4.9105 H   0  0  0  0  0  0  0  0  0  0  0  0
   -3.2180    3.0233    3.6536 H   0  0  0  0  0  0  0  0  0  0  0  0
   -0.2910    5.9164    3.3033 H   0  0  0  0  0  0  0  0  0  0  0  0
    1.3705    4.5261    4.5497 H   0  0  0  0  0  0  0  0  0  0  0  0
    3.2991   -0.7632    1.1370 H   0  0  0  0  0  0  0  0  0  0  0  0
    4.1686    0.7004    1.5129 H   0  0  0  0  0  0  0  0  0  0  0  0
    6.2173   -0.1864    0.4254 H   0  0  0  0  0  0  0  0  0  0  0  0
    4.7416   -0.1243   -0.5880 H   0  0  0  0  0  0  0  0  0  0  0  0
    5.6626   -0.6350    2.8502 H   0  0  0  0  0  0  0  0  0  0  0  0
  1  2  2  0
  2  3  1  0
  2  8  1  0
  3  7  1  0
  3  4  2  0
  4  5  1  0
  4 26  1  0
  5  6  2  0
  5 27  1  0
  6  7  1  0
  6 28  1  0
  8 25  1  0
  8  9  1  0
  9 10  1  0
  9 29  1  0
  9 30  1  0
 10 11  1  0
 10 31  1  0
 10 32  1  0
 11 12  1  0
 11 24  1  0
 11 49  1  0
 12 13  1  0
 12 33  1  0
 12 34  1  0
 13 14  1  0
 13 15  1  0
 13 35  1  6
 14 36  1  0
 15 16  1  0
 15 37  1  0
 15 38  1  0
 16 17  1  0
 17 18  1  0
 17 39  1  0
 17 40  1  0
 18 23  1  0
 18 19  2  0
 19 20  1  0
 19 41  1  0
 20 21  2  0
 20 42  1  0
 21 22  1  0
 22 23  2  0
 22 43  1  0
 23 44  1  0
 24 25  1  0
 24 45  1  0
 24 46  1  0
 25 47  1  0
 25 48  1  0
M  CHG  1  11   1
M  END
>  <i_m_ct_stereo_status>  (296) 
1

>  <s_m_source_file>  (296) 
/var/tmp/pbs.5076255.sched01/tmpagfdxo7m/88tnrj_5ym.sdf

>  <i_m_source_file_index>  (296) 
34

>  <i_lp_mmshare_version>  (296) 
48012

>  <i_f3d_flags>  (296) 
0

>  <s_epik_input>  (296) 
bzFbY0hdW2NIXVtjSF1jMUMoPU8pTjJbQ0gyXVtDSDJdTihbQ0gyXVtDSDJdMilbQ0gyXVtDQEhdKFtPSF0pW0NIMl1PW0NIMl1jM1tjSF1bY0hdbltjSF1bY0hdMw==

>  <s_epik_cmdline>  (296) 
J2VwaWtfcHl0aG9uJywgJy1waHQnLCAnMi4wJywgJy1waCcsICc3LjAnLCAnLXRuJywgJzgnLCAnLW1hJywgJzIwMCcsICctaW1hZScsICc8aW5maWxlLm1hZT4nLCAnLW9tYWUnLCAnPG91dGZpbGUubWFlPic=

>  <r_lp_tautomer_probability>  (296) 
1

>  <r_epik_Ionization_Penalty>  (296) 
0.00640083

>  <r_epik_Ionization_Penalty_Charging>  (296) 
0.00226384

>  <r_epik_Ionization_Penalty_Neutral>  (296) 
0.00413699

>  <r_epik_State_Penalty>  (296) 
-0

>  <r_epik_Charging_Adjusted_Penalty>  (296) 
0.00226384

>  <i_epik_Tot_Q>  (296) 
1

>  <i_epik_Tot_abs_Q>  (296) 
1

>  <s_lp_Force_Field>  (296) 
OPLS3e

>  <r_lp_Energy>  (296) 
40.1651

>  <b_lp_Chiralities_Consistent>  (296) 
1

>  <s_lp_Variant>  (296) 
87:0-1

>  <s_i_glide_gridfile>  (296) 
pfpi4k_grid

>  <i_i_glide_lignum>  (296) 
34

>  <i_i_glide_rotatable_bonds>  (296) 
9

>  <r_i_docking_score>  (296) 
-3.1428

>  <r_i_glide_ligand_efficiency>  (296) 
-0.125712

>  <r_i_glide_ligand_efficiency_sa>  (296) 
-0.367584

>  <r_i_glide_ligand_efficiency_ln>  (296) 
-0.744938

>  <r_i_glide_gscore>  (296) 
-3.1428

>  <r_i_glide_lipo>  (296) 
-0.86939

>  <r_i_glide_hbond>  (296) 
-0.16

>  <r_i_glide_metal>  (296) 
-0

>  <r_i_glide_rewards>  (296) 
-1.05401

>  <r_i_glide_evdw>  (296) 
-28.558

>  <r_i_glide_ecoul>  (296) 
-4.92112

>  <r_i_glide_erotb>  (296) 
1.10907

>  <r_i_glide_esite>  (296) 
-0.00240233

>  <r_i_glide_emodel>  (296) 
-39.1568

>  <r_i_glide_energy>  (296) 
-33.4791

>  <r_i_glide_einternal>  (296) 
3.58821

>  <r_i_glide_intrahb_reward>  (296) 
-0

>  <i_i_glide_confnum>  (296) 
5

>  <i_i_glide_posenum>  (296) 
4

>  <r_i_glide_eff_state_penalty>  (296) 
0

>  <ligand_id>  (296) 
87

>  <original_smiles>  (296) 
O=C(c1ccco1)N1CCN(CC(O)COCc2ccncc2)CC1

>  <smiles>  (296) 
[H]OC([H])(C([H])([H])OC([H])([H])c1c([H])c([H])nc([H])c1[H])C([H])([H])[N+]1([H])C([H])([H])C([H])([H])N(C(=O)c2oc([H])c([H])c2[H])C([H])([H])C1([H])[H]

$$$$
88:0:0
     RDKit          3D

 55 59  0  0  1  0  0  0  0  0999 V2000
    2.4081   -7.1077    4.7861 C   0  0  0  0  0  0  0  0  0  0  0  0
    3.1514   -7.3957    3.4507 C   0  0  1  0  0  0  0  0  0  0  0  0
    4.2526   -6.3253    3.2911 C   0  0  0  0  0  0  0  0  0  0  0  0
    5.0367   -6.1095    4.2140 O   0  0  0  0  0  0  0  0  0  0  0  0
    4.3039   -5.6624    2.1324 N   0  0  0  0  0  0  0  0  0  0  0  0
    5.2152   -4.5678    1.7897 C   0  0  2  0  0  0  0  0  0  0  0  0
    4.4977   -3.1894    1.8364 C   0  0  2  0  0  0  0  0  0  0  0  0
    3.3552   -3.1390    0.7932 C   0  0  0  0  0  0  0  0  0  0  0  0
    3.9442   -3.3672   -0.6169 C   0  0  1  0  0  0  0  0  0  0  0  0
    4.9685   -2.2567   -0.9359 C   0  0  0  0  0  0  0  0  0  0  0  0
    6.1034   -2.2879    0.1123 C   0  0  1  0  0  0  0  0  0  0  0  0
    5.5136   -2.0654    1.5200 C   0  0  0  0  0  0  0  0  0  0  0  0
    6.8153   -3.6559    0.0685 C   0  0  0  0  0  0  0  0  0  0  0  0
    5.7921   -4.7758    0.3694 C   0  0  2  0  0  0  0  0  0  0  0  0
    4.6489   -4.7385   -0.6740 C   0  0  0  0  0  0  0  0  0  0  0  0
    3.8334   -8.7910    3.5429 C   0  0  0  0  0  0  0  0  0  0  0  0
    3.1267   -9.6838    2.5291 C   0  0  0  0  0  0  0  0  0  0  0  0
    2.6330   -8.6919    1.4869 C   0  0  0  0  0  0  0  0  0  0  0  0
    2.2413   -7.4929    2.2616 N   0  0  0  0  0  0  0  0  0  0  0  0
    0.5542   -7.0813    2.2196 S   0  0  0  0  0  0  0  0  0  0  0  0
    0.3391   -5.8597    3.0364 O   0  0  0  0  0  0  0  0  0  0  0  0
    0.1431   -7.0059    0.8209 O   0  0  0  0  0  0  0  0  0  0  0  0
   -0.2671   -8.5003    3.0706 C   0  0  0  0  0  0  0  0  0  0  0  0
   -1.3587   -9.1495    2.2748 C   0  0  0  0  0  0  0  0  0  0  0  0
   -1.7086   -8.2533    3.4395 C   0  0  0  0  0  0  0  0  0  0  0  0
    3.0737   -7.2327    5.6430 H   0  0  0  0  0  0  0  0  0  0  0  0
    1.5743   -7.7836    4.9601 H   0  0  0  0  0  0  0  0  0  0  0  0
    2.0555   -6.0783    4.8577 H   0  0  0  0  0  0  0  0  0  0  0  0
    3.6174   -5.9243    1.4404 H   0  0  0  0  0  0  0  0  0  0  0  0
    6.0564   -4.5422    2.4870 H   0  0  0  0  0  0  0  0  0  0  0  0
    4.0894   -3.0241    2.8348 H   0  0  0  0  0  0  0  0  0  0  0  0
    2.5960   -3.8895    1.0146 H   0  0  0  0  0  0  0  0  0  0  0  0
    2.8442   -2.1765    0.8358 H   0  0  0  0  0  0  0  0  0  0  0  0
    3.1421   -3.3454   -1.3557 H   0  0  0  0  0  0  0  0  0  0  0  0
    5.3712   -2.3946   -1.9409 H   0  0  0  0  0  0  0  0  0  0  0  0
    4.4750   -1.2833   -0.9304 H   0  0  0  0  0  0  0  0  0  0  0  0
    6.8211   -1.4989   -0.1058 H   0  0  0  0  0  0  0  0  0  0  0  0
    5.0301   -1.0897    1.5739 H   0  0  0  0  0  0  0  0  0  0  0  0
    6.3083   -2.0512    2.2646 H   0  0  0  0  0  0  0  0  0  0  0  0
    7.2774   -3.8173   -0.9052 H   0  0  0  0  0  0  0  0  0  0  0  0
    7.6208   -3.6787    0.8043 H   0  0  0  0  0  0  0  0  0  0  0  0
    6.2989   -5.7418    0.3228 H   0  0  0  0  0  0  0  0  0  0  0  0
    3.9268   -5.5317   -0.4787 H   0  0  0  0  0  0  0  0  0  0  0  0
    5.0296   -4.9305   -1.6765 H   0  0  0  0  0  0  0  0  0  0  0  0
    4.8964   -8.7607    3.2884 H   0  0  0  0  0  0  0  0  0  0  0  0
    3.7739   -9.2250    4.5394 H   0  0  0  0  0  0  0  0  0  0  0  0
    3.7690  -10.4652    2.1141 H   0  0  0  0  0  0  0  0  0  0  0  0
    2.2739  -10.1767    2.9939 H   0  0  0  0  0  0  0  0  0  0  0  0
    3.4581   -8.4461    0.8133 H   0  0  0  0  0  0  0  0  0  0  0  0
    1.8150   -9.0960    0.8915 H   0  0  0  0  0  0  0  0  0  0  0  0
    0.3638   -9.0922    3.7222 H   0  0  0  0  0  0  0  0  0  0  0  0
   -1.5618   -8.7742    1.2774 H   0  0  0  0  0  0  0  0  0  0  0  0
   -1.4709  -10.2233    2.4007 H   0  0  0  0  0  0  0  0  0  0  0  0
   -2.0913   -8.7460    4.3324 H   0  0  0  0  0  0  0  0  0  0  0  0
   -2.1590   -7.2916    3.2077 H   0  0  0  0  0  0  0  0  0  0  0  0
  2  1  1  1
  1 26  1  0
  1 27  1  0
  1 28  1  0
  2 19  1  0
  2  3  1  0
  2 16  1  0
  3  4  2  0
  3  5  1  0
  5  6  1  0
  5 29  1  0
  6 14  1  0
  6  7  1  0
  6 30  1  1
  7 12  1  0
  7  8  1  0
  7 31  1  1
  8  9  1  0
  8 32  1  0
  8 33  1  0
  9 15  1  0
  9 10  1  0
  9 34  1  6
 10 11  1  0
 10 35  1  0
 10 36  1  0
 11 12  1  0
 11 13  1  0
 11 37  1  6
 12 38  1  0
 12 39  1  0
 13 14  1  0
 13 40  1  0
 13 41  1  0
 14 15  1  0
 14 42  1  1
 15 43  1  0
 15 44  1  0
 16 17  1  0
 16 45  1  0
 16 46  1  0
 17 18  1  0
 17 47  1  0
 17 48  1  0
 18 19  1  0
 18 49  1  0
 18 50  1  0
 19 20  1  0
 20 21  2  0
 20 22  2  0
 20 23  1  0
 23 25  1  0
 23 24  1  0
 23 51  1  0
 24 25  1  0
 24 52  1  0
 24 53  1  0
 25 54  1  0
 25 55  1  0
M  END
>  <i_m_ct_stereo_status>  (297) 
1

>  <s_m_source_file>  (297) 
/var/tmp/pbs.5076255.sched01/tmpagfdxo7m/88tnrj_5ym.sdf

>  <i_m_source_file_index>  (297) 
35

>  <i_lp_mmshare_version>  (297) 
48012

>  <i_f3d_flags>  (297) 
0

>  <s_epik_input>  (297) 
W0NIMl0xW0NIMl1bQ0hdMVMoPU8pKD1PKU4yW0NIMl1bQ0gyXVtDSDJdW0NAQF0yKFtDSDNdKUMoPU8pW05IXVtDQEhdKFtDQEBIXTM0KVtDQEhdNVtDSDJdW0NAQEhdKFtDSDJdNClbQ0gyXVtDQEBIXShbQ0gyXTMpW0NIMl01

>  <s_epik_cmdline>  (297) 
J2VwaWtfcHl0aG9uJywgJy1waHQnLCAnMi4wJywgJy1waCcsICc3LjAnLCAnLXRuJywgJzgnLCAnLW1hJywgJzIwMCcsICctaW1hZScsICc8aW5maWxlLm1hZT4nLCAnLW9tYWUnLCAnPG91dGZpbGUubWFlPic=

>  <r_lp_tautomer_probability>  (297) 
1

>  <r_epik_Ionization_Penalty>  (297) 
3.96922e-08

>  <r_epik_Ionization_Penalty_Charging>  (297) 
0

>  <r_epik_Ionization_Penalty_Neutral>  (297) 
3.96922e-08

>  <r_epik_State_Penalty>  (297) 
-0

>  <r_epik_Charging_Adjusted_Penalty>  (297) 
0

>  <i_epik_Tot_Q>  (297) 
0

>  <i_epik_Tot_abs_Q>  (297) 
0

>  <s_lp_Force_Field>  (297) 
OPLS3e

>  <r_lp_Energy>  (297) 
13.1307

>  <b_lp_Chiralities_Consistent>  (297) 
1

>  <s_lp_Variant>  (297) 
88:0-1

>  <s_i_glide_gridfile>  (297) 
pfpi4k_grid

>  <i_i_glide_lignum>  (297) 
35

>  <i_i_glide_rotatable_bonds>  (297) 
5

>  <r_i_docking_score>  (297) 
-2.64422

>  <r_i_glide_ligand_efficiency>  (297) 
-0.105769

>  <r_i_glide_ligand_efficiency_sa>  (297) 
-0.30927

>  <r_i_glide_ligand_efficiency_ln>  (297) 
-0.626759

>  <r_i_glide_gscore>  (297) 
-2.64422

>  <r_i_glide_lipo>  (297) 
-0.654784

>  <r_i_glide_hbond>  (297) 
0

>  <r_i_glide_metal>  (297) 
-0

>  <r_i_glide_rewards>  (297) 
-0.910097

>  <r_i_glide_evdw>  (297) 
-23.5403

>  <r_i_glide_ecoul>  (297) 
-2.50867

>  <r_i_glide_erotb>  (297) 
0.716424

>  <r_i_glide_esite>  (297) 
-0.242447

>  <r_i_glide_emodel>  (297) 
-30.2772

>  <r_i_glide_energy>  (297) 
-26.0489

>  <r_i_glide_einternal>  (297) 
1.18409

>  <r_i_glide_intrahb_reward>  (297) 
-0

>  <i_i_glide_confnum>  (297) 
2

>  <i_i_glide_posenum>  (297) 
9

>  <r_i_glide_eff_state_penalty>  (297) 
0

>  <ligand_id>  (297) 
88

>  <original_smiles>  (297) 
CC1(C(=O)NC2C3CC4CC(C3)CC2C4)CCCN1S(=O)(=O)C1CC1

>  <smiles>  (297) 
[H]N(C(=O)C1(C([H])([H])[H])N(S(=O)(=O)C2([H])C([H])([H])C2([H])[H])C([H])([H])C([H])([H])C1([H])[H])C1([H])C2([H])C([H])([H])C3([H])C([H])([H])C([H])(C2([H])[H])C([H])([H])C1([H])C3([H])[H]

$$$$
88:0:1
     RDKit          3D

 55 59  0  0  1  0  0  0  0  0999 V2000
    2.9184   -6.9456    4.4889 C   0  0  0  0  0  0  0  0  0  0  0  0
    3.4849   -7.3835    3.1095 C   0  0  1  0  0  0  0  0  0  0  0  0
    4.5914   -6.3771    2.6971 C   0  0  0  0  0  0  0  0  0  0  0  0
    5.5666   -6.2094    3.4253 O   0  0  0  0  0  0  0  0  0  0  0  0
    4.4287   -5.7193    1.5391 N   0  0  0  0  0  0  0  0  0  0  0  0
    5.3418   -4.7137    0.9974 C   0  0  2  0  0  0  0  0  0  0  0  0
    5.3120   -3.3841    1.8075 C   0  0  2  0  0  0  0  0  0  0  0  0
    3.9058   -2.7455    1.7422 C   0  0  0  0  0  0  0  0  0  0  0  0
    3.5476   -2.4570    0.2665 C   0  0  1  0  0  0  0  0  0  0  0  0
    4.5705   -1.4726   -0.3335 C   0  0  0  0  0  0  0  0  0  0  0  0
    5.9787   -2.0994   -0.2578 C   0  0  1  0  0  0  0  0  0  0  0  0
    6.3411   -2.3924    1.2125 C   0  0  0  0  0  0  0  0  0  0  0  0
    6.0128   -3.4165   -1.0596 C   0  0  0  0  0  0  0  0  0  0  0  0
    4.9735   -4.4027   -0.4728 C   0  0  2  0  0  0  0  0  0  0  0  0
    3.5596   -3.7725   -0.5427 C   0  0  0  0  0  0  0  0  0  0  0  0
    4.1446   -8.7869    3.2468 C   0  0  0  0  0  0  0  0  0  0  0  0
    3.3001   -9.7332    2.4164 C   0  0  0  0  0  0  0  0  0  0  0  0
    2.7130   -8.8230    1.3458 C   0  0  0  0  0  0  0  0  0  0  0  0
    2.4433   -7.5654    2.0391 N   0  0  0  0  0  0  0  0  0  0  0  0
    0.7652   -7.0722    2.1731 S   0  0  0  0  0  0  0  0  0  0  0  0
    0.6649   -5.7987    2.9411 O   0  0  0  0  0  0  0  0  0  0  0  0
    0.1897   -7.0705    0.8163 O   0  0  0  0  0  0  0  0  0  0  0  0
    0.0031   -8.4374    3.1804 C   0  0  0  0  0  0  0  0  0  0  0  0
   -1.1211   -9.1550    2.4948 C   0  0  0  0  0  0  0  0  0  0  0  0
   -1.4089   -8.1708    3.6156 C   0  0  0  0  0  0  0  0  0  0  0  0
    3.6829   -7.0236    5.2645 H   0  0  0  0  0  0  0  0  0  0  0  0
    2.0999   -7.5827    4.8041 H   0  0  0  0  0  0  0  0  0  0  0  0
    2.5959   -5.9120    4.4900 H   0  0  0  0  0  0  0  0  0  0  0  0
    3.5769   -5.9108    1.0340 H   0  0  0  0  0  0  0  0  0  0  0  0
    6.3523   -5.1269    1.0244 H   0  0  0  0  0  0  0  0  0  0  0  0
    5.5791   -3.5663    2.8480 H   0  0  0  0  0  0  0  0  0  0  0  0
    3.1623   -3.4047    2.1903 H   0  0  0  0  0  0  0  0  0  0  0  0
    3.8795   -1.8232    2.3239 H   0  0  0  0  0  0  0  0  0  0  0  0
    2.5563   -2.0124    0.2195 H   0  0  0  0  0  0  0  0  0  0  0  0
    4.3082   -1.2402   -1.3660 H   0  0  0  0  0  0  0  0  0  0  0  0
    4.5456   -0.5283    0.2096 H   0  0  0  0  0  0  0  0  0  0  0  0
    6.7033   -1.4060   -0.6743 H   0  0  0  0  0  0  0  0  0  0  0  0
    6.3548   -1.4660    1.7881 H   0  0  0  0  0  0  0  0  0  0  0  0
    7.3476   -2.8072    1.2754 H   0  0  0  0  0  0  0  0  0  0  0  0
    5.8057   -3.2288   -2.1149 H   0  0  0  0  0  0  0  0  0  0  0  0
    7.0119   -3.8480   -1.0100 H   0  0  0  0  0  0  0  0  0  0  0  0
    4.9920   -5.3216   -1.0598 H   0  0  0  0  0  0  0  0  0  0  0  0
    2.8110   -4.4578   -0.1485 H   0  0  0  0  0  0  0  0  0  0  0  0
    3.2719   -3.5881   -1.5785 H   0  0  0  0  0  0  0  0  0  0  0  0
    5.1702   -8.8182    2.8606 H   0  0  0  0  0  0  0  0  0  0  0  0
    4.2027   -9.1236    4.2755 H   0  0  0  0  0  0  0  0  0  0  0  0
    3.8786  -10.5826    2.0213 H   0  0  0  0  0  0  0  0  0  0  0  0
    2.4998  -10.1579    3.0197 H   0  0  0  0  0  0  0  0  0  0  0  0
    3.4501   -8.6798    0.5620 H   0  0  0  0  0  0  0  0  0  0  0  0
    1.8252   -9.2614    0.9023 H   0  0  0  0  0  0  0  0  0  0  0  0
    0.6890   -8.9679    3.8437 H   0  0  0  0  0  0  0  0  0  0  0  0
   -1.3963   -8.8584    1.4883 H   0  0  0  0  0  0  0  0  0  0  0  0
   -1.2316  -10.2070    2.7187 H   0  0  0  0  0  0  0  0  0  0  0  0
   -1.7360   -8.6010    4.5545 H   0  0  0  0  0  0  0  0  0  0  0  0
   -1.8746   -7.2286    3.3383 H   0  0  0  0  0  0  0  0  0  0  0  0
  2  1  1  1
  1 26  1  0
  1 27  1  0
  1 28  1  0
  2 19  1  0
  2  3  1  0
  2 16  1  0
  3  4  2  0
  3  5  1  0
  5  6  1  0
  5 29  1  0
  6 14  1  0
  6  7  1  0
  6 30  1  6
  7 12  1  0
  7  8  1  0
  7 31  1  1
  8  9  1  0
  8 32  1  0
  8 33  1  0
  9 15  1  0
  9 10  1  0
  9 34  1  1
 10 11  1  0
 10 35  1  0
 10 36  1  0
 11 12  1  0
 11 13  1  0
 11 37  1  6
 12 38  1  0
 12 39  1  0
 13 14  1  0
 13 40  1  0
 13 41  1  0
 14 15  1  0
 14 42  1  6
 15 43  1  0
 15 44  1  0
 16 17  1  0
 16 45  1  0
 16 46  1  0
 17 18  1  0
 17 47  1  0
 17 48  1  0
 18 19  1  0
 18 49  1  0
 18 50  1  0
 19 20  1  0
 20 21  2  0
 20 22  2  0
 20 23  1  0
 23 25  1  0
 23 24  1  0
 23 51  1  0
 24 25  1  0
 24 52  1  0
 24 53  1  0
 25 54  1  0
 25 55  1  0
M  END
>  <i_m_ct_stereo_status>  (298) 
1

>  <s_m_source_file>  (298) 
/var/tmp/pbs.5076255.sched01/tmpagfdxo7m/88tnrj_5ym.sdf

>  <i_m_source_file_index>  (298) 
35

>  <i_lp_mmshare_version>  (298) 
48012

>  <i_f3d_flags>  (298) 
0

>  <s_epik_input>  (298) 
W0NIMl0xW0NIMl1bQ0hdMVMoPU8pKD1PKU4yW0NIMl1bQ0gyXVtDSDJdW0NAQF0yKFtDSDNdKUMoPU8pW05IXVtDQEhdKFtDQEBIXTM0KVtDQEhdNVtDSDJdW0NAQEhdKFtDSDJdNClbQ0gyXVtDQEBIXShbQ0gyXTMpW0NIMl01

>  <s_epik_cmdline>  (298) 
J2VwaWtfcHl0aG9uJywgJy1waHQnLCAnMi4wJywgJy1waCcsICc3LjAnLCAnLXRuJywgJzgnLCAnLW1hJywgJzIwMCcsICctaW1hZScsICc8aW5maWxlLm1hZT4nLCAnLW9tYWUnLCAnPG91dGZpbGUubWFlPic=

>  <r_lp_tautomer_probability>  (298) 
1

>  <r_epik_Ionization_Penalty>  (298) 
3.96922e-08

>  <r_epik_Ionization_Penalty_Charging>  (298) 
0

>  <r_epik_Ionization_Penalty_Neutral>  (298) 
3.96922e-08

>  <r_epik_State_Penalty>  (298) 
-0

>  <r_epik_Charging_Adjusted_Penalty>  (298) 
0

>  <i_epik_Tot_Q>  (298) 
0

>  <i_epik_Tot_abs_Q>  (298) 
0

>  <s_lp_Force_Field>  (298) 
OPLS3e

>  <r_lp_Energy>  (298) 
13.1307

>  <b_lp_Chiralities_Consistent>  (298) 
1

>  <s_lp_Variant>  (298) 
88:0-1

>  <s_i_glide_gridfile>  (298) 
pfpi4k_grid

>  <i_i_glide_lignum>  (298) 
35

>  <i_i_glide_rotatable_bonds>  (298) 
5

>  <r_i_docking_score>  (298) 
-2.43503

>  <r_i_glide_ligand_efficiency>  (298) 
-0.0974014

>  <r_i_glide_ligand_efficiency_sa>  (298) 
-0.284803

>  <r_i_glide_ligand_efficiency_ln>  (298) 
-0.577176

>  <r_i_glide_gscore>  (298) 
-2.43503

>  <r_i_glide_lipo>  (298) 
-0.512222

>  <r_i_glide_hbond>  (298) 
0

>  <r_i_glide_metal>  (298) 
-0

>  <r_i_glide_rewards>  (298) 
-0.910097

>  <r_i_glide_evdw>  (298) 
-24.5414

>  <r_i_glide_ecoul>  (298) 
-1.86401

>  <r_i_glide_erotb>  (298) 
0.716424

>  <r_i_glide_esite>  (298) 
-0.222469

>  <r_i_glide_emodel>  (298) 
-30.3643

>  <r_i_glide_energy>  (298) 
-26.4054

>  <r_i_glide_einternal>  (298) 
0.914124

>  <r_i_glide_intrahb_reward>  (298) 
-0

>  <i_i_glide_confnum>  (298) 
2

>  <i_i_glide_posenum>  (298) 
10

>  <r_i_glide_eff_state_penalty>  (298) 
0

>  <ligand_id>  (298) 
88

>  <original_smiles>  (298) 
CC1(C(=O)NC2C3CC4CC(C3)CC2C4)CCCN1S(=O)(=O)C1CC1

>  <smiles>  (298) 
[H]N(C(=O)C1(C([H])([H])[H])N(S(=O)(=O)C2([H])C([H])([H])C2([H])[H])C([H])([H])C([H])([H])C1([H])[H])C1([H])C2([H])C([H])([H])C3([H])C([H])([H])C([H])(C2([H])[H])C([H])([H])C1([H])C3([H])[H]

$$$$
88:0:2
     RDKit          3D

 55 59  0  0  1  0  0  0  0  0999 V2000
    5.4104   -6.6292    4.0574 C   0  0  0  0  0  0  0  0  0  0  0  0
    5.5497   -7.1645    2.6169 C   0  0  1  0  0  0  0  0  0  0  0  0
    6.2577   -6.0775    1.7680 C   0  0  0  0  0  0  0  0  0  0  0  0
    7.4249   -5.7721    1.9857 O   0  0  0  0  0  0  0  0  0  0  0  0
    5.5161   -5.4735    0.8289 N   0  0  0  0  0  0  0  0  0  0  0  0
    5.9321   -4.3290    0.0244 C   0  0  2  0  0  0  0  0  0  0  0  0
    5.9249   -2.9967    0.8276 C   0  0  2  0  0  0  0  0  0  0  0  0
    4.4916   -2.6643    1.3037 C   0  0  0  0  0  0  0  0  0  0  0  0
    3.5636   -2.5263    0.0740 C   0  0  1  0  0  0  0  0  0  0  0  0
    4.0717   -1.3863   -0.8284 C   0  0  0  0  0  0  0  0  0  0  0  0
    5.5055   -1.7038   -1.2993 C   0  0  1  0  0  0  0  0  0  0  0  0
    6.4372   -1.8468   -0.0754 C   0  0  0  0  0  0  0  0  0  0  0  0
    5.5213   -3.0217   -2.0982 C   0  0  0  0  0  0  0  0  0  0  0  0
    5.0000   -4.1693   -1.2018 C   0  0  2  0  0  0  0  0  0  0  0  0
    3.5568   -3.8461   -0.7293 C   0  0  0  0  0  0  0  0  0  0  0  0
    6.4159   -8.4423    2.6309 C   0  0  0  0  0  0  0  0  0  0  0  0
    6.0551   -9.1515    1.3383 C   0  0  0  0  0  0  0  0  0  0  0  0
    4.5941   -8.7449    1.0714 C   0  0  0  0  0  0  0  0  0  0  0  0
    4.2677   -7.6335    1.9929 N   0  0  0  0  0  0  0  0  0  0  0  0
    2.7678   -7.7453    2.8748 S   0  0  0  0  0  0  0  0  0  0  0  0
    2.7800   -9.0345    3.6026 O   0  0  0  0  0  0  0  0  0  0  0  0
    2.5217   -6.4995    3.6138 O   0  0  0  0  0  0  0  0  0  0  0  0
    1.4809   -7.8374    1.5576 C   0  0  0  0  0  0  0  0  0  0  0  0
    0.9737   -6.4910    1.1118 C   0  0  0  0  0  0  0  0  0  0  0  0
    0.1183   -7.3577    2.0033 C   0  0  0  0  0  0  0  0  0  0  0  0
    6.3915   -6.4466    4.4980 H   0  0  0  0  0  0  0  0  0  0  0  0
    4.9071   -7.3391    4.7150 H   0  0  0  0  0  0  0  0  0  0  0  0
    4.8737   -5.6842    4.0829 H   0  0  0  0  0  0  0  0  0  0  0  0
    4.5601   -5.7858    0.7638 H   0  0  0  0  0  0  0  0  0  0  0  0
    6.9495   -4.5118   -0.3273 H   0  0  0  0  0  0  0  0  0  0  0  0
    6.5875   -3.0824    1.6888 H   0  0  0  0  0  0  0  0  0  0  0  0
    4.1165   -3.4350    1.9766 H   0  0  0  0  0  0  0  0  0  0  0  0
    4.4939   -1.7385    1.8778 H   0  0  0  0  0  0  0  0  0  0  0  0
    2.5488   -2.2941    0.3987 H   0  0  0  0  0  0  0  0  0  0  0  0
    3.4070   -1.2604   -1.6851 H   0  0  0  0  0  0  0  0  0  0  0  0
    4.0584   -0.4412   -0.2859 H   0  0  0  0  0  0  0  0  0  0  0  0
    5.8242   -0.8871   -1.9392 H   0  0  0  0  0  0  0  0  0  0  0  0
    6.4659   -0.9152    0.4871 H   0  0  0  0  0  0  0  0  0  0  0  0
    7.4616   -2.0474   -0.3879 H   0  0  0  0  0  0  0  0  0  0  0  0
    4.8969   -2.9376   -2.9879 H   0  0  0  0  0  0  0  0  0  0  0  0
    6.5305   -3.2462   -2.4429 H   0  0  0  0  0  0  0  0  0  0  0  0
    5.0104   -5.0916   -1.7843 H   0  0  0  0  0  0  0  0  0  0  0  0
    3.1574   -4.6508   -0.1153 H   0  0  0  0  0  0  0  0  0  0  0  0
    2.8875   -3.7606   -1.5867 H   0  0  0  0  0  0  0  0  0  0  0  0
    7.4871   -8.2505    2.7010 H   0  0  0  0  0  0  0  0  0  0  0  0
    6.1459   -9.0719    3.4779 H   0  0  0  0  0  0  0  0  0  0  0  0
    6.7182   -8.8129    0.5355 H   0  0  0  0  0  0  0  0  0  0  0  0
    6.1883  -10.2361    1.4118 H   0  0  0  0  0  0  0  0  0  0  0  0
    4.4768   -8.4137    0.0433 H   0  0  0  0  0  0  0  0  0  0  0  0
    3.9313   -9.5941    1.2356 H   0  0  0  0  0  0  0  0  0  0  0  0
    1.5833   -8.6917    0.8802 H   0  0  0  0  0  0  0  0  0  0  0  0
    1.4138   -5.6020    1.5589 H   0  0  0  0  0  0  0  0  0  0  0  0
    0.6764   -6.3938    0.0748 H   0  0  0  0  0  0  0  0  0  0  0  0
   -0.7538   -7.8202    1.5488 H   0  0  0  0  0  0  0  0  0  0  0  0
   -0.0146   -7.0242    3.0334 H   0  0  0  0  0  0  0  0  0  0  0  0
  2  1  1  1
  1 26  1  0
  1 27  1  0
  1 28  1  0
  2 19  1  0
  2  3  1  0
  2 16  1  0
  3  4  2  0
  3  5  1  0
  5  6  1  0
  5 29  1  0
  6 14  1  0
  6  7  1  0
  6 30  1  6
  7 12  1  0
  7  8  1  0
  7 31  1  1
  8  9  1  0
  8 32  1  0
  8 33  1  0
  9 15  1  0
  9 10  1  0
  9 34  1  1
 10 11  1  0
 10 35  1  0
 10 36  1  0
 11 12  1  0
 11 13  1  0
 11 37  1  6
 12 38  1  0
 12 39  1  0
 13 14  1  0
 13 40  1  0
 13 41  1  0
 14 15  1  0
 14 42  1  6
 15 43  1  0
 15 44  1  0
 16 17  1  0
 16 45  1  0
 16 46  1  0
 17 18  1  0
 17 47  1  0
 17 48  1  0
 18 19  1  0
 18 49  1  0
 18 50  1  0
 19 20  1  0
 20 21  2  0
 20 22  2  0
 20 23  1  0
 23 25  1  0
 23 24  1  0
 23 51  1  0
 24 25  1  0
 24 52  1  0
 24 53  1  0
 25 54  1  0
 25 55  1  0
M  END
>  <i_m_ct_stereo_status>  (299) 
1

>  <s_m_source_file>  (299) 
/var/tmp/pbs.5076255.sched01/tmpagfdxo7m/88tnrj_5ym.sdf

>  <i_m_source_file_index>  (299) 
35

>  <i_lp_mmshare_version>  (299) 
48012

>  <i_f3d_flags>  (299) 
0

>  <s_epik_input>  (299) 
W0NIMl0xW0NIMl1bQ0hdMVMoPU8pKD1PKU4yW0NIMl1bQ0gyXVtDSDJdW0NAQF0yKFtDSDNdKUMoPU8pW05IXVtDQEhdKFtDQEBIXTM0KVtDQEhdNVtDSDJdW0NAQEhdKFtDSDJdNClbQ0gyXVtDQEBIXShbQ0gyXTMpW0NIMl01

>  <s_epik_cmdline>  (299) 
J2VwaWtfcHl0aG9uJywgJy1waHQnLCAnMi4wJywgJy1waCcsICc3LjAnLCAnLXRuJywgJzgnLCAnLW1hJywgJzIwMCcsICctaW1hZScsICc8aW5maWxlLm1hZT4nLCAnLW9tYWUnLCAnPG91dGZpbGUubWFlPic=

>  <r_lp_tautomer_probability>  (299) 
1

>  <r_epik_Ionization_Penalty>  (299) 
3.96922e-08

>  <r_epik_Ionization_Penalty_Charging>  (299) 
0

>  <r_epik_Ionization_Penalty_Neutral>  (299) 
3.96922e-08

>  <r_epik_State_Penalty>  (299) 
-0

>  <r_epik_Charging_Adjusted_Penalty>  (299) 
0

>  <i_epik_Tot_Q>  (299) 
0

>  <i_epik_Tot_abs_Q>  (299) 
0

>  <s_lp_Force_Field>  (299) 
OPLS3e

>  <r_lp_Energy>  (299) 
13.1307

>  <b_lp_Chiralities_Consistent>  (299) 
1

>  <s_lp_Variant>  (299) 
88:0-1

>  <s_i_glide_gridfile>  (299) 
pfpi4k_grid

>  <i_i_glide_lignum>  (299) 
35

>  <i_i_glide_rotatable_bonds>  (299) 
5

>  <r_i_docking_score>  (299) 
-1.93363

>  <r_i_glide_ligand_efficiency>  (299) 
-0.0773453

>  <r_i_glide_ligand_efficiency_sa>  (299) 
-0.226159

>  <r_i_glide_ligand_efficiency_ln>  (299) 
-0.458329

>  <r_i_glide_gscore>  (299) 
-1.93363

>  <r_i_glide_lipo>  (299) 
-0.416985

>  <r_i_glide_hbond>  (299) 
0

>  <r_i_glide_metal>  (299) 
-0

>  <r_i_glide_rewards>  (299) 
-1.02524

>  <r_i_glide_evdw>  (299) 
-25.0373

>  <r_i_glide_ecoul>  (299) 
0.367627

>  <r_i_glide_erotb>  (299) 
0.716424

>  <r_i_glide_esite>  (299) 
-0.0111096

>  <r_i_glide_emodel>  (299) 
-26.7195

>  <r_i_glide_energy>  (299) 
-24.6697

>  <r_i_glide_einternal>  (299) 
2.74972

>  <r_i_glide_intrahb_reward>  (299) 
-0

>  <i_i_glide_confnum>  (299) 
3

>  <i_i_glide_posenum>  (299) 
11

>  <r_i_glide_eff_state_penalty>  (299) 
0

>  <ligand_id>  (299) 
88

>  <original_smiles>  (299) 
CC1(C(=O)NC2C3CC4CC(C3)CC2C4)CCCN1S(=O)(=O)C1CC1

>  <smiles>  (299) 
[H]N(C(=O)C1(C([H])([H])[H])N(S(=O)(=O)C2([H])C([H])([H])C2([H])[H])C([H])([H])C([H])([H])C1([H])[H])C1([H])C2([H])C([H])([H])C3([H])C([H])([H])C([H])(C2([H])[H])C([H])([H])C1([H])C3([H])[H]

$$$$
90:0:0
     RDKit          3D

 28 32  0  0  1  0  0  0  0  0999 V2000
    5.4218   -3.4042   -2.7920 C   0  0  0  0  0  0  0  0  0  0  0  0
    5.3742   -4.1097   -1.4331 C   0  0  0  0  0  0  0  0  0  0  0  0
    4.5488   -3.3142   -0.4085 C   0  0  1  0  0  0  0  0  0  0  0  0
    3.1697   -4.0597   -0.2827 C   0  0  0  0  0  0  0  0  0  0  0  0
    2.2427   -3.4949   -1.4520 C   0  0  0  0  0  0  0  0  0  0  0  0
    3.1686   -2.5225   -2.0734 N   0  0  1  0  0  0  0  0  0  0  0  0
    4.0446   -2.8831   -3.2161 C   0  0  1  0  0  0  0  0  0  0  0  0
    3.9193   -1.4139   -3.6528 C   0  0  0  0  0  0  0  0  0  0  0  0
    3.3919   -1.0898   -2.2518 C   0  0  2  0  0  0  0  0  0  0  0  0
    4.4570   -1.0087   -1.0572 C   0  0  1  0  0  0  0  0  0  0  0  0
    5.2668   -1.9530   -0.0766 C   0  0  0  0  0  0  0  0  0  0  0  0
    3.6471   -2.1728   -0.7677 C   0  0  2  0  0  0  0  0  0  0  0  0
    5.8192   -4.0756   -3.5548 H   0  0  0  0  0  0  0  0  0  0  0  0
    6.1308   -2.5717   -2.7003 H   0  0  0  0  0  0  0  0  0  0  0  0
    5.0016   -5.1235   -1.5736 H   0  0  0  0  0  0  0  0  0  0  0  0
    6.3869   -4.2296   -1.0474 H   0  0  0  0  0  0  0  0  0  0  0  0
    3.2692   -5.1334   -0.3894 H   0  0  0  0  0  0  0  0  0  0  0  0
    2.7228   -3.9155    0.6963 H   0  0  0  0  0  0  0  0  0  0  0  0
    1.9246   -4.2369   -2.1612 H   0  0  0  0  0  0  0  0  0  0  0  0
    1.3246   -3.0723   -1.0365 H   0  0  0  0  0  0  0  0  0  0  0  0
    3.4829   -3.5578   -3.8809 H   0  0  0  0  0  0  0  0  0  0  0  0
    4.8940   -0.9259   -3.8406 H   0  0  0  0  0  0  0  0  0  0  0  0
    3.1657   -1.2626   -4.4327 H   0  0  0  0  0  0  0  0  0  0  0  0
    2.4856   -0.4864   -2.2071 H   0  0  0  0  0  0  0  0  0  0  0  0
    4.1924   -0.1481   -0.4362 H   0  0  0  0  0  0  0  0  0  0  0  0
    5.2118   -1.6460    0.9750 H   0  0  0  0  0  0  0  0  0  0  0  0
    6.3258   -1.9603   -0.3741 H   0  0  0  0  0  0  0  0  0  0  0  0
    2.9040   -1.7812   -0.0323 H   0  0  0  0  0  0  0  0  0  0  0  0
  1  7  1  0
  1  2  1  0
  1 13  1  0
  1 14  1  0
  3  2  1  6
  2 15  1  0
  2 16  1  0
  3 11  1  0
  3 12  1  0
  3  4  1  0
  4  5  1  0
  4 17  1  0
  4 18  1  0
  6  5  1  1
  5 19  1  0
  5 20  1  0
  6  9  1  0
  6 12  1  0
  6  7  1  0
  7  8  1  0
  7 21  1  6
  8  9  1  0
  8 22  1  0
  8 23  1  0
  9 10  1  0
  9 24  1  6
 10 11  1  0
 10 12  1  0
 10 25  1  1
 11 26  1  0
 11 27  1  0
 12 28  1  1
M  CHG  1   6   1
M  END
>  <i_m_ct_stereo_status>  (300) 
1

>  <s_m_source_file>  (300) 
/var/tmp/pbs.5076255.sched01/tmpagfdxo7m/88tnrj_5ym.sdf

>  <i_m_source_file_index>  (300) 
37

>  <i_lp_mmshare_version>  (300) 
48012

>  <i_f3d_flags>  (300) 
0

>  <s_epik_input>  (300) 
W0NAQF0xMjNbQ0BASF00W05AK101KFtDSDJdW0NIMl0yKVtDQEhdKFtDSDJdW0NIMl0xKVtDSDJdW0NAQEhdNVtDQEBIXTRbQ0gyXTM=

>  <s_epik_cmdline>  (300) 
J2VwaWtfcHl0aG9uJywgJy1waHQnLCAnMi4wJywgJy1waCcsICc3LjAnLCAnLXRuJywgJzgnLCAnLW1hJywgJzIwMCcsICctaW1hZScsICc8aW5maWxlLm1hZT4nLCAnLW9tYWUnLCAnPG91dGZpbGUubWFlPic=

>  <r_lp_tautomer_probability>  (300) 
1

>  <r_epik_Ionization_Penalty>  (300) 
0

>  <r_epik_Ionization_Penalty_Charging>  (300) 
0

>  <r_epik_Ionization_Penalty_Neutral>  (300) 
0

>  <r_epik_State_Penalty>  (300) 
-0

>  <r_epik_Charging_Adjusted_Penalty>  (300) 
0

>  <i_epik_Tot_Q>  (300) 
1

>  <i_epik_Tot_abs_Q>  (300) 
1

>  <s_lp_Force_Field>  (300) 
OPLS3e

>  <r_lp_Energy>  (300) 
209.177

>  <b_lp_Chiralities_Consistent>  (300) 
1

>  <s_lp_Variant>  (300) 
90:0-1

>  <s_i_glide_gridfile>  (300) 
pfpi4k_grid

>  <i_i_glide_lignum>  (300) 
37

>  <i_i_glide_rotatable_bonds>  (300) 
0

>  <r_i_docking_score>  (300) 
-4.2508

>  <r_i_glide_ligand_efficiency>  (300) 
-0.354233

>  <r_i_glide_ligand_efficiency_sa>  (300) 
-0.810992

>  <r_i_glide_ligand_efficiency_ln>  (300) 
-1.21977

>  <r_i_glide_gscore>  (300) 
-4.2508

>  <r_i_glide_lipo>  (300) 
-0.675539

>  <r_i_glide_hbond>  (300) 
0

>  <r_i_glide_metal>  (300) 
-0

>  <r_i_glide_rewards>  (300) 
-2.25

>  <r_i_glide_evdw>  (300) 
-14.8361

>  <r_i_glide_ecoul>  (300) 
-3.60079

>  <r_i_glide_erotb>  (300) 
0

>  <r_i_glide_esite>  (300) 
-0.043335

>  <r_i_glide_emodel>  (300) 
-23.0326

>  <r_i_glide_energy>  (300) 
-18.4369

>  <r_i_glide_einternal>  (300) 
0

>  <r_i_glide_intrahb_reward>  (300) 
-0

>  <i_i_glide_confnum>  (300) 
1

>  <i_i_glide_posenum>  (300) 
31

>  <r_i_glide_eff_state_penalty>  (300) 
0

>  <ligand_id>  (300) 
90

>  <original_smiles>  (300) 
C1CC23CC[N+]45C1CC4C(C2)C35

>  <smiles>  (300) 
[H]C1([H])C([H])([H])C2([H])C([H])([H])C3([H])C4([H])C([H])([H])C15C([H])([H])C([H])([H])[N+]23C45[H]

$$$$
90:0:1
     RDKit          3D

 28 32  0  0  1  0  0  0  0  0999 V2000
    6.2486   -3.0598   -2.0533 C   0  0  0  0  0  0  0  0  0  0  0  0
    6.2991   -2.6867   -0.5802 C   0  0  0  0  0  0  0  0  0  0  0  0
    4.9349   -2.1446   -0.1274 C   0  0  1  0  0  0  0  0  0  0  0  0
    4.2705   -3.3013    0.7127 C   0  0  0  0  0  0  0  0  0  0  0  0
    3.5146   -4.2254   -0.3145 C   0  0  0  0  0  0  0  0  0  0  0  0
    3.8212   -3.4859   -1.6089 N   0  0  1  0  0  0  0  0  0  0  0  0
    4.9660   -3.8416   -2.4228 C   0  0  1  0  0  0  0  0  0  0  0  0
    4.1239   -3.3686   -3.6131 C   0  0  0  0  0  0  0  0  0  0  0  0
    3.1816   -2.6963   -2.6291 C   0  0  2  0  0  0  0  0  0  0  0  0
    3.6705   -1.2976   -2.0231 C   0  0  1  0  0  0  0  0  0  0  0  0
    4.6052   -0.7873   -0.8483 C   0  0  0  0  0  0  0  0  0  0  0  0
    3.6582   -2.2674   -0.9091 C   0  0  2  0  0  0  0  0  0  0  0  0
    7.1336   -3.6357   -2.3319 H   0  0  0  0  0  0  0  0  0  0  0  0
    6.2720   -2.1592   -2.6409 H   0  0  0  0  0  0  0  0  0  0  0  0
    6.6211   -3.5550   -0.0054 H   0  0  0  0  0  0  0  0  0  0  0  0
    7.0701   -1.9406   -0.4187 H   0  0  0  0  0  0  0  0  0  0  0  0
    5.0002   -3.8894    1.2684 H   0  0  0  0  0  0  0  0  0  0  0  0
    3.5951   -2.9137    1.4681 H   0  0  0  0  0  0  0  0  0  0  0  0
    3.9132   -5.2269   -0.3384 H   0  0  0  0  0  0  0  0  0  0  0  0
    2.4592   -4.2889   -0.1074 H   0  0  0  0  0  0  0  0  0  0  0  0
    5.0661   -4.9126   -2.4302 H   0  0  0  0  0  0  0  0  0  0  0  0
    4.6199   -2.6354   -4.2282 H   0  0  0  0  0  0  0  0  0  0  0  0
    3.6906   -4.2078   -4.1615 H   0  0  0  0  0  0  0  0  0  0  0  0
    2.1086   -2.8789   -2.7090 H   0  0  0  0  0  0  0  0  0  0  0  0
    2.7755   -0.6952   -1.9718 H   0  0  0  0  0  0  0  0  0  0  0  0
    4.1339   -0.0321   -0.2011 H   0  0  0  0  0  0  0  0  0  0  0  0
    5.4895   -0.3471   -1.3100 H   0  0  0  0  0  0  0  0  0  0  0  0
    2.6967   -2.0921   -0.4149 H   0  0  0  0  0  0  0  0  0  0  0  0
  1  7  1  0
  1  2  1  0
  1 13  1  0
  1 14  1  0
  3  2  1  6
  2 15  1  0
  2 16  1  0
  3 11  1  0
  3 12  1  0
  3  4  1  0
  4  5  1  0
  4 17  1  0
  4 18  1  0
  6  5  1  1
  5 19  1  0
  5 20  1  0
  6  9  1  0
  6 12  1  0
  6  7  1  0
  7  8  1  0
  7 21  1  6
  8  9  1  0
  8 22  1  0
  8 23  1  0
  9 10  1  0
  9 24  1  6
 10 11  1  0
 10 12  1  0
 10 25  1  1
 11 26  1  0
 11 27  1  0
 12 28  1  1
M  CHG  1   6   1
M  END
>  <i_m_ct_stereo_status>  (301) 
1

>  <s_m_source_file>  (301) 
/var/tmp/pbs.5076255.sched01/tmpagfdxo7m/88tnrj_5ym.sdf

>  <i_m_source_file_index>  (301) 
37

>  <i_lp_mmshare_version>  (301) 
48012

>  <i_f3d_flags>  (301) 
0

>  <s_epik_input>  (301) 
W0NAQF0xMjNbQ0BASF00W05AK101KFtDSDJdW0NIMl0yKVtDQEhdKFtDSDJdW0NIMl0xKVtDSDJdW0NAQEhdNVtDQEBIXTRbQ0gyXTM=

>  <s_epik_cmdline>  (301) 
J2VwaWtfcHl0aG9uJywgJy1waHQnLCAnMi4wJywgJy1waCcsICc3LjAnLCAnLXRuJywgJzgnLCAnLW1hJywgJzIwMCcsICctaW1hZScsICc8aW5maWxlLm1hZT4nLCAnLW9tYWUnLCAnPG91dGZpbGUubWFlPic=

>  <r_lp_tautomer_probability>  (301) 
1

>  <r_epik_Ionization_Penalty>  (301) 
0

>  <r_epik_Ionization_Penalty_Charging>  (301) 
0

>  <r_epik_Ionization_Penalty_Neutral>  (301) 
0

>  <r_epik_State_Penalty>  (301) 
-0

>  <r_epik_Charging_Adjusted_Penalty>  (301) 
0

>  <i_epik_Tot_Q>  (301) 
1

>  <i_epik_Tot_abs_Q>  (301) 
1

>  <s_lp_Force_Field>  (301) 
OPLS3e

>  <r_lp_Energy>  (301) 
209.177

>  <b_lp_Chiralities_Consistent>  (301) 
1

>  <s_lp_Variant>  (301) 
90:0-1

>  <s_i_glide_gridfile>  (301) 
pfpi4k_grid

>  <i_i_glide_lignum>  (301) 
37

>  <i_i_glide_rotatable_bonds>  (301) 
0

>  <r_i_docking_score>  (301) 
-3.8806

>  <r_i_glide_ligand_efficiency>  (301) 
-0.323384

>  <r_i_glide_ligand_efficiency_sa>  (301) 
-0.740363

>  <r_i_glide_ligand_efficiency_ln>  (301) 
-1.11355

>  <r_i_glide_gscore>  (301) 
-3.8806

>  <r_i_glide_lipo>  (301) 
-0.338009

>  <r_i_glide_hbond>  (301) 
0

>  <r_i_glide_metal>  (301) 
-0

>  <r_i_glide_rewards>  (301) 
-2.25

>  <r_i_glide_evdw>  (301) 
-16.3936

>  <r_i_glide_ecoul>  (301) 
-3.08655

>  <r_i_glide_erotb>  (301) 
0

>  <r_i_glide_esite>  (301) 
-0.00993004

>  <r_i_glide_emodel>  (301) 
-23.2676

>  <r_i_glide_energy>  (301) 
-19.4802

>  <r_i_glide_einternal>  (301) 
0

>  <r_i_glide_intrahb_reward>  (301) 
-0

>  <i_i_glide_confnum>  (301) 
1

>  <i_i_glide_posenum>  (301) 
30

>  <r_i_glide_eff_state_penalty>  (301) 
0

>  <ligand_id>  (301) 
90

>  <original_smiles>  (301) 
C1CC23CC[N+]45C1CC4C(C2)C35

>  <smiles>  (301) 
[H]C1([H])C([H])([H])C2([H])C([H])([H])C3([H])C4([H])C([H])([H])C15C([H])([H])C([H])([H])[N+]23C45[H]

$$$$
90:0:2
     RDKit          3D

 28 32  0  0  1  0  0  0  0  0999 V2000
    4.3687   -1.5477    0.8954 C   0  0  0  0  0  0  0  0  0  0  0  0
    5.0918   -1.0329   -0.3518 C   0  0  0  0  0  0  0  0  0  0  0  0
    5.4388   -2.1800   -1.3213 C   0  0  1  0  0  0  0  0  0  0  0  0
    4.3957   -2.0794   -2.5095 C   0  0  0  0  0  0  0  0  0  0  0  0
    3.1179   -2.8752   -2.0411 C   0  0  0  0  0  0  0  0  0  0  0  0
    3.5463   -3.3384   -0.6909 N   0  0  1  0  0  0  0  0  0  0  0  0
    3.2773   -2.5698    0.5488 C   0  0  1  0  0  0  0  0  0  0  0  0
    3.2660   -3.9301    1.2715 C   0  0  0  0  0  0  0  0  0  0  0  0
    3.9366   -4.5446    0.0393 C   0  0  2  0  0  0  0  0  0  0  0  0
    5.4947   -4.2767   -0.1343 C   0  0  1  0  0  0  0  0  0  0  0  0
    6.4883   -3.1560   -0.6749 C   0  0  0  0  0  0  0  0  0  0  0  0
    4.8540   -3.5631   -1.2424 C   0  0  2  0  0  0  0  0  0  0  0  0
    3.9451   -0.7139    1.4470 H   0  0  0  0  0  0  0  0  0  0  0  0
    5.1326   -2.0081    1.5403 H   0  0  0  0  0  0  0  0  0  0  0  0
    4.4760   -0.2658   -0.8152 H   0  0  0  0  0  0  0  0  0  0  0  0
    6.0033   -0.5099   -0.0530 H   0  0  0  0  0  0  0  0  0  0  0  0
    4.1180   -1.0557   -2.7253 H   0  0  0  0  0  0  0  0  0  0  0  0
    4.7979   -2.4819   -3.4310 H   0  0  0  0  0  0  0  0  0  0  0  0
    2.2274   -2.2490   -1.9606 H   0  0  0  0  0  0  0  0  0  0  0  0
    2.8727   -3.7098   -2.7139 H   0  0  0  0  0  0  0  0  0  0  0  0
    2.2745   -2.1403    0.4919 H   0  0  0  0  0  0  0  0  0  0  0  0
    3.9174   -3.9502    2.1541 H   0  0  0  0  0  0  0  0  0  0  0  0
    2.2615   -4.2967    1.4505 H   0  0  0  0  0  0  0  0  0  0  0  0
    3.5308   -5.4787   -0.3641 H   0  0  0  0  0  0  0  0  0  0  0  0
    5.9171   -5.2361   -0.4571 H   0  0  0  0  0  0  0  0  0  0  0  0
    7.2531   -3.5273   -1.3611 H   0  0  0  0  0  0  0  0  0  0  0  0
    7.0100   -2.6928    0.1785 H   0  0  0  0  0  0  0  0  0  0  0  0
    4.9469   -4.2747   -2.0908 H   0  0  0  0  0  0  0  0  0  0  0  0
  1  7  1  0
  1  2  1  0
  1 13  1  0
  1 14  1  0
  3  2  1  1
  2 15  1  0
  2 16  1  0
  3 11  1  0
  3 12  1  0
  3  4  1  0
  4  5  1  0
  4 17  1  0
  4 18  1  0
  6  5  1  6
  5 19  1  0
  5 20  1  0
  6  9  1  0
  6 12  1  0
  6  7  1  0
  7  8  1  0
  7 21  1  6
  8  9  1  0
  8 22  1  0
  8 23  1  0
  9 10  1  0
  9 24  1  6
 10 11  1  0
 10 12  1  0
 10 25  1  6
 11 26  1  0
 11 27  1  0
 12 28  1  6
M  CHG  1   6   1
M  END
>  <i_m_ct_stereo_status>  (302) 
1

>  <s_m_source_file>  (302) 
/var/tmp/pbs.5076255.sched01/tmpagfdxo7m/88tnrj_5ym.sdf

>  <i_m_source_file_index>  (302) 
37

>  <i_lp_mmshare_version>  (302) 
48012

>  <i_f3d_flags>  (302) 
0

>  <s_epik_input>  (302) 
W0NAQF0xMjNbQ0BASF00W05AK101KFtDSDJdW0NIMl0yKVtDQEhdKFtDSDJdW0NIMl0xKVtDSDJdW0NAQEhdNVtDQEBIXTRbQ0gyXTM=

>  <s_epik_cmdline>  (302) 
J2VwaWtfcHl0aG9uJywgJy1waHQnLCAnMi4wJywgJy1waCcsICc3LjAnLCAnLXRuJywgJzgnLCAnLW1hJywgJzIwMCcsICctaW1hZScsICc8aW5maWxlLm1hZT4nLCAnLW9tYWUnLCAnPG91dGZpbGUubWFlPic=

>  <r_lp_tautomer_probability>  (302) 
1

>  <r_epik_Ionization_Penalty>  (302) 
0

>  <r_epik_Ionization_Penalty_Charging>  (302) 
0

>  <r_epik_Ionization_Penalty_Neutral>  (302) 
0

>  <r_epik_State_Penalty>  (302) 
-0

>  <r_epik_Charging_Adjusted_Penalty>  (302) 
0

>  <i_epik_Tot_Q>  (302) 
1

>  <i_epik_Tot_abs_Q>  (302) 
1

>  <s_lp_Force_Field>  (302) 
OPLS3e

>  <r_lp_Energy>  (302) 
209.177

>  <b_lp_Chiralities_Consistent>  (302) 
1

>  <s_lp_Variant>  (302) 
90:0-1

>  <s_i_glide_gridfile>  (302) 
pfpi4k_grid

>  <i_i_glide_lignum>  (302) 
37

>  <i_i_glide_rotatable_bonds>  (302) 
0

>  <r_i_docking_score>  (302) 
-3.84497

>  <r_i_glide_ligand_efficiency>  (302) 
-0.320414

>  <r_i_glide_ligand_efficiency_sa>  (302) 
-0.733565

>  <r_i_glide_ligand_efficiency_ln>  (302) 
-1.10332

>  <r_i_glide_gscore>  (302) 
-3.84497

>  <r_i_glide_lipo>  (302) 
-0.198583

>  <r_i_glide_hbond>  (302) 
0

>  <r_i_glide_metal>  (302) 
-0

>  <r_i_glide_rewards>  (302) 
-2.25

>  <r_i_glide_evdw>  (302) 
-16.1634

>  <r_i_glide_ecoul>  (302) 
-3.92144

>  <r_i_glide_erotb>  (302) 
0

>  <r_i_glide_esite>  (302) 
0

>  <r_i_glide_emodel>  (302) 
-24.055

>  <r_i_glide_energy>  (302) 
-20.0848

>  <r_i_glide_einternal>  (302) 
0

>  <r_i_glide_intrahb_reward>  (302) 
-0

>  <i_i_glide_confnum>  (302) 
2

>  <i_i_glide_posenum>  (302) 
1

>  <r_i_glide_eff_state_penalty>  (302) 
0

>  <ligand_id>  (302) 
90

>  <original_smiles>  (302) 
C1CC23CC[N+]45C1CC4C(C2)C35

>  <smiles>  (302) 
[H]C1([H])C([H])([H])C2([H])C([H])([H])C3([H])C4([H])C([H])([H])C15C([H])([H])C([H])([H])[N+]23C45[H]

$$$$
91:0:0
     RDKit          3D

 53 57  0  0  1  0  0  0  0  0999 V2000
    8.1357   -4.9180    0.8984 C   0  0  0  0  0  0  0  0  0  0  0  0
    7.2757   -3.8021    0.3880 C   0  0  0  0  0  0  0  0  0  0  0  0
    7.7601   -2.6160    0.0026 N   0  0  0  0  0  0  0  0  0  0  0  0
    6.6582   -1.8635   -0.3429 N   0  0  0  0  0  0  0  0  0  0  0  0
    5.6113   -2.6808   -0.1813 C   0  0  0  0  0  0  0  0  0  0  0  0
    5.9354   -3.8948    0.2962 N   0  0  0  0  0  0  0  0  0  0  0  0
    5.0220   -4.9709    0.6607 C   0  0  0  0  0  0  0  0  0  0  0  0
    3.6474   -4.7498    0.1511 N   0  0  0  0  0  0  0  0  0  0  0  0
    2.5890   -5.6068    0.4813 C   0  0  0  0  0  0  0  0  0  0  0  0
    1.4233   -5.5101    0.0894 O   0  0  0  0  0  0  0  0  0  0  0  0
    3.0104   -6.5953    1.2892 O   0  0  0  0  0  0  0  0  0  0  0  0
    2.1058   -7.5852    1.7717 C   0  0  2  0  0  0  0  0  0  0  0  0
    1.4856   -7.1574    3.1264 C   0  0  2  0  0  0  0  0  0  0  0  0
    2.5969   -6.9941    4.1894 C   0  0  0  0  0  0  0  0  0  0  0  0
    3.3531   -8.3300    4.3517 C   0  0  1  0  0  0  0  0  0  0  0  0
    2.3706   -9.4240    4.8151 C   0  0  0  0  0  0  0  0  0  0  0  0
    1.2519   -9.5851    3.7636 C   0  0  1  0  0  0  0  0  0  0  0  0
    0.4970   -8.2525    3.5795 C   0  0  0  0  0  0  0  0  0  0  0  0
    1.8788  -10.0011    2.4187 C   0  0  0  0  0  0  0  0  0  0  0  0
    2.8677   -8.9148    1.9460 C   0  0  2  0  0  0  0  0  0  0  0  0
    3.9843   -8.7444    3.0029 C   0  0  0  0  0  0  0  0  0  0  0  0
    3.4033   -3.6278   -0.7749 C   0  0  0  0  0  0  0  0  0  0  0  0
    4.1583   -2.3406   -0.3781 C   0  0  0  0  0  0  0  0  0  0  0  0
    3.5437   -1.7907    0.9264 C   0  0  0  0  0  0  0  0  0  0  0  0
    3.9774   -1.3114   -1.5154 C   0  0  0  0  0  0  0  0  0  0  0  0
    9.1818   -4.6190    0.8594 H   0  0  0  0  0  0  0  0  0  0  0  0
    8.0068   -5.8124    0.2850 H   0  0  0  0  0  0  0  0  0  0  0  0
    7.8863   -5.1562    1.9356 H   0  0  0  0  0  0  0  0  0  0  0  0
    5.4269   -5.9163    0.2927 H   0  0  0  0  0  0  0  0  0  0  0  0
    5.0005   -5.0180    1.7527 H   0  0  0  0  0  0  0  0  0  0  0  0
    1.3101   -7.7482    1.0433 H   0  0  0  0  0  0  0  0  0  0  0  0
    0.9512   -6.2129    3.0109 H   0  0  0  0  0  0  0  0  0  0  0  0
    3.2905   -6.2045    3.9001 H   0  0  0  0  0  0  0  0  0  0  0  0
    2.1641   -6.6875    5.1419 H   0  0  0  0  0  0  0  0  0  0  0  0
    4.1387   -8.2114    5.0986 H   0  0  0  0  0  0  0  0  0  0  0  0
    2.8972  -10.3709    4.9442 H   0  0  0  0  0  0  0  0  0  0  0  0
    1.9498   -9.1720    5.7891 H   0  0  0  0  0  0  0  0  0  0  0  0
    0.5549  -10.3533    4.0956 H   0  0  0  0  0  0  0  0  0  0  0  0
    0.0065   -7.9664    4.5088 H   0  0  0  0  0  0  0  0  0  0  0  0
   -0.2912   -8.3764    2.8348 H   0  0  0  0  0  0  0  0  0  0  0  0
    2.3939  -10.9550    2.5199 H   0  0  0  0  0  0  0  0  0  0  0  0
    1.0924  -10.1539    1.6789 H   0  0  0  0  0  0  0  0  0  0  0  0
    3.3032   -9.2144    0.9902 H   0  0  0  0  0  0  0  0  0  0  0  0
    4.7105   -7.9979    2.6801 H   0  0  0  0  0  0  0  0  0  0  0  0
    4.5352   -9.6784    3.1094 H   0  0  0  0  0  0  0  0  0  0  0  0
    3.7452   -3.9448   -1.7612 H   0  0  0  0  0  0  0  0  0  0  0  0
    2.3371   -3.4029   -0.8792 H   0  0  0  0  0  0  0  0  0  0  0  0
    2.4689   -1.6433    0.8122 H   0  0  0  0  0  0  0  0  0  0  0  0
    3.9842   -0.8325    1.2059 H   0  0  0  0  0  0  0  0  0  0  0  0
    3.6838   -2.4887    1.7570 H   0  0  0  0  0  0  0  0  0  0  0  0
    2.9207   -1.1360   -1.7156 H   0  0  0  0  0  0  0  0  0  0  0  0
    4.4311   -1.6540   -2.4497 H   0  0  0  0  0  0  0  0  0  0  0  0
    4.4218   -0.3492   -1.2548 H   0  0  0  0  0  0  0  0  0  0  0  0
  1  2  1  0
  1 26  1  0
  1 27  1  0
  1 28  1  0
  2  6  1  0
  2  3  2  0
  3  4  1  0
  4  5  2  0
  5 23  1  0
  5  6  1  0
  6  7  1  0
  7  8  1  0
  7 29  1  0
  7 30  1  0
  8  9  1  0
  8 22  1  0
  9 10  2  0
  9 11  1  0
 11 12  1  0
 12 20  1  0
 12 13  1  0
 12 31  1  6
 13 18  1  0
 13 14  1  0
 13 32  1  6
 14 15  1  0
 14 33  1  0
 14 34  1  0
 15 21  1  0
 15 16  1  0
 15 35  1  1
 16 17  1  0
 16 36  1  0
 16 37  1  0
 17 18  1  0
 17 19  1  0
 17 38  1  1
 18 39  1  0
 18 40  1  0
 19 20  1  0
 19 41  1  0
 19 42  1  0
 20 21  1  0
 20 43  1  6
 21 44  1  0
 21 45  1  0
 22 23  1  0
 22 46  1  0
 22 47  1  0
 23 24  1  0
 23 25  1  0
 24 48  1  0
 24 49  1  0
 24 50  1  0
 25 51  1  0
 25 52  1  0
 25 53  1  0
M  END
>  <i_m_ct_stereo_status>  (303) 
1

>  <s_m_source_file>  (303) 
/var/tmp/pbs.5076255.sched01/tmpagfdxo7m/88tnrj_5ym.sdf

>  <i_m_source_file_index>  (303) 
38

>  <i_lp_mmshare_version>  (303) 
48012

>  <i_f3d_flags>  (303) 
0

>  <s_epik_input>  (303) 
bjFuYyhbQ0gzXSluKGMxMilbQ0gyXU4oW0NIMl1DMihbQ0gzXSlbQ0gzXSlDKD1PKU9bQ0BIXShbQ0BASF0zNClbQ0BIXTVbQ0gyXVtDQEBIXShbQ0gyXTQpW0NIMl1bQ0BASF0oW0NIMl0zKVtDSDJdNQ==

>  <s_epik_cmdline>  (303) 
J2VwaWtfcHl0aG9uJywgJy1waHQnLCAnMi4wJywgJy1waCcsICc3LjAnLCAnLXRuJywgJzgnLCAnLW1hJywgJzIwMCcsICctaW1hZScsICc8aW5maWxlLm1hZT4nLCAnLW9tYWUnLCAnPG91dGZpbGUubWFlPic=

>  <r_lp_tautomer_probability>  (303) 
1

>  <r_epik_Ionization_Penalty>  (303) 
0.000751974

>  <r_epik_Ionization_Penalty_Charging>  (303) 
0

>  <r_epik_Ionization_Penalty_Neutral>  (303) 
0.000751974

>  <r_epik_State_Penalty>  (303) 
0.000431036

>  <r_epik_Charging_Adjusted_Penalty>  (303) 
0.000431036

>  <i_epik_Tot_Q>  (303) 
0

>  <i_epik_Tot_abs_Q>  (303) 
0

>  <s_epik_Chemistry_Notes>  (303) 
This compound has an ester and may undergo hydrolysis at high or low pH. This compound contains an acetal/aminal-like group ( X-CH(R)-Y where X, Y are N, S, or O) that may be acid/base labile, releasing an aldehyde.

>  <s_lp_Force_Field>  (303) 
OPLS3e

>  <r_lp_Energy>  (303) 
13.934

>  <b_lp_Chiralities_Consistent>  (303) 
1

>  <s_lp_Variant>  (303) 
91:0-1

>  <s_i_glide_gridfile>  (303) 
pfpi4k_grid

>  <i_i_glide_lignum>  (303) 
38

>  <i_i_glide_rotatable_bonds>  (303) 
3

>  <r_i_docking_score>  (303) 
-3.50806

>  <r_i_glide_ligand_efficiency>  (303) 
-0.140322

>  <r_i_glide_ligand_efficiency_sa>  (303) 
-0.410305

>  <r_i_glide_ligand_efficiency_ln>  (303) 
-0.831514

>  <r_i_glide_gscore>  (303) 
-3.50806

>  <r_i_glide_lipo>  (303) 
-0.247011

>  <r_i_glide_hbond>  (303) 
-0.119621

>  <r_i_glide_metal>  (303) 
-0

>  <r_i_glide_rewards>  (303) 
-1.47801

>  <r_i_glide_evdw>  (303) 
-23.8132

>  <r_i_glide_ecoul>  (303) 
-5.64425

>  <r_i_glide_erotb>  (303) 
0.480104

>  <r_i_glide_esite>  (303) 
-0.106216

>  <r_i_glide_emodel>  (303) 
-36.7226

>  <r_i_glide_energy>  (303) 
-29.4575

>  <r_i_glide_einternal>  (303) 
0.0656832

>  <r_i_glide_intrahb_reward>  (303) 
-0

>  <i_i_glide_confnum>  (303) 
1

>  <i_i_glide_posenum>  (303) 
23

>  <r_i_glide_eff_state_penalty>  (303) 
0

>  <ligand_id>  (303) 
91

>  <original_smiles>  (303) 
Cc1nnc2n1CN(C(=O)OC1C3CC4CC(C3)CC1C4)CC2(C)C

>  <smiles>  (303) 
[H]C([H])([H])c1nnc2n1C([H])([H])N(C(=O)OC1([H])C3([H])C([H])([H])C4([H])C([H])([H])C([H])(C3([H])[H])C([H])([H])C1([H])C4([H])[H])C([H])([H])C2(C([H])([H])[H])C([H])([H])[H]

$$$$
91:0:1
     RDKit          3D

 53 57  0  0  1  0  0  0  0  0999 V2000
    8.3146   -4.6643    0.8307 C   0  0  0  0  0  0  0  0  0  0  0  0
    7.3714   -3.6568    0.2490 C   0  0  0  0  0  0  0  0  0  0  0  0
    7.7705   -2.5056   -0.2988 N   0  0  0  0  0  0  0  0  0  0  0  0
    6.6112   -1.8554   -0.6687 N   0  0  0  0  0  0  0  0  0  0  0  0
    5.6181   -2.6903   -0.3494 C   0  0  0  0  0  0  0  0  0  0  0  0
    6.0347   -3.8228    0.2486 N   0  0  0  0  0  0  0  0  0  0  0  0
    5.2017   -4.8872    0.7919 C   0  0  0  0  0  0  0  0  0  0  0  0
    3.7952   -4.7934    0.3370 N   0  0  0  0  0  0  0  0  0  0  0  0
    2.7946   -5.6275    0.8542 C   0  0  0  0  0  0  0  0  0  0  0  0
    1.6099   -5.6366    0.5129 O   0  0  0  0  0  0  0  0  0  0  0  0
    3.2960   -6.4347    1.8073 O   0  0  0  0  0  0  0  0  0  0  0  0
    2.4409   -7.2758    2.5751 C   0  0  2  0  0  0  0  0  0  0  0  0
    3.2395   -7.8178    3.7840 C   0  0  2  0  0  0  0  0  0  0  0  0
    4.4034   -8.7137    3.2975 C   0  0  0  0  0  0  0  0  0  0  0  0
    3.8366   -9.8911    2.4756 C   0  0  1  0  0  0  0  0  0  0  0  0
    2.8921  -10.7295    3.3603 C   0  0  0  0  0  0  0  0  0  0  0  0
    1.7326   -9.8400    3.8614 C   0  0  1  0  0  0  0  0  0  0  0  0
    2.2880   -8.6487    4.6713 C   0  0  0  0  0  0  0  0  0  0  0  0
    0.9449   -9.3036    2.6513 C   0  0  0  0  0  0  0  0  0  0  0  0
    1.8849   -8.4708    1.7561 C   0  0  2  0  0  0  0  0  0  0  0  0
    3.0526   -9.3496    1.2629 C   0  0  0  0  0  0  0  0  0  0  0  0
    3.4395   -3.8064   -0.6980 C   0  0  0  0  0  0  0  0  0  0  0  0
    4.1390   -2.4446   -0.4952 C   0  0  0  0  0  0  0  0  0  0  0  0
    3.5698   -1.7722    0.7724 C   0  0  0  0  0  0  0  0  0  0  0  0
    3.8360   -1.5664   -1.7292 C   0  0  0  0  0  0  0  0  0  0  0  0
    9.3391   -4.3227    0.6940 H   0  0  0  0  0  0  0  0  0  0  0  0
    8.2002   -5.6300    0.3334 H   0  0  0  0  0  0  0  0  0  0  0  0
    8.1372   -4.7905    1.9014 H   0  0  0  0  0  0  0  0  0  0  0  0
    5.6366   -5.8503    0.5170 H   0  0  0  0  0  0  0  0  0  0  0  0
    5.2378   -4.7993    1.8801 H   0  0  0  0  0  0  0  0  0  0  0  0
    1.6162   -6.6627    2.9435 H   0  0  0  0  0  0  0  0  0  0  0  0
    3.6380   -6.9821    4.3620 H   0  0  0  0  0  0  0  0  0  0  0  0
    5.1043   -8.1364    2.6943 H   0  0  0  0  0  0  0  0  0  0  0  0
    4.9693   -9.0879    4.1507 H   0  0  0  0  0  0  0  0  0  0  0  0
    4.6550  -10.5201    2.1232 H   0  0  0  0  0  0  0  0  0  0  0  0
    2.4991  -11.5714    2.7864 H   0  0  0  0  0  0  0  0  0  0  0  0
    3.4383  -11.1599    4.2000 H   0  0  0  0  0  0  0  0  0  0  0  0
    1.0724  -10.4331    4.4937 H   0  0  0  0  0  0  0  0  0  0  0  0
    2.8100   -9.0071    5.5578 H   0  0  0  0  0  0  0  0  0  0  0  0
    1.4670   -8.0242    5.0251 H   0  0  0  0  0  0  0  0  0  0  0  0
    0.5223  -10.1297    2.0815 H   0  0  0  0  0  0  0  0  0  0  0  0
    0.1022   -8.6992    2.9883 H   0  0  0  0  0  0  0  0  0  0  0  0
    1.3101   -8.1257    0.8969 H   0  0  0  0  0  0  0  0  0  0  0  0
    3.7189   -8.7834    0.6109 H   0  0  0  0  0  0  0  0  0  0  0  0
    2.6581  -10.1672    0.6629 H   0  0  0  0  0  0  0  0  0  0  0  0
    3.7483   -4.2248   -1.6546 H   0  0  0  0  0  0  0  0  0  0  0  0
    2.3582   -3.6460   -0.7630 H   0  0  0  0  0  0  0  0  0  0  0  0
    2.4842   -1.6903    0.7065 H   0  0  0  0  0  0  0  0  0  0  0  0
    3.9695   -0.7665    0.9107 H   0  0  0  0  0  0  0  0  0  0  0  0
    3.7912   -2.3557    1.6696 H   0  0  0  0  0  0  0  0  0  0  0  0
    2.7606   -1.4657   -1.8839 H   0  0  0  0  0  0  0  0  0  0  0  0
    4.2554   -1.9955   -2.6429 H   0  0  0  0  0  0  0  0  0  0  0  0
    4.2412   -0.5601   -1.6100 H   0  0  0  0  0  0  0  0  0  0  0  0
  1  2  1  0
  1 26  1  0
  1 27  1  0
  1 28  1  0
  2  6  1  0
  2  3  2  0
  3  4  1  0
  4  5  2  0
  5 23  1  0
  5  6  1  0
  6  7  1  0
  7  8  1  0
  7 29  1  0
  7 30  1  0
  8  9  1  0
  8 22  1  0
  9 10  2  0
  9 11  1  0
 11 12  1  0
 12 20  1  0
 12 13  1  0
 12 31  1  1
 13 18  1  0
 13 14  1  0
 13 32  1  1
 14 15  1  0
 14 33  1  0
 14 34  1  0
 15 21  1  0
 15 16  1  0
 15 35  1  6
 16 17  1  0
 16 36  1  0
 16 37  1  0
 17 18  1  0
 17 19  1  0
 17 38  1  1
 18 39  1  0
 18 40  1  0
 19 20  1  0
 19 41  1  0
 19 42  1  0
 20 21  1  0
 20 43  1  6
 21 44  1  0
 21 45  1  0
 22 23  1  0
 22 46  1  0
 22 47  1  0
 23 24  1  0
 23 25  1  0
 24 48  1  0
 24 49  1  0
 24 50  1  0
 25 51  1  0
 25 52  1  0
 25 53  1  0
M  END
>  <i_m_ct_stereo_status>  (304) 
1

>  <s_m_source_file>  (304) 
/var/tmp/pbs.5076255.sched01/tmpagfdxo7m/88tnrj_5ym.sdf

>  <i_m_source_file_index>  (304) 
38

>  <i_lp_mmshare_version>  (304) 
48012

>  <i_f3d_flags>  (304) 
0

>  <s_epik_input>  (304) 
bjFuYyhbQ0gzXSluKGMxMilbQ0gyXU4oW0NIMl1DMihbQ0gzXSlbQ0gzXSlDKD1PKU9bQ0BIXShbQ0BASF0zNClbQ0BIXTVbQ0gyXVtDQEBIXShbQ0gyXTQpW0NIMl1bQ0BASF0oW0NIMl0zKVtDSDJdNQ==

>  <s_epik_cmdline>  (304) 
J2VwaWtfcHl0aG9uJywgJy1waHQnLCAnMi4wJywgJy1waCcsICc3LjAnLCAnLXRuJywgJzgnLCAnLW1hJywgJzIwMCcsICctaW1hZScsICc8aW5maWxlLm1hZT4nLCAnLW9tYWUnLCAnPG91dGZpbGUubWFlPic=

>  <r_lp_tautomer_probability>  (304) 
1

>  <r_epik_Ionization_Penalty>  (304) 
0.000751974

>  <r_epik_Ionization_Penalty_Charging>  (304) 
0

>  <r_epik_Ionization_Penalty_Neutral>  (304) 
0.000751974

>  <r_epik_State_Penalty>  (304) 
0.000431036

>  <r_epik_Charging_Adjusted_Penalty>  (304) 
0.000431036

>  <i_epik_Tot_Q>  (304) 
0

>  <i_epik_Tot_abs_Q>  (304) 
0

>  <s_epik_Chemistry_Notes>  (304) 
This compound has an ester and may undergo hydrolysis at high or low pH. This compound contains an acetal/aminal-like group ( X-CH(R)-Y where X, Y are N, S, or O) that may be acid/base labile, releasing an aldehyde.

>  <s_lp_Force_Field>  (304) 
OPLS3e

>  <r_lp_Energy>  (304) 
13.934

>  <b_lp_Chiralities_Consistent>  (304) 
1

>  <s_lp_Variant>  (304) 
91:0-1

>  <s_i_glide_gridfile>  (304) 
pfpi4k_grid

>  <i_i_glide_lignum>  (304) 
38

>  <i_i_glide_rotatable_bonds>  (304) 
3

>  <r_i_docking_score>  (304) 
-3.42142

>  <r_i_glide_ligand_efficiency>  (304) 
-0.136857

>  <r_i_glide_ligand_efficiency_sa>  (304) 
-0.400172

>  <r_i_glide_ligand_efficiency_ln>  (304) 
-0.810979

>  <r_i_glide_gscore>  (304) 
-3.42142

>  <r_i_glide_lipo>  (304) 
-0.101055

>  <r_i_glide_hbond>  (304) 
-0.129576

>  <r_i_glide_metal>  (304) 
-0

>  <r_i_glide_rewards>  (304) 
-1.47307

>  <r_i_glide_evdw>  (304) 
-24.9238

>  <r_i_glide_ecoul>  (304) 
-5.65018

>  <r_i_glide_erotb>  (304) 
0.480104

>  <r_i_glide_esite>  (304) 
-0.104108

>  <r_i_glide_emodel>  (304) 
-37.3121

>  <r_i_glide_energy>  (304) 
-30.5739

>  <r_i_glide_einternal>  (304) 
0.476249

>  <r_i_glide_intrahb_reward>  (304) 
-0

>  <i_i_glide_confnum>  (304) 
3

>  <i_i_glide_posenum>  (304) 
9

>  <r_i_glide_eff_state_penalty>  (304) 
0

>  <ligand_id>  (304) 
91

>  <original_smiles>  (304) 
Cc1nnc2n1CN(C(=O)OC1C3CC4CC(C3)CC1C4)CC2(C)C

>  <smiles>  (304) 
[H]C([H])([H])c1nnc2n1C([H])([H])N(C(=O)OC1([H])C3([H])C([H])([H])C4([H])C([H])([H])C([H])(C3([H])[H])C([H])([H])C1([H])C4([H])[H])C([H])([H])C2(C([H])([H])[H])C([H])([H])[H]

$$$$
91:0:2
     RDKit          3D

 53 57  0  0  1  0  0  0  0  0999 V2000
    8.2650   -5.9575    1.4212 C   0  0  0  0  0  0  0  0  0  0  0  0
    7.6330   -4.7284    0.8436 C   0  0  0  0  0  0  0  0  0  0  0  0
    8.3300   -3.6464    0.4806 N   0  0  0  0  0  0  0  0  0  0  0  0
    7.3919   -2.7338    0.0415 N   0  0  0  0  0  0  0  0  0  0  0  0
    6.2154   -3.3646    0.1369 C   0  0  0  0  0  0  0  0  0  0  0  0
    6.3057   -4.6045    0.6522 N   0  0  0  0  0  0  0  0  0  0  0  0
    5.2063   -5.5117    0.9543 C   0  0  0  0  0  0  0  0  0  0  0  0
    3.9299   -5.0853    0.3349 N   0  0  0  0  0  0  0  0  0  0  0  0
    2.7297   -5.7671    0.5749 C   0  0  0  0  0  0  0  0  0  0  0  0
    1.6312   -5.5052    0.0791 O   0  0  0  0  0  0  0  0  0  0  0  0
    2.9207   -6.7720    1.4493 O   0  0  0  0  0  0  0  0  0  0  0  0
    1.8515   -7.6426    1.8105 C   0  0  2  0  0  0  0  0  0  0  0  0
    0.8090   -6.9488    2.7314 C   0  0  2  0  0  0  0  0  0  0  0  0
    1.4780   -6.5029    4.0501 C   0  0  0  0  0  0  0  0  0  0  0  0
    2.0621   -7.7358    4.7697 C   0  0  1  0  0  0  0  0  0  0  0  0
    0.9264   -8.7302    5.0845 C   0  0  0  0  0  0  0  0  0  0  0  0
    0.2503   -9.1701    3.7680 C   0  0  1  0  0  0  0  0  0  0  0  0
   -0.3257   -7.9472    3.0292 C   0  0  0  0  0  0  0  0  0  0  0  0
    1.2941   -9.8623    2.8667 C   0  0  0  0  0  0  0  0  0  0  0  0
    2.4362   -8.8717    2.5450 C   0  0  2  0  0  0  0  0  0  0  0  0
    3.1100   -8.4247    3.8653 C   0  0  0  0  0  0  0  0  0  0  0  0
    3.9339   -3.9582   -0.6154 C   0  0  0  0  0  0  0  0  0  0  0  0
    4.8521   -2.8004   -0.1694 C   0  0  0  0  0  0  0  0  0  0  0  0
    4.2356   -2.1376    1.0804 C   0  0  0  0  0  0  0  0  0  0  0  0
    4.9104   -1.7730   -1.3216 C   0  0  0  0  0  0  0  0  0  0  0  0
    9.3469   -5.8313    1.4576 H   0  0  0  0  0  0  0  0  0  0  0  0
    8.0440   -6.8297    0.8033 H   0  0  0  0  0  0  0  0  0  0  0  0
    7.9080   -6.1360    2.4379 H   0  0  0  0  0  0  0  0  0  0  0  0
    5.4784   -6.5165    0.6224 H   0  0  0  0  0  0  0  0  0  0  0  0
    5.0961   -5.5371    2.0417 H   0  0  0  0  0  0  0  0  0  0  0  0
    1.3671   -7.9796    0.8924 H   0  0  0  0  0  0  0  0  0  0  0  0
    0.3769   -6.0787    2.2399 H   0  0  0  0  0  0  0  0  0  0  0  0
    2.2673   -5.7781    3.8496 H   0  0  0  0  0  0  0  0  0  0  0  0
    0.7521   -5.9974    4.6875 H   0  0  0  0  0  0  0  0  0  0  0  0
    2.5362   -7.4198    5.6996 H   0  0  0  0  0  0  0  0  0  0  0  0
    1.3256   -9.6025    5.6050 H   0  0  0  0  0  0  0  0  0  0  0  0
    0.1975   -8.2765    5.7567 H   0  0  0  0  0  0  0  0  0  0  0  0
   -0.5588   -9.8619    3.9936 H   0  0  0  0  0  0  0  0  0  0  0  0
   -1.1044   -7.4753    3.6267 H   0  0  0  0  0  0  0  0  0  0  0  0
   -0.7953   -8.2663    2.0971 H   0  0  0  0  0  0  0  0  0  0  0  0
    1.6909  -10.7465    3.3648 H   0  0  0  0  0  0  0  0  0  0  0  0
    0.8228  -10.2163    1.9498 H   0  0  0  0  0  0  0  0  0  0  0  0
    3.1705   -9.3656    1.9044 H   0  0  0  0  0  0  0  0  0  0  0  0
    3.9398   -7.7462    3.6634 H   0  0  0  0  0  0  0  0  0  0  0  0
    3.5411   -9.2876    4.3738 H   0  0  0  0  0  0  0  0  0  0  0  0
    4.2848   -4.3466   -1.5716 H   0  0  0  0  0  0  0  0  0  0  0  0
    2.9271   -3.5714   -0.7966 H   0  0  0  0  0  0  0  0  0  0  0  0
    3.2092   -1.8241    0.8817 H   0  0  0  0  0  0  0  0  0  0  0  0
    4.7995   -1.2570    1.3908 H   0  0  0  0  0  0  0  0  0  0  0  0
    4.2001   -2.8326    1.9237 H   0  0  0  0  0  0  0  0  0  0  0  0
    3.9084   -1.4380   -1.5947 H   0  0  0  0  0  0  0  0  0  0  0  0
    5.3711   -2.1979   -2.2173 H   0  0  0  0  0  0  0  0  0  0  0  0
    5.4777   -0.8865   -1.0348 H   0  0  0  0  0  0  0  0  0  0  0  0
  1  2  1  0
  1 26  1  0
  1 27  1  0
  1 28  1  0
  2  6  1  0
  2  3  2  0
  3  4  1  0
  4  5  2  0
  5 23  1  0
  5  6  1  0
  6  7  1  0
  7  8  1  0
  7 29  1  0
  7 30  1  0
  8  9  1  0
  8 22  1  0
  9 10  2  0
  9 11  1  0
 11 12  1  0
 12 20  1  0
 12 13  1  0
 12 31  1  6
 13 18  1  0
 13 14  1  0
 13 32  1  6
 14 15  1  0
 14 33  1  0
 14 34  1  0
 15 21  1  0
 15 16  1  0
 15 35  1  1
 16 17  1  0
 16 36  1  0
 16 37  1  0
 17 18  1  0
 17 19  1  0
 17 38  1  1
 18 39  1  0
 18 40  1  0
 19 20  1  0
 19 41  1  0
 19 42  1  0
 20 21  1  0
 20 43  1  6
 21 44  1  0
 21 45  1  0
 22 23  1  0
 22 46  1  0
 22 47  1  0
 23 24  1  0
 23 25  1  0
 24 48  1  0
 24 49  1  0
 24 50  1  0
 25 51  1  0
 25 52  1  0
 25 53  1  0
M  END
>  <i_m_ct_stereo_status>  (305) 
1

>  <s_m_source_file>  (305) 
/var/tmp/pbs.5076255.sched01/tmpagfdxo7m/88tnrj_5ym.sdf

>  <i_m_source_file_index>  (305) 
38

>  <i_lp_mmshare_version>  (305) 
48012

>  <i_f3d_flags>  (305) 
0

>  <s_epik_input>  (305) 
bjFuYyhbQ0gzXSluKGMxMilbQ0gyXU4oW0NIMl1DMihbQ0gzXSlbQ0gzXSlDKD1PKU9bQ0BIXShbQ0BASF0zNClbQ0BIXTVbQ0gyXVtDQEBIXShbQ0gyXTQpW0NIMl1bQ0BASF0oW0NIMl0zKVtDSDJdNQ==

>  <s_epik_cmdline>  (305) 
J2VwaWtfcHl0aG9uJywgJy1waHQnLCAnMi4wJywgJy1waCcsICc3LjAnLCAnLXRuJywgJzgnLCAnLW1hJywgJzIwMCcsICctaW1hZScsICc8aW5maWxlLm1hZT4nLCAnLW9tYWUnLCAnPG91dGZpbGUubWFlPic=

>  <r_lp_tautomer_probability>  (305) 
1

>  <r_epik_Ionization_Penalty>  (305) 
0.000751974

>  <r_epik_Ionization_Penalty_Charging>  (305) 
0

>  <r_epik_Ionization_Penalty_Neutral>  (305) 
0.000751974

>  <r_epik_State_Penalty>  (305) 
0.000431036

>  <r_epik_Charging_Adjusted_Penalty>  (305) 
0.000431036

>  <i_epik_Tot_Q>  (305) 
0

>  <i_epik_Tot_abs_Q>  (305) 
0

>  <s_epik_Chemistry_Notes>  (305) 
This compound has an ester and may undergo hydrolysis at high or low pH. This compound contains an acetal/aminal-like group ( X-CH(R)-Y where X, Y are N, S, or O) that may be acid/base labile, releasing an aldehyde.

>  <s_lp_Force_Field>  (305) 
OPLS3e

>  <r_lp_Energy>  (305) 
13.934

>  <b_lp_Chiralities_Consistent>  (305) 
1

>  <s_lp_Variant>  (305) 
91:0-1

>  <s_i_glide_gridfile>  (305) 
pfpi4k_grid

>  <i_i_glide_lignum>  (305) 
38

>  <i_i_glide_rotatable_bonds>  (305) 
3

>  <r_i_docking_score>  (305) 
-3.22554

>  <r_i_glide_ligand_efficiency>  (305) 
-0.129022

>  <r_i_glide_ligand_efficiency_sa>  (305) 
-0.377261

>  <r_i_glide_ligand_efficiency_ln>  (305) 
-0.764549

>  <r_i_glide_gscore>  (305) 
-3.22554

>  <r_i_glide_lipo>  (305) 
-0.0965102

>  <r_i_glide_hbond>  (305) 
-0.111601

>  <r_i_glide_metal>  (305) 
-0

>  <r_i_glide_rewards>  (305) 
-1.62476

>  <r_i_glide_evdw>  (305) 
-25.106

>  <r_i_glide_ecoul>  (305) 
-3.91812

>  <r_i_glide_erotb>  (305) 
0.480104

>  <r_i_glide_esite>  (305) 
-0.029755

>  <r_i_glide_emodel>  (305) 
-35.5295

>  <r_i_glide_energy>  (305) 
-29.0241

>  <r_i_glide_einternal>  (305) 
0.436751

>  <r_i_glide_intrahb_reward>  (305) 
-0

>  <i_i_glide_confnum>  (305) 
1

>  <i_i_glide_posenum>  (305) 
11

>  <r_i_glide_eff_state_penalty>  (305) 
0

>  <ligand_id>  (305) 
91

>  <original_smiles>  (305) 
Cc1nnc2n1CN(C(=O)OC1C3CC4CC(C3)CC1C4)CC2(C)C

>  <smiles>  (305) 
[H]C([H])([H])c1nnc2n1C([H])([H])N(C(=O)OC1([H])C3([H])C([H])([H])C4([H])C([H])([H])C([H])(C3([H])[H])C([H])([H])C1([H])C4([H])[H])C([H])([H])C2(C([H])([H])[H])C([H])([H])[H]

$$$$
92:0:0
     RDKit          3D

 35 39  0  0  1  0  0  0  0  0999 V2000
    5.1114   -3.4581   -2.6734 C   0  0  0  0  0  0  0  0  0  0  0  0
    4.4656   -2.6122   -1.5529 C   0  0  0  0  0  0  0  0  0  0  0  0
    3.8193   -1.3945   -2.2883 C   0  0  0  0  0  0  0  0  0  0  0  0
    3.2930   -3.2577   -1.0996 O   0  0  0  0  0  0  0  0  0  0  0  0
    3.2052   -3.1447    0.2928 C   0  0  2  0  0  0  0  0  0  0  0  0
    3.3470   -1.5686    0.8049 C   0  0  0  0  0  0  0  0  0  0  0  0
    2.6230   -0.8478    1.6771 C   0  0  0  0  0  0  0  0  0  0  0  0
    3.8726   -0.2741    2.4292 C   0  0  0  0  0  0  0  0  0  0  0  0
    4.7222   -0.9885    1.3708 C   0  0  2  0  0  0  0  0  0  0  0  0
    6.3416   -1.0733    0.9057 C   0  0  0  0  0  0  0  0  0  0  0  0
    6.6620   -2.5717    0.0635 C   0  0  1  0  0  0  0  0  0  0  0  0
    6.0038   -4.1168    0.2265 C   0  0  0  0  0  0  0  0  0  0  0  0
    4.4064   -4.1922    0.7558 C   0  0  1  0  0  0  0  0  0  0  0  0
    4.6113   -3.4951    1.9937 C   0  0  0  0  0  0  0  0  0  0  0  0
    4.2270   -3.7610    3.1355 O   0  0  0  0  0  0  0  0  0  0  0  0
    5.2301   -2.2228    1.4097 C   0  0  1  0  0  0  0  0  0  0  0  0
    5.4555   -2.1319   -0.3613 C   0  0  2  0  0  0  0  0  0  0  0  0
    6.1636   -3.2060   -2.8075 H   0  0  0  0  0  0  0  0  0  0  0  0
    4.6180   -3.3037   -3.6333 H   0  0  0  0  0  0  0  0  0  0  0  0
    5.0214   -4.5280   -2.4798 H   0  0  0  0  0  0  0  0  0  0  0  0
    4.5468   -0.8303   -2.8697 H   0  0  0  0  0  0  0  0  0  0  0  0
    3.3485   -0.6917   -1.6034 H   0  0  0  0  0  0  0  0  0  0  0  0
    3.0337   -1.7177   -2.9745 H   0  0  0  0  0  0  0  0  0  0  0  0
    2.2322   -3.5234    0.6134 H   0  0  0  0  0  0  0  0  0  0  0  0
    1.5810   -0.9179    1.9831 H   0  0  0  0  0  0  0  0  0  0  0  0
    4.0042    0.8011    2.3887 H   0  0  0  0  0  0  0  0  0  0  0  0
    4.0772   -0.6448    3.4360 H   0  0  0  0  0  0  0  0  0  0  0  0
    6.6088   -0.1690    0.3363 H   0  0  0  0  0  0  0  0  0  0  0  0
    7.0495   -0.9141    1.7392 H   0  0  0  0  0  0  0  0  0  0  0  0
    7.4498   -2.5065   -0.6860 H   0  0  0  0  0  0  0  0  0  0  0  0
    6.1156   -4.6788   -0.6971 H   0  0  0  0  0  0  0  0  0  0  0  0
    6.6378   -4.6757    0.9231 H   0  0  0  0  0  0  0  0  0  0  0  0
    4.0622   -5.2099    0.9222 H   0  0  0  0  0  0  0  0  0  0  0  0
    5.9787   -2.4554    2.2266 H   0  0  0  0  0  0  0  0  0  0  0  0
    5.6482   -1.2357   -0.9943 H   0  0  0  0  0  0  0  0  0  0  0  0
  1  2  1  0
  1 18  1  0
  1 19  1  0
  1 20  1  0
  2 17  1  0
  2  3  1  0
  2  4  1  0
  3 21  1  0
  3 22  1  0
  3 23  1  0
  4  5  1  0
  5 13  1  0
  5  6  1  0
  5 24  1  1
  6  9  1  0
  6  7  2  0
  7  8  1  0
  7 25  1  0
  9  8  1  1
  8 26  1  0
  8 27  1  0
  9 16  1  0
  9 10  1  0
 10 11  1  0
 10 28  1  0
 10 29  1  0
 11 17  1  0
 11 12  1  0
 11 30  1  6
 12 13  1  0
 12 31  1  0
 12 32  1  0
 13 14  1  0
 13 33  1  1
 14 15  2  0
 14 16  1  0
 16 17  1  0
 16 34  1  1
 17 35  1  6
M  END
>  <i_m_ct_stereo_status>  (306) 
1

>  <s_m_source_file>  (306) 
/var/tmp/pbs.5076255.sched01/tmpagfdxo7m/88tnrj_5ym.sdf

>  <i_m_source_file_index>  (306) 
39

>  <i_lp_mmshare_version>  (306) 
48012

>  <i_f3d_flags>  (306) 
0

>  <s_epik_input>  (306) 
Tz1DMVtDQEhdMltDQEhdKEMoTzMpKFtDSDNdKVtDSDNdKVtDQEBIXShbQ0gyXTQpW0NIMl1bQ0BASF0xW0NASF0zQyhbQ0BAXTI0NSk9W0NIXVtDSDJdNQ==

>  <s_epik_cmdline>  (306) 
J2VwaWtfcHl0aG9uJywgJy1waHQnLCAnMi4wJywgJy1waCcsICc3LjAnLCAnLXRuJywgJzgnLCAnLW1hJywgJzIwMCcsICctaW1hZScsICc8aW5maWxlLm1hZT4nLCAnLW9tYWUnLCAnPG91dGZpbGUubWFlPic=

>  <r_lp_tautomer_probability>  (306) 
1

>  <r_epik_Ionization_Penalty>  (306) 
2.72733e-12

>  <r_epik_Ionization_Penalty_Charging>  (306) 
0

>  <r_epik_Ionization_Penalty_Neutral>  (306) 
2.72733e-12

>  <r_epik_State_Penalty>  (306) 
-0

>  <r_epik_Charging_Adjusted_Penalty>  (306) 
0

>  <i_epik_Tot_Q>  (306) 
0

>  <i_epik_Tot_abs_Q>  (306) 
0

>  <s_lp_Force_Field>  (306) 
OPLS3e

>  <r_lp_Energy>  (306) 
461.369

>  <b_lp_Chiralities_Consistent>  (306) 
1

>  <s_lp_Variant>  (306) 
92:0-1

>  <s_i_glide_gridfile>  (306) 
pfpi4k_grid

>  <i_i_glide_lignum>  (306) 
39

>  <i_i_glide_rotatable_bonds>  (306) 
0

>  <r_i_docking_score>  (306) 
-3.4063

>  <r_i_glide_ligand_efficiency>  (306) 
-0.20037

>  <r_i_glide_ligand_efficiency_sa>  (306) 
-0.515209

>  <r_i_glide_ligand_efficiency_ln>  (306) 
-0.888627

>  <r_i_glide_gscore>  (306) 
-3.4063

>  <r_i_glide_lipo>  (306) 
-0.585096

>  <r_i_glide_hbond>  (306) 
0

>  <r_i_glide_metal>  (306) 
-0

>  <r_i_glide_rewards>  (306) 
-1.87073

>  <r_i_glide_evdw>  (306) 
-21.9019

>  <r_i_glide_ecoul>  (306) 
0.964146

>  <r_i_glide_erotb>  (306) 
0

>  <r_i_glide_esite>  (306) 
0

>  <r_i_glide_emodel>  (306) 
-25.1173

>  <r_i_glide_energy>  (306) 
-20.9378

>  <r_i_glide_einternal>  (306) 
0

>  <r_i_glide_intrahb_reward>  (306) 
-0

>  <i_i_glide_confnum>  (306) 
1

>  <i_i_glide_posenum>  (306) 
27

>  <r_i_glide_eff_state_penalty>  (306) 
0

>  <ligand_id>  (306) 
92

>  <original_smiles>  (306) 
CC1(C)OC2C3=CCC34CC3CC2C(=O)C4C31

>  <smiles>  (306) 
[H]C1=C2C3([H])OC(C([H])([H])[H])(C([H])([H])[H])C4([H])C5([H])C(=O)C3([H])C([H])([H])C4([H])C([H])([H])C25C1([H])[H]

$$$$
92:0:1
     RDKit          3D

 35 39  0  0  1  0  0  0  0  0999 V2000
    3.4267   -1.0565   -2.8976 C   0  0  0  0  0  0  0  0  0  0  0  0
    3.6091   -2.3408   -2.0619 C   0  0  0  0  0  0  0  0  0  0  0  0
    2.3983   -3.2418   -2.4623 C   0  0  0  0  0  0  0  0  0  0  0  0
    4.6653   -3.0890   -2.6151 O   0  0  0  0  0  0  0  0  0  0  0  0
    5.4133   -3.6400   -1.5756 C   0  0  2  0  0  0  0  0  0  0  0  0
    4.4933   -4.4950   -0.4816 C   0  0  0  0  0  0  0  0  0  0  0  0
    4.6391   -5.7172    0.0593 C   0  0  0  0  0  0  0  0  0  0  0  0
    4.3376   -5.2332    1.5206 C   0  0  0  0  0  0  0  0  0  0  0  0
    4.0404   -3.8601    0.9066 C   0  0  2  0  0  0  0  0  0  0  0  0
    3.4160   -2.3704    1.4006 C   0  0  0  0  0  0  0  0  0  0  0  0
    3.9823   -1.1012    0.3452 C   0  0  1  0  0  0  0  0  0  0  0  0
    5.4178   -0.9007   -0.5136 C   0  0  0  0  0  0  0  0  0  0  0  0
    6.1999   -2.3100   -1.0036 C   0  0  1  0  0  0  0  0  0  0  0  0
    6.3601   -2.8866    0.3014 C   0  0  0  0  0  0  0  0  0  0  0  0
    7.3451   -3.4033    0.8306 O   0  0  0  0  0  0  0  0  0  0  0  0
    4.8880   -2.8504    0.7195 C   0  0  1  0  0  0  0  0  0  0  0  0
    3.7072   -2.1619   -0.4441 C   0  0  2  0  0  0  0  0  0  0  0  0
    2.8730   -0.3093   -2.3326 H   0  0  0  0  0  0  0  0  0  0  0  0
    2.8574   -1.2413   -3.8097 H   0  0  0  0  0  0  0  0  0  0  0  0
    4.3762   -0.6315   -3.2277 H   0  0  0  0  0  0  0  0  0  0  0  0
    1.4372   -2.7556   -2.3006 H   0  0  0  0  0  0  0  0  0  0  0  0
    2.3623   -4.1692   -1.8935 H   0  0  0  0  0  0  0  0  0  0  0  0
    2.4367   -3.5241   -3.5167 H   0  0  0  0  0  0  0  0  0  0  0  0
    6.1711   -4.2546   -2.0496 H   0  0  0  0  0  0  0  0  0  0  0  0
    5.1352   -6.6214   -0.2900 H   0  0  0  0  0  0  0  0  0  0  0  0
    3.4555   -5.6518    2.0020 H   0  0  0  0  0  0  0  0  0  0  0  0
    5.1757   -5.1931    2.2282 H   0  0  0  0  0  0  0  0  0  0  0  0
    2.3192   -2.4342    1.4711 H   0  0  0  0  0  0  0  0  0  0  0  0
    3.6082   -2.1369    2.4614 H   0  0  0  0  0  0  0  0  0  0  0  0
    3.2761   -0.2780    0.2284 H   0  0  0  0  0  0  0  0  0  0  0  0
    5.2635   -0.2597   -1.3789 H   0  0  0  0  0  0  0  0  0  0  0  0
    6.0953   -0.3059    0.1116 H   0  0  0  0  0  0  0  0  0  0  0  0
    7.1627   -2.1328   -1.4753 H   0  0  0  0  0  0  0  0  0  0  0  0
    5.3505   -2.3761    1.6315 H   0  0  0  0  0  0  0  0  0  0  0  0
    2.6076   -2.2876   -0.4558 H   0  0  0  0  0  0  0  0  0  0  0  0
  1  2  1  0
  1 18  1  0
  1 19  1  0
  1 20  1  0
  2 17  1  0
  2  3  1  0
  2  4  1  0
  3 21  1  0
  3 22  1  0
  3 23  1  0
  4  5  1  0
  5 13  1  0
  5  6  1  0
  5 24  1  6
  6  9  1  0
  6  7  2  0
  7  8  1  0
  7 25  1  0
  9  8  1  1
  8 26  1  0
  8 27  1  0
  9 16  1  0
  9 10  1  0
 10 11  1  0
 10 28  1  0
 10 29  1  0
 11 17  1  0
 11 12  1  0
 11 30  1  6
 12 13  1  0
 12 31  1  0
 12 32  1  0
 13 14  1  0
 13 33  1  6
 14 15  2  0
 14 16  1  0
 16 17  1  0
 16 34  1  1
 17 35  1  1
M  END
>  <i_m_ct_stereo_status>  (307) 
1

>  <s_m_source_file>  (307) 
/var/tmp/pbs.5076255.sched01/tmpagfdxo7m/88tnrj_5ym.sdf

>  <i_m_source_file_index>  (307) 
39

>  <i_lp_mmshare_version>  (307) 
48012

>  <i_f3d_flags>  (307) 
0

>  <s_epik_input>  (307) 
Tz1DMVtDQEhdMltDQEhdKEMoTzMpKFtDSDNdKVtDSDNdKVtDQEBIXShbQ0gyXTQpW0NIMl1bQ0BASF0xW0NASF0zQyhbQ0BAXTI0NSk9W0NIXVtDSDJdNQ==

>  <s_epik_cmdline>  (307) 
J2VwaWtfcHl0aG9uJywgJy1waHQnLCAnMi4wJywgJy1waCcsICc3LjAnLCAnLXRuJywgJzgnLCAnLW1hJywgJzIwMCcsICctaW1hZScsICc8aW5maWxlLm1hZT4nLCAnLW9tYWUnLCAnPG91dGZpbGUubWFlPic=

>  <r_lp_tautomer_probability>  (307) 
1

>  <r_epik_Ionization_Penalty>  (307) 
2.72733e-12

>  <r_epik_Ionization_Penalty_Charging>  (307) 
0

>  <r_epik_Ionization_Penalty_Neutral>  (307) 
2.72733e-12

>  <r_epik_State_Penalty>  (307) 
-0

>  <r_epik_Charging_Adjusted_Penalty>  (307) 
0

>  <i_epik_Tot_Q>  (307) 
0

>  <i_epik_Tot_abs_Q>  (307) 
0

>  <s_lp_Force_Field>  (307) 
OPLS3e

>  <r_lp_Energy>  (307) 
461.369

>  <b_lp_Chiralities_Consistent>  (307) 
1

>  <s_lp_Variant>  (307) 
92:0-1

>  <s_i_glide_gridfile>  (307) 
pfpi4k_grid

>  <i_i_glide_lignum>  (307) 
39

>  <i_i_glide_rotatable_bonds>  (307) 
0

>  <r_i_docking_score>  (307) 
-3.37097

>  <r_i_glide_ligand_efficiency>  (307) 
-0.198292

>  <r_i_glide_ligand_efficiency_sa>  (307) 
-0.509865

>  <r_i_glide_ligand_efficiency_ln>  (307) 
-0.87941

>  <r_i_glide_gscore>  (307) 
-3.37097

>  <r_i_glide_lipo>  (307) 
-0.286813

>  <r_i_glide_hbond>  (307) 
0

>  <r_i_glide_metal>  (307) 
-0

>  <r_i_glide_rewards>  (307) 
-1.94371

>  <r_i_glide_evdw>  (307) 
-21.0166

>  <r_i_glide_ecoul>  (307) 
-0.59744

>  <r_i_glide_erotb>  (307) 
0

>  <r_i_glide_esite>  (307) 
0

>  <r_i_glide_emodel>  (307) 
-25.5137

>  <r_i_glide_energy>  (307) 
-21.6141

>  <r_i_glide_einternal>  (307) 
0

>  <r_i_glide_intrahb_reward>  (307) 
-0

>  <i_i_glide_confnum>  (307) 
1

>  <i_i_glide_posenum>  (307) 
1

>  <r_i_glide_eff_state_penalty>  (307) 
0

>  <ligand_id>  (307) 
92

>  <original_smiles>  (307) 
CC1(C)OC2C3=CCC34CC3CC2C(=O)C4C31

>  <smiles>  (307) 
[H]C1=C2C3([H])OC(C([H])([H])[H])(C([H])([H])[H])C4([H])C5([H])C(=O)C3([H])C([H])([H])C4([H])C([H])([H])C25C1([H])[H]

$$$$
92:0:2
     RDKit          3D

 35 39  0  0  1  0  0  0  0  0999 V2000
    4.3378   -1.4375   -2.7316 C   0  0  0  0  0  0  0  0  0  0  0  0
    3.8583   -2.5371   -1.7670 C   0  0  0  0  0  0  0  0  0  0  0  0
    2.5145   -3.0575   -2.3735 C   0  0  0  0  0  0  0  0  0  0  0  0
    4.6553   -3.6880   -1.9621 O   0  0  0  0  0  0  0  0  0  0  0  0
    4.8995   -4.2886   -0.7197 C   0  0  2  0  0  0  0  0  0  0  0  0
    3.5174   -4.5245    0.1717 C   0  0  0  0  0  0  0  0  0  0  0  0
    3.0834   -5.6073    0.8593 C   0  0  0  0  0  0  0  0  0  0  0  0
    2.7072   -4.7798    2.1406 C   0  0  0  0  0  0  0  0  0  0  0  0
    3.0803   -3.5294    1.3352 C   0  0  2  0  0  0  0  0  0  0  0  0
    2.9896   -1.8505    1.5113 C   0  0  0  0  0  0  0  0  0  0  0  0
    4.1939   -1.0697    0.5136 C   0  0  1  0  0  0  0  0  0  0  0  0
    5.7417   -1.5407    0.0382 C   0  0  0  0  0  0  0  0  0  0  0  0
    6.0010   -3.2023   -0.1101 C   0  0  1  0  0  0  0  0  0  0  0  0
    5.6597   -3.5382    1.2379 C   0  0  0  0  0  0  0  0  0  0  0  0
    6.2405   -4.2648    2.0502 O   0  0  0  0  0  0  0  0  0  0  0  0
    4.2685   -2.9213    1.2656 C   0  0  1  0  0  0  0  0  0  0  0  0
    3.6975   -2.1028   -0.2124 C   0  0  2  0  0  0  0  0  0  0  0  0
    4.0184   -0.4476   -2.3956 H   0  0  0  0  0  0  0  0  0  0  0  0
    3.9360   -1.5763   -3.7349 H   0  0  0  0  0  0  0  0  0  0  0  0
    5.4169   -1.4513   -2.8343 H   0  0  0  0  0  0  0  0  0  0  0  0
    1.8023   -2.2401   -2.4974 H   0  0  0  0  0  0  0  0  0  0  0  0
    2.0271   -3.8100   -1.7657 H   0  0  0  0  0  0  0  0  0  0  0  0
    2.6560   -3.4968   -3.3600 H   0  0  0  0  0  0  0  0  0  0  0  0
    5.3661   -5.2611   -0.8798 H   0  0  0  0  0  0  0  0  0  0  0  0
    3.2906   -6.6647    0.7348 H   0  0  0  0  0  0  0  0  0  0  0  0
    1.6568   -4.7712    2.4185 H   0  0  0  0  0  0  0  0  0  0  0  0
    3.3367   -4.9054    3.0302 H   0  0  0  0  0  0  0  0  0  0  0  0
    1.9580   -1.5131    1.3074 H   0  0  0  0  0  0  0  0  0  0  0  0
    3.0400   -1.5004    2.5599 H   0  0  0  0  0  0  0  0  0  0  0  0
    3.8979   -0.0905    0.1405 H   0  0  0  0  0  0  0  0  0  0  0  0
    6.0239   -1.0372   -0.8840 H   0  0  0  0  0  0  0  0  0  0  0  0
    6.4514   -1.1281    0.7634 H   0  0  0  0  0  0  0  0  0  0  0  0
    7.0373   -3.4547   -0.3376 H   0  0  0  0  0  0  0  0  0  0  0  0
    4.6957   -2.4816    2.2187 H   0  0  0  0  0  0  0  0  0  0  0  0
    2.6551   -1.8442   -0.4964 H   0  0  0  0  0  0  0  0  0  0  0  0
  1  2  1  0
  1 18  1  0
  1 19  1  0
  1 20  1  0
  2 17  1  0
  2  3  1  0
  2  4  1  0
  3 21  1  0
  3 22  1  0
  3 23  1  0
  4  5  1  0
  5 13  1  0
  5  6  1  0
  5 24  1  6
  6  9  1  0
  6  7  2  0
  7  8  1  0
  7 25  1  0
  9  8  1  1
  8 26  1  0
  8 27  1  0
  9 16  1  0
  9 10  1  0
 10 11  1  0
 10 28  1  0
 10 29  1  0
 11 17  1  0
 11 12  1  0
 11 30  1  6
 12 13  1  0
 12 31  1  0
 12 32  1  0
 13 14  1  0
 13 33  1  1
 14 15  2  0
 14 16  1  0
 16 17  1  0
 16 34  1  1
 17 35  1  1
M  END
>  <i_m_ct_stereo_status>  (308) 
1

>  <s_m_source_file>  (308) 
/var/tmp/pbs.5076255.sched01/tmpagfdxo7m/88tnrj_5ym.sdf

>  <i_m_source_file_index>  (308) 
39

>  <i_lp_mmshare_version>  (308) 
48012

>  <i_f3d_flags>  (308) 
0

>  <s_epik_input>  (308) 
Tz1DMVtDQEhdMltDQEhdKEMoTzMpKFtDSDNdKVtDSDNdKVtDQEBIXShbQ0gyXTQpW0NIMl1bQ0BASF0xW0NASF0zQyhbQ0BAXTI0NSk9W0NIXVtDSDJdNQ==

>  <s_epik_cmdline>  (308) 
J2VwaWtfcHl0aG9uJywgJy1waHQnLCAnMi4wJywgJy1waCcsICc3LjAnLCAnLXRuJywgJzgnLCAnLW1hJywgJzIwMCcsICctaW1hZScsICc8aW5maWxlLm1hZT4nLCAnLW9tYWUnLCAnPG91dGZpbGUubWFlPic=

>  <r_lp_tautomer_probability>  (308) 
1

>  <r_epik_Ionization_Penalty>  (308) 
2.72733e-12

>  <r_epik_Ionization_Penalty_Charging>  (308) 
0

>  <r_epik_Ionization_Penalty_Neutral>  (308) 
2.72733e-12

>  <r_epik_State_Penalty>  (308) 
-0

>  <r_epik_Charging_Adjusted_Penalty>  (308) 
0

>  <i_epik_Tot_Q>  (308) 
0

>  <i_epik_Tot_abs_Q>  (308) 
0

>  <s_lp_Force_Field>  (308) 
OPLS3e

>  <r_lp_Energy>  (308) 
461.369

>  <b_lp_Chiralities_Consistent>  (308) 
1

>  <s_lp_Variant>  (308) 
92:0-1

>  <s_i_glide_gridfile>  (308) 
pfpi4k_grid

>  <i_i_glide_lignum>  (308) 
39

>  <i_i_glide_rotatable_bonds>  (308) 
0

>  <r_i_docking_score>  (308) 
-3.12679

>  <r_i_glide_ligand_efficiency>  (308) 
-0.183929

>  <r_i_glide_ligand_efficiency_sa>  (308) 
-0.472932

>  <r_i_glide_ligand_efficiency_ln>  (308) 
-0.815709

>  <r_i_glide_gscore>  (308) 
-3.12679

>  <r_i_glide_lipo>  (308) 
-0.121141

>  <r_i_glide_hbond>  (308) 
0

>  <r_i_glide_metal>  (308) 
-0

>  <r_i_glide_rewards>  (308) 
-1.92783

>  <r_i_glide_evdw>  (308) 
-21.4391

>  <r_i_glide_ecoul>  (308) 
-0.0390973

>  <r_i_glide_erotb>  (308) 
0

>  <r_i_glide_esite>  (308) 
0

>  <r_i_glide_emodel>  (308) 
-25.2385

>  <r_i_glide_energy>  (308) 
-21.4782

>  <r_i_glide_einternal>  (308) 
0

>  <r_i_glide_intrahb_reward>  (308) 
-0

>  <i_i_glide_confnum>  (308) 
2

>  <i_i_glide_posenum>  (308) 
18

>  <r_i_glide_eff_state_penalty>  (308) 
0

>  <ligand_id>  (308) 
92

>  <original_smiles>  (308) 
CC1(C)OC2C3=CCC34CC3CC2C(=O)C4C31

>  <smiles>  (308) 
[H]C1=C2C3([H])OC(C([H])([H])[H])(C([H])([H])[H])C4([H])C5([H])C(=O)C3([H])C([H])([H])C4([H])C([H])([H])C25C1([H])[H]

$$$$
93:0:0
     RDKit          3D

 33 34  0  0  1  0  0  0  0  0999 V2000
   -6.4661   -5.1266   -4.0814 C   0  0  0  0  0  0  0  0  0  0  0  0
   -7.5269   -4.9399   -5.1249 C   0  0  0  0  0  0  0  0  0  0  0  0
   -8.4165   -3.9336   -5.1420 N   0  0  0  0  0  0  0  0  0  0  0  0
   -9.2430   -4.0526   -6.2387 C   0  0  0  0  0  0  0  0  0  0  0  0
   -8.8110   -5.1758   -6.9101 C   0  0  0  0  0  0  0  0  0  0  0  0
   -9.3217   -5.6724   -8.1281 N   0  0  0  0  0  0  0  0  0  0  0  0
  -10.7537   -5.8520   -8.3644 C   0  0  0  0  0  0  0  0  0  0  0  0
  -11.0639   -7.3221   -8.7285 C   0  0  0  0  0  0  0  0  0  0  0  0
  -10.2421   -7.7546   -9.8670 N   0  0  0  0  0  0  0  0  0  0  0  0
  -10.5631   -9.1362  -10.2067 C   0  0  0  0  0  0  0  0  0  0  0  0
   -8.8284   -7.6625   -9.4960 C   0  0  0  0  0  0  0  0  0  0  0  0
   -8.4536   -6.1939   -9.1804 C   0  0  0  0  0  0  0  0  0  0  0  0
   -7.7638   -5.7169   -6.1930 N   0  0  0  0  0  0  0  0  0  0  0  0
   -6.9820   -6.9456   -6.4487 C   0  0  0  0  0  0  0  0  0  0  0  0
   -6.5393   -4.3334   -3.3408 H   0  0  0  0  0  0  0  0  0  0  0  0
   -5.4882   -5.1028   -4.5603 H   0  0  0  0  0  0  0  0  0  0  0  0
   -6.5951   -6.0945   -3.5980 H   0  0  0  0  0  0  0  0  0  0  0  0
  -10.0239   -3.3367   -6.4408 H   0  0  0  0  0  0  0  0  0  0  0  0
  -11.3544   -5.5497   -7.5056 H   0  0  0  0  0  0  0  0  0  0  0  0
  -11.0647   -5.2109   -9.1893 H   0  0  0  0  0  0  0  0  0  0  0  0
  -10.9001   -7.9759   -7.8693 H   0  0  0  0  0  0  0  0  0  0  0  0
  -12.1168   -7.4178   -8.9951 H   0  0  0  0  0  0  0  0  0  0  0  0
   -9.9495   -9.4832  -11.0413 H   0  0  0  0  0  0  0  0  0  0  0  0
  -11.6049   -9.2283  -10.5088 H   0  0  0  0  0  0  0  0  0  0  0  0
  -10.3946   -9.8160   -9.3680 H   0  0  0  0  0  0  0  0  0  0  0  0
   -8.6545   -8.3280   -8.6546 H   0  0  0  0  0  0  0  0  0  0  0  0
   -8.2070   -8.0259  -10.3113 H   0  0  0  0  0  0  0  0  0  0  0  0
   -8.5972   -5.5772  -10.0723 H   0  0  0  0  0  0  0  0  0  0  0  0
   -7.4043   -6.1224   -8.8823 H   0  0  0  0  0  0  0  0  0  0  0  0
   -7.3732   -7.4358   -7.3288 H   0  0  0  0  0  0  0  0  0  0  0  0
   -7.0579   -7.5902   -5.5621 H   0  0  0  0  0  0  0  0  0  0  0  0
   -5.9364   -6.6729   -6.6104 H   0  0  0  0  0  0  0  0  0  0  0  0
   -8.4610   -3.1903   -4.4521 H   0  0  0  0  0  0  0  0  0  0  0  0
  1  2  1  0
  1 15  1  0
  1 16  1  0
  1 17  1  0
  2 13  1  0
  2  3  2  0
  3  4  1  0
  3 33  1  0
  4  5  2  0
  4 18  1  0
  5  6  1  0
  5 13  1  0
  6 12  1  0
  6  7  1  0
  7  8  1  0
  7 19  1  0
  7 20  1  0
  8  9  1  0
  8 21  1  0
  8 22  1  0
  9 10  1  0
  9 11  1  0
 10 23  1  0
 10 24  1  0
 10 25  1  0
 11 12  1  0
 11 26  1  0
 11 27  1  0
 12 28  1  0
 12 29  1  0
 13 14  1  0
 14 30  1  0
 14 31  1  0
 14 32  1  0
M  CHG  1   3   1
M  END
>  <i_m_ct_stereo_status>  (309) 
1

>  <s_m_source_file>  (309) 
/var/tmp/pbs.5076255.sched01/tmpagfdxo7m/88tnrj_5ym.sdf

>  <i_m_source_file_index>  (309) 
40

>  <i_lp_mmshare_version>  (309) 
48012

>  <i_f3d_flags>  (309) 
0

>  <s_epik_input>  (309) 
W0NIM11jMW5bY0hdYyhuMVtDSDNdKU4yW0NIMl1bQ0gyXU4oW0NIM10pW0NIMl1bQ0gyXTI=

>  <s_epik_cmdline>  (309) 
J2VwaWtfcHl0aG9uJywgJy1waHQnLCAnMi4wJywgJy1waCcsICc3LjAnLCAnLXRuJywgJzgnLCAnLW1hJywgJzIwMCcsICctaW1hZScsICc8aW5maWxlLm1hZT4nLCAnLW9tYWUnLCAnPG91dGZpbGUubWFlPic=

>  <r_lp_tautomer_probability>  (309) 
1

>  <r_epik_Ionization_Penalty>  (309) 
0.482293

>  <r_epik_Ionization_Penalty_Charging>  (309) 
0

>  <r_epik_Ionization_Penalty_Neutral>  (309) 
0.482293

>  <r_epik_State_Penalty>  (309) 
0.399957

>  <r_epik_Charging_Adjusted_Penalty>  (309) 
0.399957

>  <i_epik_Tot_Q>  (309) 
1

>  <i_epik_Tot_abs_Q>  (309) 
1

>  <s_lp_Force_Field>  (309) 
OPLS3e

>  <r_lp_Energy>  (309) 
30.2333

>  <b_lp_Chiralities_Consistent>  (309) 
1

>  <s_lp_Variant>  (309) 
93:0-1

>  <s_i_glide_gridfile>  (309) 
pfpi4k_grid

>  <i_i_glide_lignum>  (309) 
40

>  <i_i_glide_rotatable_bonds>  (309) 
1

>  <r_i_docking_score>  (309) 
-5.06328

>  <r_i_glide_ligand_efficiency>  (309) 
-0.361663

>  <r_i_glide_ligand_efficiency_sa>  (309) 
-0.87166

>  <r_i_glide_ligand_efficiency_ln>  (309) 
-1.39137

>  <r_i_glide_gscore>  (309) 
-5.06328

>  <r_i_glide_lipo>  (309) 
-1.32586

>  <r_i_glide_hbond>  (309) 
0

>  <r_i_glide_metal>  (309) 
-0

>  <r_i_glide_rewards>  (309) 
-3.02605

>  <r_i_glide_evdw>  (309) 
-20.5333

>  <r_i_glide_ecoul>  (309) 
-0.730495

>  <r_i_glide_erotb>  (309) 
0.424871

>  <r_i_glide_esite>  (309) 
0

>  <r_i_glide_emodel>  (309) 
-28.5665

>  <r_i_glide_energy>  (309) 
-21.2638

>  <r_i_glide_einternal>  (309) 
1.26929

>  <r_i_glide_intrahb_reward>  (309) 
-0

>  <i_i_glide_confnum>  (309) 
1

>  <i_i_glide_posenum>  (309) 
5

>  <r_i_glide_eff_state_penalty>  (309) 
0

>  <ligand_id>  (309) 
93

>  <original_smiles>  (309) 
Cc1ncc(N2CCN(C)CC2)n1C

>  <smiles>  (309) 
[H]c1c(N2C([H])([H])C([H])([H])N(C([H])([H])[H])C([H])([H])C2([H])[H])n(C([H])([H])[H])c(C([H])([H])[H])[n+]1[H]

$$$$
93:0:1
     RDKit          3D

 33 34  0  0  1  0  0  0  0  0999 V2000
    2.4898    0.5033    1.7820 C   0  0  0  0  0  0  0  0  0  0  0  0
    1.4144    1.0108    2.6827 C   0  0  0  0  0  0  0  0  0  0  0  0
    0.6819    2.1236    2.4791 N   0  0  0  0  0  0  0  0  0  0  0  0
   -0.2191    2.2739    3.5025 C   0  0  0  0  0  0  0  0  0  0  0  0
    0.0071    1.2166    4.3626 C   0  0  0  0  0  0  0  0  0  0  0  0
   -0.6506    0.9910    5.5863 N   0  0  0  0  0  0  0  0  0  0  0  0
   -2.0816    1.1944    5.7646 C   0  0  0  0  0  0  0  0  0  0  0  0
   -2.3506    2.0213    7.0420 C   0  0  0  0  0  0  0  0  0  0  0  0
   -1.6966    1.3973    8.1968 N   0  0  0  0  0  0  0  0  0  0  0  0
   -1.9603    2.1816    9.4001 C   0  0  0  0  0  0  0  0  0  0  0  0
   -0.2520    1.3679    7.9815 C   0  0  0  0  0  0  0  0  0  0  0  0
    0.0766    0.5154    6.7573 C   0  0  0  0  0  0  0  0  0  0  0  0
    1.0049    0.4366    3.8313 N   0  0  0  0  0  0  0  0  0  0  0  0
    1.5960   -0.8285    4.3356 C   0  0  0  0  0  0  0  0  0  0  0  0
    2.5900    1.1624    0.9240 H   0  0  0  0  0  0  0  0  0  0  0  0
    2.2190   -0.4959    1.4403 H   0  0  0  0  0  0  0  0  0  0  0  0
    3.4319    0.4676    2.3314 H   0  0  0  0  0  0  0  0  0  0  0  0
   -0.9035    3.1028    3.5377 H   0  0  0  0  0  0  0  0  0  0  0  0
   -2.5353    1.6654    4.8908 H   0  0  0  0  0  0  0  0  0  0  0  0
   -2.5510    0.2157    5.8622 H   0  0  0  0  0  0  0  0  0  0  0  0
   -1.9777    3.0376    6.9098 H   0  0  0  0  0  0  0  0  0  0  0  0
   -3.4234    2.0881    7.2340 H   0  0  0  0  0  0  0  0  0  0  0  0
   -1.4691    1.7383   10.2729 H   0  0  0  0  0  0  0  0  0  0  0  0
   -3.0317    2.2245    9.6112 H   0  0  0  0  0  0  0  0  0  0  0  0
   -1.5853    3.2037    9.2910 H   0  0  0  0  0  0  0  0  0  0  0  0
    0.1454    2.3725    7.8619 H   0  0  0  0  0  0  0  0  0  0  0  0
    0.2421    0.9356    8.8473 H   0  0  0  0  0  0  0  0  0  0  0  0
   -0.2117   -0.5224    6.9384 H   0  0  0  0  0  0  0  0  0  0  0  0
    1.1566    0.5634    6.6039 H   0  0  0  0  0  0  0  0  0  0  0  0
    1.0600   -1.1394    5.2404 H   0  0  0  0  0  0  0  0  0  0  0  0
    2.6587   -0.6470    4.5594 H   0  0  0  0  0  0  0  0  0  0  0  0
    1.4951   -1.5888    3.5445 H   0  0  0  0  0  0  0  0  0  0  0  0
    0.7510    2.7700    1.6808 H   0  0  0  0  0  0  0  0  0  0  0  0
  1  2  1  0
  1 15  1  0
  1 16  1  0
  1 17  1  0
  2 13  1  0
  2  3  2  0
  3  4  1  0
  3 33  1  0
  4  5  2  0
  4 18  1  0
  5  6  1  0
  5 13  1  0
  6 12  1  0
  6  7  1  0
  7  8  1  0
  7 19  1  0
  7 20  1  0
  8  9  1  0
  8 21  1  0
  8 22  1  0
  9 10  1  0
  9 11  1  0
 10 23  1  0
 10 24  1  0
 10 25  1  0
 11 12  1  0
 11 26  1  0
 11 27  1  0
 12 28  1  0
 12 29  1  0
 13 14  1  0
 14 30  1  0
 14 31  1  0
 14 32  1  0
M  CHG  1   3   1
M  END
>  <i_m_ct_stereo_status>  (310) 
1

>  <s_m_source_file>  (310) 
/var/tmp/pbs.5076255.sched01/tmpagfdxo7m/88tnrj_5ym.sdf

>  <i_m_source_file_index>  (310) 
40

>  <i_lp_mmshare_version>  (310) 
48012

>  <i_f3d_flags>  (310) 
0

>  <s_epik_input>  (310) 
W0NIM11jMW5bY0hdYyhuMVtDSDNdKU4yW0NIMl1bQ0gyXU4oW0NIM10pW0NIMl1bQ0gyXTI=

>  <s_epik_cmdline>  (310) 
J2VwaWtfcHl0aG9uJywgJy1waHQnLCAnMi4wJywgJy1waCcsICc3LjAnLCAnLXRuJywgJzgnLCAnLW1hJywgJzIwMCcsICctaW1hZScsICc8aW5maWxlLm1hZT4nLCAnLW9tYWUnLCAnPG91dGZpbGUubWFlPic=

>  <r_lp_tautomer_probability>  (310) 
1

>  <r_epik_Ionization_Penalty>  (310) 
0.482293

>  <r_epik_Ionization_Penalty_Charging>  (310) 
0

>  <r_epik_Ionization_Penalty_Neutral>  (310) 
0.482293

>  <r_epik_State_Penalty>  (310) 
0.399957

>  <r_epik_Charging_Adjusted_Penalty>  (310) 
0.399957

>  <i_epik_Tot_Q>  (310) 
1

>  <i_epik_Tot_abs_Q>  (310) 
1

>  <s_lp_Force_Field>  (310) 
OPLS3e

>  <r_lp_Energy>  (310) 
30.2333

>  <b_lp_Chiralities_Consistent>  (310) 
1

>  <s_lp_Variant>  (310) 
93:0-1

>  <s_i_glide_gridfile>  (310) 
pfpi4k_grid

>  <i_i_glide_lignum>  (310) 
40

>  <i_i_glide_rotatable_bonds>  (310) 
1

>  <r_i_docking_score>  (310) 
-3.48386

>  <r_i_glide_ligand_efficiency>  (310) 
-0.248847

>  <r_i_glide_ligand_efficiency_sa>  (310) 
-0.599756

>  <r_i_glide_ligand_efficiency_ln>  (310) 
-0.957351

>  <r_i_glide_gscore>  (310) 
-3.48386

>  <r_i_glide_lipo>  (310) 
0

>  <r_i_glide_hbond>  (310) 
-0.251699

>  <r_i_glide_metal>  (310) 
-0

>  <r_i_glide_rewards>  (310) 
-2.0776

>  <r_i_glide_evdw>  (310) 
-10.6748

>  <r_i_glide_ecoul>  (310) 
-6.03035

>  <r_i_glide_erotb>  (310) 
0.424871

>  <r_i_glide_esite>  (310) 
-0.141133

>  <r_i_glide_emodel>  (310) 
-21.8369

>  <r_i_glide_energy>  (310) 
-16.7051

>  <r_i_glide_einternal>  (310) 
0.491676

>  <r_i_glide_intrahb_reward>  (310) 
-0

>  <i_i_glide_confnum>  (310) 
1

>  <i_i_glide_posenum>  (310) 
30

>  <r_i_glide_eff_state_penalty>  (310) 
0

>  <ligand_id>  (310) 
93

>  <original_smiles>  (310) 
Cc1ncc(N2CCN(C)CC2)n1C

>  <smiles>  (310) 
[H]c1c(N2C([H])([H])C([H])([H])N(C([H])([H])[H])C([H])([H])C2([H])[H])n(C([H])([H])[H])c(C([H])([H])[H])[n+]1[H]

$$$$
93:0:2
     RDKit          3D

 33 34  0  0  1  0  0  0  0  0999 V2000
    2.3367    0.4084    1.5928 C   0  0  0  0  0  0  0  0  0  0  0  0
    1.0805    0.7750    2.3103 C   0  0  0  0  0  0  0  0  0  0  0  0
   -0.0557    1.1816    1.7120 N   0  0  0  0  0  0  0  0  0  0  0  0
   -1.0082    1.4420    2.6772 C   0  0  0  0  0  0  0  0  0  0  0  0
   -0.4211    1.1414    3.8906 C   0  0  0  0  0  0  0  0  0  0  0  0
   -1.0386    1.1845    5.1560 N   0  0  0  0  0  0  0  0  0  0  0  0
   -1.7970    2.3491    5.6123 C   0  0  0  0  0  0  0  0  0  0  0  0
   -1.2171    2.8853    6.9402 C   0  0  0  0  0  0  0  0  0  0  0  0
   -1.1566    1.8164    7.9471 N   0  0  0  0  0  0  0  0  0  0  0  0
   -0.6132    2.3588    9.1928 C   0  0  0  0  0  0  0  0  0  0  0  0
   -0.2652    0.7619    7.4562 C   0  0  0  0  0  0  0  0  0  0  0  0
   -0.8370    0.1423    6.1563 C   0  0  0  0  0  0  0  0  0  0  0  0
    0.8778    0.7481    3.6405 N   0  0  0  0  0  0  0  0  0  0  0  0
    1.9431    0.3526    4.5877 C   0  0  0  0  0  0  0  0  0  0  0  0
    2.1803    0.5147    0.5253 H   0  0  0  0  0  0  0  0  0  0  0  0
    2.5882   -0.6260    1.8242 H   0  0  0  0  0  0  0  0  0  0  0  0
    3.1313    1.0746    1.9306 H   0  0  0  0  0  0  0  0  0  0  0  0
   -1.9992    1.7750    2.4206 H   0  0  0  0  0  0  0  0  0  0  0  0
   -1.8121    3.1373    4.8544 H   0  0  0  0  0  0  0  0  0  0  0  0
   -2.8387    2.0832    5.7893 H   0  0  0  0  0  0  0  0  0  0  0  0
   -0.2263    3.3142    6.7792 H   0  0  0  0  0  0  0  0  0  0  0  0
   -1.8469    3.6861    7.3231 H   0  0  0  0  0  0  0  0  0  0  0  0
   -0.5278    1.5805    9.9569 H   0  0  0  0  0  0  0  0  0  0  0  0
   -1.2573    3.1381    9.5950 H   0  0  0  0  0  0  0  0  0  0  0  0
    0.3830    2.7869    9.0510 H   0  0  0  0  0  0  0  0  0  0  0  0
    0.7239    1.1936    7.3135 H   0  0  0  0  0  0  0  0  0  0  0  0
   -0.1556   -0.0087    8.2169 H   0  0  0  0  0  0  0  0  0  0  0  0
   -1.8134   -0.3088    6.3600 H   0  0  0  0  0  0  0  0  0  0  0  0
   -0.1681   -0.6355    5.7776 H   0  0  0  0  0  0  0  0  0  0  0  0
    1.5522    0.4509    5.5975 H   0  0  0  0  0  0  0  0  0  0  0  0
    2.8042    1.0164    4.4090 H   0  0  0  0  0  0  0  0  0  0  0  0
    2.2205   -0.6871    4.3783 H   0  0  0  0  0  0  0  0  0  0  0  0
   -0.2039    1.2313    0.7015 H   0  0  0  0  0  0  0  0  0  0  0  0
  1  2  1  0
  1 15  1  0
  1 16  1  0
  1 17  1  0
  2 13  1  0
  2  3  2  0
  3  4  1  0
  3 33  1  0
  4  5  2  0
  4 18  1  0
  5  6  1  0
  5 13  1  0
  6 12  1  0
  6  7  1  0
  7  8  1  0
  7 19  1  0
  7 20  1  0
  8  9  1  0
  8 21  1  0
  8 22  1  0
  9 10  1  0
  9 11  1  0
 10 23  1  0
 10 24  1  0
 10 25  1  0
 11 12  1  0
 11 26  1  0
 11 27  1  0
 12 28  1  0
 12 29  1  0
 13 14  1  0
 14 30  1  0
 14 31  1  0
 14 32  1  0
M  CHG  1   3   1
M  END
>  <i_m_ct_stereo_status>  (311) 
1

>  <s_m_source_file>  (311) 
/var/tmp/pbs.5076255.sched01/tmpagfdxo7m/88tnrj_5ym.sdf

>  <i_m_source_file_index>  (311) 
40

>  <i_lp_mmshare_version>  (311) 
48012

>  <i_f3d_flags>  (311) 
0

>  <s_epik_input>  (311) 
W0NIM11jMW5bY0hdYyhuMVtDSDNdKU4yW0NIMl1bQ0gyXU4oW0NIM10pW0NIMl1bQ0gyXTI=

>  <s_epik_cmdline>  (311) 
J2VwaWtfcHl0aG9uJywgJy1waHQnLCAnMi4wJywgJy1waCcsICc3LjAnLCAnLXRuJywgJzgnLCAnLW1hJywgJzIwMCcsICctaW1hZScsICc8aW5maWxlLm1hZT4nLCAnLW9tYWUnLCAnPG91dGZpbGUubWFlPic=

>  <r_lp_tautomer_probability>  (311) 
1

>  <r_epik_Ionization_Penalty>  (311) 
0.482293

>  <r_epik_Ionization_Penalty_Charging>  (311) 
0

>  <r_epik_Ionization_Penalty_Neutral>  (311) 
0.482293

>  <r_epik_State_Penalty>  (311) 
0.399957

>  <r_epik_Charging_Adjusted_Penalty>  (311) 
0.399957

>  <i_epik_Tot_Q>  (311) 
1

>  <i_epik_Tot_abs_Q>  (311) 
1

>  <s_lp_Force_Field>  (311) 
OPLS3e

>  <r_lp_Energy>  (311) 
30.2333

>  <b_lp_Chiralities_Consistent>  (311) 
1

>  <s_lp_Variant>  (311) 
93:0-1

>  <s_i_glide_gridfile>  (311) 
pfpi4k_grid

>  <i_i_glide_lignum>  (311) 
40

>  <i_i_glide_rotatable_bonds>  (311) 
1

>  <r_i_docking_score>  (311) 
-3.23531

>  <r_i_glide_ligand_efficiency>  (311) 
-0.231093

>  <r_i_glide_ligand_efficiency_sa>  (311) 
-0.556968

>  <r_i_glide_ligand_efficiency_ln>  (311) 
-0.889051

>  <r_i_glide_gscore>  (311) 
-3.23531

>  <r_i_glide_lipo>  (311) 
-0.0350422

>  <r_i_glide_hbond>  (311) 
-0.174624

>  <r_i_glide_metal>  (311) 
-0

>  <r_i_glide_rewards>  (311) 
-2.0776

>  <r_i_glide_evdw>  (311) 
-11.9406

>  <r_i_glide_ecoul>  (311) 
-4.06531

>  <r_i_glide_erotb>  (311) 
0.424871

>  <r_i_glide_esite>  (311) 
-0.166079

>  <r_i_glide_emodel>  (311) 
-20.1056

>  <r_i_glide_energy>  (311) 
-16.0059

>  <r_i_glide_einternal>  (311) 
1.2707

>  <r_i_glide_intrahb_reward>  (311) 
-0

>  <i_i_glide_confnum>  (311) 
1

>  <i_i_glide_posenum>  (311) 
1

>  <r_i_glide_eff_state_penalty>  (311) 
0

>  <ligand_id>  (311) 
93

>  <original_smiles>  (311) 
Cc1ncc(N2CCN(C)CC2)n1C

>  <smiles>  (311) 
[H]c1c(N2C([H])([H])C([H])([H])N(C([H])([H])[H])C([H])([H])C2([H])[H])n(C([H])([H])[H])c(C([H])([H])[H])[n+]1[H]

$$$$
93:1:0
     RDKit          3D

 34 35  0  0  1  0  0  0  0  0999 V2000
   -4.7068  -10.5455   -5.8048 C   0  0  0  0  0  0  0  0  0  0  0  0
   -5.7811   -9.6306   -6.2847 C   0  0  0  0  0  0  0  0  0  0  0  0
   -6.8960  -10.0086   -6.9120 N   0  0  0  0  0  0  0  0  0  0  0  0
   -7.6685   -8.9272   -7.2168 C   0  0  0  0  0  0  0  0  0  0  0  0
   -6.9903   -7.8379   -6.7350 C   0  0  0  0  0  0  0  0  0  0  0  0
   -7.4227   -6.4884   -6.7802 N   0  0  0  0  0  0  0  0  0  0  0  0
   -8.2267   -5.9928   -7.9056 C   0  0  0  0  0  0  0  0  0  0  0  0
   -9.4185   -5.1897   -7.3879 C   0  0  0  0  0  0  0  0  0  0  0  0
   -9.0058   -4.1638   -6.3841 N   0  0  0  0  0  0  0  0  0  0  0  0
  -10.1365   -3.3789   -5.8992 C   0  0  0  0  0  0  0  0  0  0  0  0
   -8.2494   -4.7692   -5.2592 C   0  0  0  0  0  0  0  0  0  0  0  0
   -7.0604   -5.5399   -5.7383 C   0  0  0  0  0  0  0  0  0  0  0  0
   -5.8269   -8.3133   -6.1783 N   0  0  0  0  0  0  0  0  0  0  0  0
   -4.7100   -7.5502   -5.5557 C   0  0  0  0  0  0  0  0  0  0  0  0
   -4.9583  -11.5740   -6.0497 H   0  0  0  0  0  0  0  0  0  0  0  0
   -4.6083  -10.4362   -4.7273 H   0  0  0  0  0  0  0  0  0  0  0  0
   -3.7767  -10.2683   -6.2929 H   0  0  0  0  0  0  0  0  0  0  0  0
   -8.6294   -9.0162   -7.7274 H   0  0  0  0  0  0  0  0  0  0  0  0
   -7.5882   -5.3509   -8.5028 H   0  0  0  0  0  0  0  0  0  0  0  0
   -8.5521   -6.7805   -8.5834 H   0  0  0  0  0  0  0  0  0  0  0  0
   -9.9506   -4.7067   -8.2134 H   0  0  0  0  0  0  0  0  0  0  0  0
  -10.1288   -5.8620   -6.9089 H   0  0  0  0  0  0  0  0  0  0  0  0
  -10.8700   -4.0362   -5.3875 H   0  0  0  0  0  0  0  0  0  0  0  0
  -10.6641   -2.8437   -6.7067 H   0  0  0  0  0  0  0  0  0  0  0  0
   -9.7875   -2.6578   -5.1596 H   0  0  0  0  0  0  0  0  0  0  0  0
   -7.9410   -4.0042   -4.5422 H   0  0  0  0  0  0  0  0  0  0  0  0
   -8.9018   -5.4598   -4.7280 H   0  0  0  0  0  0  0  0  0  0  0  0
   -6.6194   -6.0547   -4.8763 H   0  0  0  0  0  0  0  0  0  0  0  0
   -6.3070   -4.8540   -6.1339 H   0  0  0  0  0  0  0  0  0  0  0  0
   -4.8500   -6.4845   -5.6473 H   0  0  0  0  0  0  0  0  0  0  0  0
   -3.7807   -7.8344   -6.0400 H   0  0  0  0  0  0  0  0  0  0  0  0
   -4.6469   -7.8163   -4.5021 H   0  0  0  0  0  0  0  0  0  0  0  0
   -7.1417  -10.9733   -7.1342 H   0  0  0  0  0  0  0  0  0  0  0  0
   -8.3544   -3.5264   -6.8456 H   0  0  0  0  0  0  0  0  0  0  0  0
  1  2  1  0
  1 15  1  0
  1 16  1  0
  1 17  1  0
  2 13  1  0
  2  3  2  0
  3  4  1  0
  3 33  1  0
  4  5  2  0
  4 18  1  0
  5  6  1  0
  5 13  1  0
  6 12  1  0
  6  7  1  0
  7  8  1  0
  7 19  1  0
  7 20  1  0
  8  9  1  0
  8 21  1  0
  8 22  1  0
  9 10  1  0
  9 11  1  0
  9 34  1  0
 10 23  1  0
 10 24  1  0
 10 25  1  0
 11 12  1  0
 11 26  1  0
 11 27  1  0
 12 28  1  0
 12 29  1  0
 13 14  1  0
 14 30  1  0
 14 31  1  0
 14 32  1  0
M  CHG  2   3   1   9   1
M  END
>  <i_m_ct_stereo_status>  (312) 
1

>  <s_m_source_file>  (312) 
/var/tmp/pbs.5076255.sched01/tmpagfdxo7m/88tnrj_5ym.sdf

>  <i_m_source_file_index>  (312) 
41

>  <i_lp_mmshare_version>  (312) 
48012

>  <i_f3d_flags>  (312) 
0

>  <s_epik_input>  (312) 
W0NIM11jMW5bY0hdYyhuMVtDSDNdKU4yW0NIMl1bQ0gyXU4oW0NIM10pW0NIMl1bQ0gyXTI=

>  <s_epik_cmdline>  (312) 
J2VwaWtfcHl0aG9uJywgJy1waHQnLCAnMi4wJywgJy1waCcsICc3LjAnLCAnLXRuJywgJzgnLCAnLW1hJywgJzIwMCcsICctaW1hZScsICc8aW5maWxlLm1hZT4nLCAnLW9tYWUnLCAnPG91dGZpbGUubWFlPic=

>  <r_lp_tautomer_probability>  (312) 
1

>  <r_epik_Ionization_Penalty>  (312) 
0.528682

>  <r_epik_Ionization_Penalty_Charging>  (312) 
0.358929

>  <r_epik_Ionization_Penalty_Neutral>  (312) 
0.169753

>  <r_epik_State_Penalty>  (312) 
0.547785

>  <r_epik_Charging_Adjusted_Penalty>  (312) 
0.906714

>  <i_epik_Tot_Q>  (312) 
2

>  <i_epik_Tot_abs_Q>  (312) 
2

>  <s_lp_Force_Field>  (312) 
OPLS3e

>  <r_lp_Energy>  (312) 
38.7359

>  <b_lp_Chiralities_Consistent>  (312) 
1

>  <s_lp_Variant>  (312) 
93:0-2

>  <s_i_glide_gridfile>  (312) 
pfpi4k_grid

>  <i_i_glide_lignum>  (312) 
41

>  <i_i_glide_rotatable_bonds>  (312) 
1

>  <r_i_docking_score>  (312) 
-5.58422

>  <r_i_glide_ligand_efficiency>  (312) 
-0.398873

>  <r_i_glide_ligand_efficiency_sa>  (312) 
-0.96134

>  <r_i_glide_ligand_efficiency_ln>  (312) 
-1.53452

>  <r_i_glide_gscore>  (312) 
-5.58422

>  <r_i_glide_lipo>  (312) 
-1.8026

>  <r_i_glide_hbond>  (312) 
0

>  <r_i_glide_metal>  (312) 
-0

>  <r_i_glide_rewards>  (312) 
-3.13143

>  <r_i_glide_evdw>  (312) 
-19.8925

>  <r_i_glide_ecoul>  (312) 
-0.512042

>  <r_i_glide_erotb>  (312) 
0.421251

>  <r_i_glide_esite>  (312) 
0

>  <r_i_glide_emodel>  (312) 
-26.5491

>  <r_i_glide_energy>  (312) 
-20.4045

>  <r_i_glide_einternal>  (312) 
0.12492

>  <r_i_glide_intrahb_reward>  (312) 
-0

>  <i_i_glide_confnum>  (312) 
1

>  <i_i_glide_posenum>  (312) 
33

>  <r_i_glide_eff_state_penalty>  (312) 
0

>  <ligand_id>  (312) 
93

>  <original_smiles>  (312) 
Cc1ncc(N2CCN(C)CC2)n1C

>  <smiles>  (312) 
[H]c1c(N2C([H])([H])C([H])([H])[N+]([H])(C([H])([H])[H])C([H])([H])C2([H])[H])n(C([H])([H])[H])c(C([H])([H])[H])[n+]1[H]

$$$$
93:1:1
     RDKit          3D

 34 35  0  0  1  0  0  0  0  0999 V2000
   -4.5461   -9.5829   -4.9698 C   0  0  0  0  0  0  0  0  0  0  0  0
   -5.4818   -8.8282   -5.8726 C   0  0  0  0  0  0  0  0  0  0  0  0
   -6.0158   -9.2826   -7.0141 N   0  0  0  0  0  0  0  0  0  0  0  0
   -6.8296   -8.3377   -7.5925 C   0  0  0  0  0  0  0  0  0  0  0  0
   -6.7751   -7.2575   -6.7474 C   0  0  0  0  0  0  0  0  0  0  0  0
   -7.4135   -5.9972   -6.9402 N   0  0  0  0  0  0  0  0  0  0  0  0
   -8.6884   -5.9161   -7.6707 C   0  0  0  0  0  0  0  0  0  0  0  0
   -9.7349   -5.1695   -6.8238 C   0  0  0  0  0  0  0  0  0  0  0  0
   -9.1989   -3.9181   -6.2610 N   0  0  0  0  0  0  0  0  0  0  0  0
  -10.2067   -3.2210   -5.4881 C   0  0  0  0  0  0  0  0  0  0  0  0
   -7.9613   -4.1151   -5.4615 C   0  0  0  0  0  0  0  0  0  0  0  0
   -6.9054   -4.7389   -6.3588 C   0  0  0  0  0  0  0  0  0  0  0  0
   -5.9616   -7.5682   -5.6777 N   0  0  0  0  0  0  0  0  0  0  0  0
   -5.5911   -6.7982   -4.4634 C   0  0  0  0  0  0  0  0  0  0  0  0
   -4.3669  -10.5829   -5.3667 H   0  0  0  0  0  0  0  0  0  0  0  0
   -4.9897   -9.6475   -3.9817 H   0  0  0  0  0  0  0  0  0  0  0  0
   -3.6182   -9.0227   -4.8884 H   0  0  0  0  0  0  0  0  0  0  0  0
   -7.3340   -8.5229   -8.5295 H   0  0  0  0  0  0  0  0  0  0  0  0
   -8.5277   -5.3225   -8.5755 H   0  0  0  0  0  0  0  0  0  0  0  0
   -9.0936   -6.9021   -7.9593 H   0  0  0  0  0  0  0  0  0  0  0  0
  -10.6718   -5.0001   -7.3560 H   0  0  0  0  0  0  0  0  0  0  0  0
   -9.9704   -5.7422   -5.9479 H   0  0  0  0  0  0  0  0  0  0  0  0
  -10.4848   -3.8187   -4.6284 H   0  0  0  0  0  0  0  0  0  0  0  0
  -11.1029   -3.0122   -6.0593 H   0  0  0  0  0  0  0  0  0  0  0  0
   -9.7637   -2.2944   -5.1512 H   0  0  0  0  0  0  0  0  0  0  0  0
   -7.6082   -3.1561   -5.0740 H   0  0  0  0  0  0  0  0  0  0  0  0
   -8.1933   -4.7347   -4.6006 H   0  0  0  0  0  0  0  0  0  0  0  0
   -5.8946   -4.7418   -5.9919 H   0  0  0  0  0  0  0  0  0  0  0  0
   -6.8109   -3.9371   -7.1035 H   0  0  0  0  0  0  0  0  0  0  0  0
   -6.1975   -5.9486   -4.3032 H   0  0  0  0  0  0  0  0  0  0  0  0
   -4.5285   -6.5438   -4.5373 H   0  0  0  0  0  0  0  0  0  0  0  0
   -5.8557   -7.3714   -3.5728 H   0  0  0  0  0  0  0  0  0  0  0  0
   -5.8449  -10.2111   -7.3877 H   0  0  0  0  0  0  0  0  0  0  0  0
   -8.9673   -3.3113   -7.0273 H   0  0  0  0  0  0  0  0  0  0  0  0
  1  2  1  0
  1 15  1  0
  1 16  1  0
  1 17  1  0
  2 13  1  0
  2  3  2  0
  3  4  1  0
  3 33  1  0
  4  5  2  0
  4 18  1  0
  5  6  1  0
  5 13  1  0
  6 12  1  0
  6  7  1  0
  7  8  1  0
  7 19  1  0
  7 20  1  0
  8  9  1  0
  8 21  1  0
  8 22  1  0
  9 10  1  0
  9 11  1  0
  9 34  1  0
 10 23  1  0
 10 24  1  0
 10 25  1  0
 11 12  1  0
 11 26  1  0
 11 27  1  0
 12 28  1  0
 12 29  1  0
 13 14  1  0
 14 30  1  0
 14 31  1  0
 14 32  1  0
M  CHG  2   3   1   9   1
M  END
>  <i_m_ct_stereo_status>  (313) 
1

>  <s_m_source_file>  (313) 
/var/tmp/pbs.5076255.sched01/tmpagfdxo7m/88tnrj_5ym.sdf

>  <i_m_source_file_index>  (313) 
41

>  <i_lp_mmshare_version>  (313) 
48012

>  <i_f3d_flags>  (313) 
0

>  <s_epik_input>  (313) 
W0NIM11jMW5bY0hdYyhuMVtDSDNdKU4yW0NIMl1bQ0gyXU4oW0NIM10pW0NIMl1bQ0gyXTI=

>  <s_epik_cmdline>  (313) 
J2VwaWtfcHl0aG9uJywgJy1waHQnLCAnMi4wJywgJy1waCcsICc3LjAnLCAnLXRuJywgJzgnLCAnLW1hJywgJzIwMCcsICctaW1hZScsICc8aW5maWxlLm1hZT4nLCAnLW9tYWUnLCAnPG91dGZpbGUubWFlPic=

>  <r_lp_tautomer_probability>  (313) 
1

>  <r_epik_Ionization_Penalty>  (313) 
0.528682

>  <r_epik_Ionization_Penalty_Charging>  (313) 
0.358929

>  <r_epik_Ionization_Penalty_Neutral>  (313) 
0.169753

>  <r_epik_State_Penalty>  (313) 
0.547785

>  <r_epik_Charging_Adjusted_Penalty>  (313) 
0.906714

>  <i_epik_Tot_Q>  (313) 
2

>  <i_epik_Tot_abs_Q>  (313) 
2

>  <s_lp_Force_Field>  (313) 
OPLS3e

>  <r_lp_Energy>  (313) 
38.7359

>  <b_lp_Chiralities_Consistent>  (313) 
1

>  <s_lp_Variant>  (313) 
93:0-2

>  <s_i_glide_gridfile>  (313) 
pfpi4k_grid

>  <i_i_glide_lignum>  (313) 
41

>  <i_i_glide_rotatable_bonds>  (313) 
1

>  <r_i_docking_score>  (313) 
-4.68498

>  <r_i_glide_ligand_efficiency>  (313) 
-0.334641

>  <r_i_glide_ligand_efficiency_sa>  (313) 
-0.806534

>  <r_i_glide_ligand_efficiency_ln>  (313) 
-1.28742

>  <r_i_glide_gscore>  (313) 
-4.68498

>  <r_i_glide_lipo>  (313) 
-1.42746

>  <r_i_glide_hbond>  (313) 
0

>  <r_i_glide_metal>  (313) 
-0

>  <r_i_glide_rewards>  (313) 
-3.20911

>  <r_i_glide_evdw>  (313) 
-8.5319

>  <r_i_glide_ecoul>  (313) 
-0.28709

>  <r_i_glide_erotb>  (313) 
0.421251

>  <r_i_glide_esite>  (313) 
0

>  <r_i_glide_emodel>  (313) 
-12.3717

>  <r_i_glide_energy>  (313) 
-8.81899

>  <r_i_glide_einternal>  (313) 
2.66836

>  <r_i_glide_intrahb_reward>  (313) 
-0

>  <i_i_glide_confnum>  (313) 
3

>  <i_i_glide_posenum>  (313) 
6

>  <r_i_glide_eff_state_penalty>  (313) 
0

>  <ligand_id>  (313) 
93

>  <original_smiles>  (313) 
Cc1ncc(N2CCN(C)CC2)n1C

>  <smiles>  (313) 
[H]c1c(N2C([H])([H])C([H])([H])[N+]([H])(C([H])([H])[H])C([H])([H])C2([H])[H])n(C([H])([H])[H])c(C([H])([H])[H])[n+]1[H]

$$$$
93:2:0
     RDKit          3D

 33 34  0  0  1  0  0  0  0  0999 V2000
    4.7862   -6.2649    3.3605 C   0  0  0  0  0  0  0  0  0  0  0  0
    4.8169   -5.0006    2.5621 C   0  0  0  0  0  0  0  0  0  0  0  0
    4.8765   -3.7927    3.1141 N   0  0  0  0  0  0  0  0  0  0  0  0
    4.8913   -2.9310    2.0292 C   0  0  0  0  0  0  0  0  0  0  0  0
    4.8272   -3.6561    0.8570 C   0  0  0  0  0  0  0  0  0  0  0  0
    4.7977   -3.1981   -0.4637 N   0  0  0  0  0  0  0  0  0  0  0  0
    3.9652   -3.8538   -1.4675 C   0  0  0  0  0  0  0  0  0  0  0  0
    3.0628   -2.8605   -2.1970 C   0  0  0  0  0  0  0  0  0  0  0  0
    3.8341   -1.7006   -2.7089 N   0  0  0  0  0  0  0  0  0  0  0  0
    2.9807   -0.7625   -3.4801 C   0  0  0  0  0  0  0  0  0  0  0  0
    4.5724   -1.0233   -1.6088 C   0  0  0  0  0  0  0  0  0  0  0  0
    5.5143   -1.9973   -0.8672 C   0  0  0  0  0  0  0  0  0  0  0  0
    4.8020   -5.0104    1.2163 N   0  0  0  0  0  0  0  0  0  0  0  0
    4.7894   -6.2198    0.3806 C   0  0  0  0  0  0  0  0  0  0  0  0
    4.8108   -6.0479    4.4280 H   0  0  0  0  0  0  0  0  0  0  0  0
    5.6460   -6.8952    3.1341 H   0  0  0  0  0  0  0  0  0  0  0  0
    3.8835   -6.8433    3.1619 H   0  0  0  0  0  0  0  0  0  0  0  0
    4.9352   -1.8737    2.1889 H   0  0  0  0  0  0  0  0  0  0  0  0
    4.6173   -4.3526   -2.1895 H   0  0  0  0  0  0  0  0  0  0  0  0
    3.3040   -4.6026   -1.0225 H   0  0  0  0  0  0  0  0  0  0  0  0
    2.5488   -3.3719   -3.0116 H   0  0  0  0  0  0  0  0  0  0  0  0
    2.2832   -2.5237   -1.5125 H   0  0  0  0  0  0  0  0  0  0  0  0
    2.2176   -0.3452   -2.8137 H   0  0  0  0  0  0  0  0  0  0  0  0
    2.4793   -1.2877   -4.2991 H   0  0  0  0  0  0  0  0  0  0  0  0
    3.5576    0.0633   -3.9044 H   0  0  0  0  0  0  0  0  0  0  0  0
    5.1433   -0.1890   -2.0129 H   0  0  0  0  0  0  0  0  0  0  0  0
    3.8569   -0.6236   -0.8865 H   0  0  0  0  0  0  0  0  0  0  0  0
    5.9843   -1.5060   -0.0102 H   0  0  0  0  0  0  0  0  0  0  0  0
    6.3336   -2.2848   -1.5307 H   0  0  0  0  0  0  0  0  0  0  0  0
    4.8782   -5.9702   -0.6791 H   0  0  0  0  0  0  0  0  0  0  0  0
    3.8513   -6.7676    0.5491 H   0  0  0  0  0  0  0  0  0  0  0  0
    5.6231   -6.8702    0.6905 H   0  0  0  0  0  0  0  0  0  0  0  0
    4.5330   -2.0933   -3.3263 H   0  0  0  0  0  0  0  0  0  0  0  0
  1  2  1  0
  1 15  1  0
  1 16  1  0
  1 17  1  0
  2 13  1  0
  2  3  2  0
  3  4  1  0
  4  5  2  0
  4 18  1  0
  5  6  1  0
  5 13  1  0
  6 12  1  0
  6  7  1  0
  7  8  1  0
  7 19  1  0
  7 20  1  0
  8  9  1  0
  8 21  1  0
  8 22  1  0
  9 10  1  0
  9 11  1  0
  9 33  1  0
 10 23  1  0
 10 24  1  0
 10 25  1  0
 11 12  1  0
 11 26  1  0
 11 27  1  0
 12 28  1  0
 12 29  1  0
 13 14  1  0
 14 30  1  0
 14 31  1  0
 14 32  1  0
M  CHG  1   9   1
M  END
>  <i_m_ct_stereo_status>  (314) 
1

>  <s_m_source_file>  (314) 
/var/tmp/pbs.5076255.sched01/tmpagfdxo7m/88tnrj_5ym.sdf

>  <i_m_source_file_index>  (314) 
42

>  <i_lp_mmshare_version>  (314) 
48012

>  <i_f3d_flags>  (314) 
0

>  <s_epik_input>  (314) 
W0NIM11jMW5bY0hdYyhuMVtDSDNdKU4yW0NIMl1bQ0gyXU4oW0NIM10pW0NIMl1bQ0gyXTI=

>  <s_epik_cmdline>  (314) 
J2VwaWtfcHl0aG9uJywgJy1waHQnLCAnMi4wJywgJy1waCcsICc3LjAnLCAnLXRuJywgJzgnLCAnLW1hJywgJzIwMCcsICctaW1hZScsICc8aW5maWxlLm1hZT4nLCAnLW9tYWUnLCAnPG91dGZpbGUubWFlPic=

>  <r_epik_Ionization_Penalty>  (314) 
0.99634

>  <r_epik_Ionization_Penalty_Charging>  (314) 
0.99634

>  <r_epik_Ionization_Penalty_Neutral>  (314) 
1.87899e-11

>  <r_epik_State_Penalty>  (314) 
1.50889

>  <r_epik_Charging_Adjusted_Penalty>  (314) 
2.50523

>  <i_epik_Tot_Q>  (314) 
1

>  <i_epik_Tot_abs_Q>  (314) 
1

>  <s_lp_Force_Field>  (314) 
OPLS3e

>  <r_lp_Energy>  (314) 
27.0727

>  <b_lp_Chiralities_Consistent>  (314) 
1

>  <s_lp_Variant>  (314) 
93:0-3

>  <s_i_glide_gridfile>  (314) 
pfpi4k_grid

>  <i_i_glide_lignum>  (314) 
42

>  <i_i_glide_rotatable_bonds>  (314) 
1

>  <r_i_docking_score>  (314) 
-3.35309

>  <r_i_glide_ligand_efficiency>  (314) 
-0.239506

>  <r_i_glide_ligand_efficiency_sa>  (314) 
-0.577245

>  <r_i_glide_ligand_efficiency_ln>  (314) 
-0.921417

>  <r_i_glide_gscore>  (314) 
-3.35309

>  <r_i_glide_lipo>  (314) 
-0.376011

>  <r_i_glide_hbond>  (314) 
0

>  <r_i_glide_metal>  (314) 
-0

>  <r_i_glide_rewards>  (314) 
-2.18836

>  <r_i_glide_evdw>  (314) 
-14.1224

>  <r_i_glide_ecoul>  (314) 
-3.25266

>  <r_i_glide_erotb>  (314) 
0.424871

>  <r_i_glide_esite>  (314) 
-0.0195692

>  <r_i_glide_emodel>  (314) 
-20.9761

>  <r_i_glide_energy>  (314) 
-17.3751

>  <r_i_glide_einternal>  (314) 
0.448771

>  <r_i_glide_intrahb_reward>  (314) 
-0

>  <i_i_glide_confnum>  (314) 
2

>  <i_i_glide_posenum>  (314) 
33

>  <r_i_glide_eff_state_penalty>  (314) 
0

>  <ligand_id>  (314) 
93

>  <original_smiles>  (314) 
Cc1ncc(N2CCN(C)CC2)n1C

>  <smiles>  (314) 
[H]c1nc(C([H])([H])[H])n(C([H])([H])[H])c1N1C([H])([H])C([H])([H])[N+]([H])(C([H])([H])[H])C([H])([H])C1([H])[H]

$$$$
93:3:0
     RDKit          3D

 32 33  0  0  1  0  0  0  0  0999 V2000
   -2.2227    3.0029    8.2497 C   0  0  0  0  0  0  0  0  0  0  0  0
   -1.8168    2.2077    7.0618 C   0  0  0  0  0  0  0  0  0  0  0  0
   -2.1856    0.9406    6.8734 N   0  0  0  0  0  0  0  0  0  0  0  0
   -1.6127    0.5916    5.6526 C   0  0  0  0  0  0  0  0  0  0  0  0
   -0.8945    1.6602    5.1573 C   0  0  0  0  0  0  0  0  0  0  0  0
   -0.1429    1.7430    3.9887 N   0  0  0  0  0  0  0  0  0  0  0  0
   -0.5190    1.0443    2.7720 C   0  0  0  0  0  0  0  0  0  0  0  0
    0.6684    0.2046    2.2433 C   0  0  0  0  0  0  0  0  0  0  0  0
    1.8464    1.0533    2.0574 N   0  0  0  0  0  0  0  0  0  0  0  0
    2.9563    0.2643    1.5335 C   0  0  0  0  0  0  0  0  0  0  0  0
    2.2337    1.6101    3.3521 C   0  0  0  0  0  0  0  0  0  0  0  0
    1.1166    2.4776    3.9187 C   0  0  0  0  0  0  0  0  0  0  0  0
   -1.0564    2.7124    6.0715 N   0  0  0  0  0  0  0  0  0  0  0  0
   -0.5580    4.0924    6.0230 C   0  0  0  0  0  0  0  0  0  0  0  0
   -2.8540    2.4206    8.9269 H   0  0  0  0  0  0  0  0  0  0  0  0
   -2.7881    3.8849    7.9587 H   0  0  0  0  0  0  0  0  0  0  0  0
   -1.3570    3.3363    8.8177 H   0  0  0  0  0  0  0  0  0  0  0  0
   -1.7548   -0.3913    5.2398 H   0  0  0  0  0  0  0  0  0  0  0  0
   -1.3871    0.4085    2.9405 H   0  0  0  0  0  0  0  0  0  0  0  0
   -0.8153    1.7723    2.0131 H   0  0  0  0  0  0  0  0  0  0  0  0
    0.8920   -0.6128    2.9341 H   0  0  0  0  0  0  0  0  0  0  0  0
    0.3961   -0.2475    1.2966 H   0  0  0  0  0  0  0  0  0  0  0  0
    3.8311    0.9044    1.4059 H   0  0  0  0  0  0  0  0  0  0  0  0
    2.6947   -0.1600    0.5613 H   0  0  0  0  0  0  0  0  0  0  0  0
    3.2159   -0.5469    2.2182 H   0  0  0  0  0  0  0  0  0  0  0  0
    2.4860    0.8104    4.0501 H   0  0  0  0  0  0  0  0  0  0  0  0
    3.1324    2.2170    3.2316 H   0  0  0  0  0  0  0  0  0  0  0  0
    0.9658    3.3553    3.2807 H   0  0  0  0  0  0  0  0  0  0  0  0
    1.4380    2.8130    4.9061 H   0  0  0  0  0  0  0  0  0  0  0  0
   -0.0414    4.2857    5.0935 H   0  0  0  0  0  0  0  0  0  0  0  0
    0.1269    4.2610    6.8671 H   0  0  0  0  0  0  0  0  0  0  0  0
   -1.4013    4.7829    6.1573 H   0  0  0  0  0  0  0  0  0  0  0  0
  1  2  1  0
  1 15  1  0
  1 16  1  0
  1 17  1  0
  2 13  1  0
  2  3  2  0
  3  4  1  0
  4  5  2  0
  4 18  1  0
  5  6  1  0
  5 13  1  0
  6 12  1  0
  6  7  1  0
  7  8  1  0
  7 19  1  0
  7 20  1  0
  8  9  1  0
  8 21  1  0
  8 22  1  0
  9 10  1  0
  9 11  1  0
 10 23  1  0
 10 24  1  0
 10 25  1  0
 11 12  1  0
 11 26  1  0
 11 27  1  0
 12 28  1  0
 12 29  1  0
 13 14  1  0
 14 30  1  0
 14 31  1  0
 14 32  1  0
M  END
>  <i_m_ct_stereo_status>  (315) 
1

>  <s_m_source_file>  (315) 
/var/tmp/pbs.5076255.sched01/tmpagfdxo7m/88tnrj_5ym.sdf

>  <i_m_source_file_index>  (315) 
43

>  <i_lp_mmshare_version>  (315) 
48012

>  <i_f3d_flags>  (315) 
0

>  <s_epik_input>  (315) 
W0NIM11jMW5bY0hdYyhuMVtDSDNdKU4yW0NIMl1bQ0gyXU4oW0NIM10pW0NIMl1bQ0gyXTI=

>  <s_epik_cmdline>  (315) 
J2VwaWtfcHl0aG9uJywgJy1waHQnLCAnMi4wJywgJy1waCcsICc3LjAnLCAnLXRuJywgJzgnLCAnLW1hJywgJzIwMCcsICctaW1hZScsICc8aW5maWxlLm1hZT4nLCAnLW9tYWUnLCAnPG91dGZpbGUubWFlPic=

>  <r_lp_tautomer_probability>  (315) 
1

>  <r_epik_Ionization_Penalty>  (315) 
3.0034

>  <r_epik_Ionization_Penalty_Charging>  (315) 
2.18931

>  <r_epik_Ionization_Penalty_Neutral>  (315) 
0.814088

>  <r_epik_State_Penalty>  (315) 
2.45666

>  <r_epik_Charging_Adjusted_Penalty>  (315) 
4.64597

>  <i_epik_Tot_Q>  (315) 
0

>  <i_epik_Tot_abs_Q>  (315) 
0

>  <s_lp_Force_Field>  (315) 
OPLS3e

>  <r_lp_Energy>  (315) 
22.2362

>  <b_lp_Chiralities_Consistent>  (315) 
1

>  <s_lp_Variant>  (315) 
93:0-4

>  <s_i_glide_gridfile>  (315) 
pfpi4k_grid

>  <i_i_glide_lignum>  (315) 
43

>  <i_i_glide_rotatable_bonds>  (315) 
1

>  <r_i_docking_score>  (315) 
-3.26051

>  <r_i_glide_ligand_efficiency>  (315) 
-0.232894

>  <r_i_glide_ligand_efficiency_sa>  (315) 
-0.561307

>  <r_i_glide_ligand_efficiency_ln>  (315) 
-0.895977

>  <r_i_glide_gscore>  (315) 
-3.26051

>  <r_i_glide_lipo>  (315) 
-0.0535931

>  <r_i_glide_hbond>  (315) 
-0.16

>  <r_i_glide_metal>  (315) 
-0

>  <r_i_glide_rewards>  (315) 
-2.09364

>  <r_i_glide_evdw>  (315) 
-14.401

>  <r_i_glide_ecoul>  (315) 
-4.18806

>  <r_i_glide_erotb>  (315) 
0.428538

>  <r_i_glide_esite>  (315) 
-0.0335589

>  <r_i_glide_emodel>  (315) 
-21.9262

>  <r_i_glide_energy>  (315) 
-18.5891

>  <r_i_glide_einternal>  (315) 
0.502121

>  <r_i_glide_intrahb_reward>  (315) 
-0

>  <i_i_glide_confnum>  (315) 
5

>  <i_i_glide_posenum>  (315) 
33

>  <r_i_glide_eff_state_penalty>  (315) 
0

>  <ligand_id>  (315) 
93

>  <original_smiles>  (315) 
Cc1ncc(N2CCN(C)CC2)n1C

>  <smiles>  (315) 
[H]c1nc(C([H])([H])[H])n(C([H])([H])[H])c1N1C([H])([H])C([H])([H])N(C([H])([H])[H])C([H])([H])C1([H])[H]

$$$$
93:3:1
     RDKit          3D

 32 33  0  0  1  0  0  0  0  0999 V2000
    4.6350   -7.0561    2.2373 C   0  0  0  0  0  0  0  0  0  0  0  0
    4.0917   -5.9759    1.3585 C   0  0  0  0  0  0  0  0  0  0  0  0
    2.8009   -5.6616    1.2775 N   0  0  0  0  0  0  0  0  0  0  0  0
    2.7550   -4.6012    0.3766 C   0  0  0  0  0  0  0  0  0  0  0  0
    4.0287   -4.3173   -0.0625 C   0  0  0  0  0  0  0  0  0  0  0  0
    4.4773   -3.3504   -0.9633 N   0  0  0  0  0  0  0  0  0  0  0  0
    5.1347   -3.7132   -2.2100 C   0  0  0  0  0  0  0  0  0  0  0  0
    4.4084   -3.0908   -3.4154 C   0  0  0  0  0  0  0  0  0  0  0  0
    4.3077   -1.6394   -3.2515 N   0  0  0  0  0  0  0  0  0  0  0  0
    3.6407   -1.0343   -4.3972 C   0  0  0  0  0  0  0  0  0  0  0  0
    3.5076   -1.3642   -2.0584 C   0  0  0  0  0  0  0  0  0  0  0  0
    4.1757   -1.9399   -0.7944 C   0  0  0  0  0  0  0  0  0  0  0  0
    4.8852   -5.2113    0.5818 N   0  0  0  0  0  0  0  0  0  0  0  0
    6.3303   -5.2820    0.4796 C   0  0  0  0  0  0  0  0  0  0  0  0
    3.8243   -7.5332    2.7765 H   0  0  0  0  0  0  0  0  0  0  0  0
    5.3309   -6.6484    2.9678 H   0  0  0  0  0  0  0  0  0  0  0  0
    5.1487   -7.8162    1.6520 H   0  0  0  0  0  0  0  0  0  0  0  0
    1.8297   -4.1319    0.1000 H   0  0  0  0  0  0  0  0  0  0  0  0
    6.1650   -3.3625   -2.1778 H   0  0  0  0  0  0  0  0  0  0  0  0
    5.1400   -4.7948   -2.3061 H   0  0  0  0  0  0  0  0  0  0  0  0
    4.9730   -3.3187   -4.3186 H   0  0  0  0  0  0  0  0  0  0  0  0
    3.4167   -3.5250   -3.5389 H   0  0  0  0  0  0  0  0  0  0  0  0
    3.5519    0.0473   -4.2756 H   0  0  0  0  0  0  0  0  0  0  0  0
    2.6408   -1.4486   -4.5455 H   0  0  0  0  0  0  0  0  0  0  0  0
    4.2240   -1.1979   -5.2983 H   0  0  0  0  0  0  0  0  0  0  0  0
    3.4260   -0.2855   -1.9658 H   0  0  0  0  0  0  0  0  0  0  0  0
    2.5035   -1.7698   -2.1834 H   0  0  0  0  0  0  0  0  0  0  0  0
    3.5444   -1.7878    0.0819 H   0  0  0  0  0  0  0  0  0  0  0  0
    5.1146   -1.4191   -0.6123 H   0  0  0  0  0  0  0  0  0  0  0  0
    6.7016   -4.5300   -0.2087 H   0  0  0  0  0  0  0  0  0  0  0  0
    6.6295   -6.2589    0.1064 H   0  0  0  0  0  0  0  0  0  0  0  0
    6.7871   -5.1119    1.4545 H   0  0  0  0  0  0  0  0  0  0  0  0
  1  2  1  0
  1 15  1  0
  1 16  1  0
  1 17  1  0
  2 13  1  0
  2  3  2  0
  3  4  1  0
  4  5  2  0
  4 18  1  0
  5  6  1  0
  5 13  1  0
  6 12  1  0
  6  7  1  0
  7  8  1  0
  7 19  1  0
  7 20  1  0
  8  9  1  0
  8 21  1  0
  8 22  1  0
  9 10  1  0
  9 11  1  0
 10 23  1  0
 10 24  1  0
 10 25  1  0
 11 12  1  0
 11 26  1  0
 11 27  1  0
 12 28  1  0
 12 29  1  0
 13 14  1  0
 14 30  1  0
 14 31  1  0
 14 32  1  0
M  END
>  <i_m_ct_stereo_status>  (316) 
1

>  <s_m_source_file>  (316) 
/var/tmp/pbs.5076255.sched01/tmpagfdxo7m/88tnrj_5ym.sdf

>  <i_m_source_file_index>  (316) 
43

>  <i_lp_mmshare_version>  (316) 
48012

>  <i_f3d_flags>  (316) 
0

>  <s_epik_input>  (316) 
W0NIM11jMW5bY0hdYyhuMVtDSDNdKU4yW0NIMl1bQ0gyXU4oW0NIM10pW0NIMl1bQ0gyXTI=

>  <s_epik_cmdline>  (316) 
J2VwaWtfcHl0aG9uJywgJy1waHQnLCAnMi4wJywgJy1waCcsICc3LjAnLCAnLXRuJywgJzgnLCAnLW1hJywgJzIwMCcsICctaW1hZScsICc8aW5maWxlLm1hZT4nLCAnLW9tYWUnLCAnPG91dGZpbGUubWFlPic=

>  <r_lp_tautomer_probability>  (316) 
1

>  <r_epik_Ionization_Penalty>  (316) 
3.0034

>  <r_epik_Ionization_Penalty_Charging>  (316) 
2.18931

>  <r_epik_Ionization_Penalty_Neutral>  (316) 
0.814088

>  <r_epik_State_Penalty>  (316) 
2.45666

>  <r_epik_Charging_Adjusted_Penalty>  (316) 
4.64597

>  <i_epik_Tot_Q>  (316) 
0

>  <i_epik_Tot_abs_Q>  (316) 
0

>  <s_lp_Force_Field>  (316) 
OPLS3e

>  <r_lp_Energy>  (316) 
22.2362

>  <b_lp_Chiralities_Consistent>  (316) 
1

>  <s_lp_Variant>  (316) 
93:0-4

>  <s_i_glide_gridfile>  (316) 
pfpi4k_grid

>  <i_i_glide_lignum>  (316) 
43

>  <i_i_glide_rotatable_bonds>  (316) 
1

>  <r_i_docking_score>  (316) 
-3.215

>  <r_i_glide_ligand_efficiency>  (316) 
-0.229643

>  <r_i_glide_ligand_efficiency_sa>  (316) 
-0.553473

>  <r_i_glide_ligand_efficiency_ln>  (316) 
-0.883472

>  <r_i_glide_gscore>  (316) 
-3.215

>  <r_i_glide_lipo>  (316) 
-0.380627

>  <r_i_glide_hbond>  (316) 
0

>  <r_i_glide_metal>  (316) 
-0

>  <r_i_glide_rewards>  (316) 
-2.29321

>  <r_i_glide_evdw>  (316) 
-17.8052

>  <r_i_glide_ecoul>  (316) 
-0.529634

>  <r_i_glide_erotb>  (316) 
0.428538

>  <r_i_glide_esite>  (316) 
0

>  <r_i_glide_emodel>  (316) 
-20.7657

>  <r_i_glide_energy>  (316) 
-18.3349

>  <r_i_glide_einternal>  (316) 
2.57534

>  <r_i_glide_intrahb_reward>  (316) 
-0

>  <i_i_glide_confnum>  (316) 
4

>  <i_i_glide_posenum>  (316) 
25

>  <r_i_glide_eff_state_penalty>  (316) 
0

>  <ligand_id>  (316) 
93

>  <original_smiles>  (316) 
Cc1ncc(N2CCN(C)CC2)n1C

>  <smiles>  (316) 
[H]c1nc(C([H])([H])[H])n(C([H])([H])[H])c1N1C([H])([H])C([H])([H])N(C([H])([H])[H])C([H])([H])C1([H])[H]

$$$$
93:3:2
     RDKit          3D

 32 33  0  0  1  0  0  0  0  0999 V2000
   -2.9609    2.7908    6.4662 C   0  0  0  0  0  0  0  0  0  0  0  0
   -1.8553    1.8916    6.0299 C   0  0  0  0  0  0  0  0  0  0  0  0
   -1.6373    0.6968    6.5729 N   0  0  0  0  0  0  0  0  0  0  0  0
   -0.5177    0.2233    5.8944 C   0  0  0  0  0  0  0  0  0  0  0  0
   -0.1176    1.1390    4.9408 C   0  0  0  0  0  0  0  0  0  0  0  0
    0.9562    1.0613    4.0455 N   0  0  0  0  0  0  0  0  0  0  0  0
    0.8887    1.5634    2.6765 C   0  0  0  0  0  0  0  0  0  0  0  0
    1.3061    0.4821    1.6811 C   0  0  0  0  0  0  0  0  0  0  0  0
    2.6382   -0.0324    2.0087 N   0  0  0  0  0  0  0  0  0  0  0  0
    3.0127   -1.0304    1.0149 C   0  0  0  0  0  0  0  0  0  0  0  0
    2.5890   -0.6469    3.3386 C   0  0  0  0  0  0  0  0  0  0  0  0
    2.2062    0.4018    4.4019 C   0  0  0  0  0  0  0  0  0  0  0  0
   -0.9935    2.2295    5.0463 N   0  0  0  0  0  0  0  0  0  0  0  0
   -0.9990    3.4945    4.3124 C   0  0  0  0  0  0  0  0  0  0  0  0
   -3.5371    2.3339    7.2685 H   0  0  0  0  0  0  0  0  0  0  0  0
   -3.6401    2.9956    5.6410 H   0  0  0  0  0  0  0  0  0  0  0  0
   -2.5772    3.7395    6.8345 H   0  0  0  0  0  0  0  0  0  0  0  0
   -0.0925   -0.7306    6.1496 H   0  0  0  0  0  0  0  0  0  0  0  0
   -0.1231    1.8652    2.4117 H   0  0  0  0  0  0  0  0  0  0  0  0
    1.5427    2.4285    2.5694 H   0  0  0  0  0  0  0  0  0  0  0  0
    0.5769   -0.3299    1.6808 H   0  0  0  0  0  0  0  0  0  0  0  0
    1.3081    0.9194    0.6834 H   0  0  0  0  0  0  0  0  0  0  0  0
    4.0025   -1.4373    1.2302 H   0  0  0  0  0  0  0  0  0  0  0  0
    3.0397   -0.5860    0.0187 H   0  0  0  0  0  0  0  0  0  0  0  0
    2.2909   -1.8496    0.9911 H   0  0  0  0  0  0  0  0  0  0  0  0
    1.8696   -1.4680    3.3443 H   0  0  0  0  0  0  0  0  0  0  0  0
    3.5657   -1.0698    3.5748 H   0  0  0  0  0  0  0  0  0  0  0  0
    2.9815    1.1634    4.4731 H   0  0  0  0  0  0  0  0  0  0  0  0
    2.1445   -0.0714    5.3817 H   0  0  0  0  0  0  0  0  0  0  0  0
   -0.1492    3.5768    3.6324 H   0  0  0  0  0  0  0  0  0  0  0  0
   -0.9535    4.3273    5.0219 H   0  0  0  0  0  0  0  0  0  0  0  0
   -1.9238    3.5756    3.7326 H   0  0  0  0  0  0  0  0  0  0  0  0
  1  2  1  0
  1 15  1  0
  1 16  1  0
  1 17  1  0
  2 13  1  0
  2  3  2  0
  3  4  1  0
  4  5  2  0
  4 18  1  0
  5  6  1  0
  5 13  1  0
  6 12  1  0
  6  7  1  0
  7  8  1  0
  7 19  1  0
  7 20  1  0
  8  9  1  0
  8 21  1  0
  8 22  1  0
  9 10  1  0
  9 11  1  0
 10 23  1  0
 10 24  1  0
 10 25  1  0
 11 12  1  0
 11 26  1  0
 11 27  1  0
 12 28  1  0
 12 29  1  0
 13 14  1  0
 14 30  1  0
 14 31  1  0
 14 32  1  0
M  END
>  <i_m_ct_stereo_status>  (317) 
1

>  <s_m_source_file>  (317) 
/var/tmp/pbs.5076255.sched01/tmpagfdxo7m/88tnrj_5ym.sdf

>  <i_m_source_file_index>  (317) 
43

>  <i_lp_mmshare_version>  (317) 
48012

>  <i_f3d_flags>  (317) 
0

>  <s_epik_input>  (317) 
W0NIM11jMW5bY0hdYyhuMVtDSDNdKU4yW0NIMl1bQ0gyXU4oW0NIM10pW0NIMl1bQ0gyXTI=

>  <s_epik_cmdline>  (317) 
J2VwaWtfcHl0aG9uJywgJy1waHQnLCAnMi4wJywgJy1waCcsICc3LjAnLCAnLXRuJywgJzgnLCAnLW1hJywgJzIwMCcsICctaW1hZScsICc8aW5maWxlLm1hZT4nLCAnLW9tYWUnLCAnPG91dGZpbGUubWFlPic=

>  <r_lp_tautomer_probability>  (317) 
1

>  <r_epik_Ionization_Penalty>  (317) 
3.0034

>  <r_epik_Ionization_Penalty_Charging>  (317) 
2.18931

>  <r_epik_Ionization_Penalty_Neutral>  (317) 
0.814088

>  <r_epik_State_Penalty>  (317) 
2.45666

>  <r_epik_Charging_Adjusted_Penalty>  (317) 
4.64597

>  <i_epik_Tot_Q>  (317) 
0

>  <i_epik_Tot_abs_Q>  (317) 
0

>  <s_lp_Force_Field>  (317) 
OPLS3e

>  <r_lp_Energy>  (317) 
22.2362

>  <b_lp_Chiralities_Consistent>  (317) 
1

>  <s_lp_Variant>  (317) 
93:0-4

>  <s_i_glide_gridfile>  (317) 
pfpi4k_grid

>  <i_i_glide_lignum>  (317) 
43

>  <i_i_glide_rotatable_bonds>  (317) 
1

>  <r_i_docking_score>  (317) 
-3.13682

>  <r_i_glide_ligand_efficiency>  (317) 
-0.224058

>  <r_i_glide_ligand_efficiency_sa>  (317) 
-0.540012

>  <r_i_glide_ligand_efficiency_ln>  (317) 
-0.861986

>  <r_i_glide_gscore>  (317) 
-3.13682

>  <r_i_glide_lipo>  (317) 
-0.185641

>  <r_i_glide_hbond>  (317) 
-0.154576

>  <r_i_glide_metal>  (317) 
-0

>  <r_i_glide_rewards>  (317) 
-2.08448

>  <r_i_glide_evdw>  (317) 
-13.66

>  <r_i_glide_ecoul>  (317) 
-2.8162

>  <r_i_glide_erotb>  (317) 
0.428538

>  <r_i_glide_esite>  (317) 
-0.0352296

>  <r_i_glide_emodel>  (317) 
-19.9366

>  <r_i_glide_energy>  (317) 
-16.4762

>  <r_i_glide_einternal>  (317) 
0.0967222

>  <r_i_glide_intrahb_reward>  (317) 
-0

>  <i_i_glide_confnum>  (317) 
5

>  <i_i_glide_posenum>  (317) 
8

>  <r_i_glide_eff_state_penalty>  (317) 
0

>  <ligand_id>  (317) 
93

>  <original_smiles>  (317) 
Cc1ncc(N2CCN(C)CC2)n1C

>  <smiles>  (317) 
[H]c1nc(C([H])([H])[H])n(C([H])([H])[H])c1N1C([H])([H])C([H])([H])N(C([H])([H])[H])C([H])([H])C1([H])[H]

$$$$
94:0:0
     RDKit          3D

 68 76  0  0  1  0  0  0  0  0999 V2000
    0.8362   -3.8674   -1.7414 C   0  0  0  0  0  0  0  0  0  0  0  0
    0.5681   -5.1286   -1.1373 O   0  0  0  0  0  0  0  0  0  0  0  0
    1.4066   -5.6671   -0.2017 C   0  0  0  0  0  0  0  0  0  0  0  0
    1.0145   -6.8007    0.5383 C   0  0  0  0  0  0  0  0  0  0  0  0
    1.8374   -7.1162    1.6235 C   0  0  0  0  0  0  0  0  0  0  0  0
    3.0671   -6.4061    1.7623 C   0  0  0  0  0  0  0  0  0  0  0  0
    3.6128   -5.6973    0.6914 C   0  0  0  0  0  0  0  0  0  0  0  0
    2.5958   -5.0267    0.1027 C   0  0  0  0  0  0  0  0  0  0  0  0
    2.5836   -3.7003    0.3390 O   0  0  0  0  0  0  0  0  0  0  0  0
    3.7813   -3.4191    0.9878 C   0  0  1  0  0  0  0  0  0  0  0  0
    3.6126   -2.2112    2.0888 C   0  0  2  0  0  0  0  0  0  0  0  0
    2.2038   -1.9327    2.3411 O   0  0  0  0  0  0  0  0  0  0  0  0
    1.4148   -2.9020    3.0588 C   0  0  0  0  0  0  0  0  0  0  0  0
    4.0907   -0.9073    1.2855 C   0  0  0  0  0  0  0  0  0  0  0  0
    5.5785   -0.7985    0.7406 C   0  0  1  0  0  0  0  0  0  0  0  0
    6.6089   -1.2522    1.7677 C   0  0  0  0  0  0  0  0  0  0  0  0
    6.4094   -2.7865    1.7729 C   0  0  1  0  0  0  0  0  0  0  0  0
    5.3284   -3.1866    2.9463 C   0  0  2  0  0  0  0  0  0  0  0  0
    4.2568   -4.5376    3.4708 C   0  0  1  0  0  0  0  0  0  0  0  0
    3.5641   -6.0206    3.1423 C   0  0  0  0  0  0  0  0  0  0  0  0
    4.9632   -4.6597    4.6382 C   0  0  1  0  0  0  0  0  0  0  0  0
    6.0505   -5.4435    3.6474 C   0  0  0  0  0  0  0  0  0  0  0  0
    5.9050   -5.5737    1.9488 C   0  0  0  0  0  0  0  0  0  0  0  0
    4.7707   -4.7831    0.8900 C   0  0  1  0  0  0  0  0  0  0  0  0
    5.6569   -4.3462   -0.2902 C   0  0  1  0  0  0  0  0  0  0  0  0
    5.0454   -4.1979   -1.7340 C   0  0  0  0  0  0  0  0  0  0  0  0
    5.5754   -3.0062   -2.5445 C   0  0  0  0  0  0  0  0  0  0  0  0
    5.2724   -1.7169   -1.7690 C   0  0  0  0  0  0  0  0  0  0  0  0
    6.0375   -1.7014   -0.4322 C   0  0  2  0  0  0  0  0  0  0  0  0
    6.3737   -3.0668    0.2127 C   0  0  1  0  0  0  0  0  0  0  0  0
    4.5187   -3.0839    4.8585 C   0  0  0  0  0  0  0  0  0  0  0  0
    4.4593   -2.2212    3.4699 C   0  0  2  0  0  0  0  0  0  0  0  0
   -0.0644   -3.4410   -2.2405 H   0  0  0  0  0  0  0  0  0  0  0  0
    1.7167   -3.9418   -2.4271 H   0  0  0  0  0  0  0  0  0  0  0  0
    0.9708   -3.0651   -1.0652 H   0  0  0  0  0  0  0  0  0  0  0  0
    0.0880   -7.3378    0.3562 H   0  0  0  0  0  0  0  0  0  0  0  0
    1.4805   -7.8163    2.3598 H   0  0  0  0  0  0  0  0  0  0  0  0
    3.9544   -2.8379    0.0961 H   0  0  0  0  0  0  0  0  0  0  0  0
    0.3318   -2.6914    3.1309 H   0  0  0  0  0  0  0  0  0  0  0  0
    1.7166   -2.9242    4.0923 H   0  0  0  0  0  0  0  0  0  0  0  0
    1.4709   -3.8922    2.6309 H   0  0  0  0  0  0  0  0  0  0  0  0
    3.4328   -0.7113    0.4381 H   0  0  0  0  0  0  0  0  0  0  0  0
    3.9257   -0.0285    1.9080 H   0  0  0  0  0  0  0  0  0  0  0  0
    5.7782    0.2380    0.4824 H   0  0  0  0  0  0  0  0  0  0  0  0
    7.6034   -1.0271    1.4014 H   0  0  0  0  0  0  0  0  0  0  0  0
    6.5626   -0.7373    2.7226 H   0  0  0  0  0  0  0  0  0  0  0  0
    7.3545   -3.2535    2.0438 H   0  0  0  0  0  0  0  0  0  0  0  0
    6.2015   -3.0608    3.5870 H   0  0  0  0  0  0  0  0  0  0  0  0
    3.2285   -4.2364    3.6239 H   0  0  0  0  0  0  0  0  0  0  0  0
    2.6746   -6.0906    3.7701 H   0  0  0  0  0  0  0  0  0  0  0  0
    4.1055   -6.9043    3.4592 H   0  0  0  0  0  0  0  0  0  0  0  0
    4.4099   -5.3166    5.3198 H   0  0  0  0  0  0  0  0  0  0  0  0
    7.0386   -5.0842    3.8968 H   0  0  0  0  0  0  0  0  0  0  0  0
    6.1132   -6.4536    4.0265 H   0  0  0  0  0  0  0  0  0  0  0  0
    6.9142   -5.3558    1.6092 H   0  0  0  0  0  0  0  0  0  0  0  0
    5.8094   -6.6392    1.7059 H   0  0  0  0  0  0  0  0  0  0  0  0
    6.3994   -5.1331   -0.3816 H   0  0  0  0  0  0  0  0  0  0  0  0
    5.2057   -5.0960   -2.2947 H   0  0  0  0  0  0  0  0  0  0  0  0
    3.9633   -4.1272   -1.7357 H   0  0  0  0  0  0  0  0  0  0  0  0
    6.6446   -3.1156   -2.7711 H   0  0  0  0  0  0  0  0  0  0  0  0
    5.0619   -2.9833   -3.5075 H   0  0  0  0  0  0  0  0  0  0  0  0
    5.5678   -0.8510   -2.3489 H   0  0  0  0  0  0  0  0  0  0  0  0
    4.1923   -1.6027   -1.6383 H   0  0  0  0  0  0  0  0  0  0  0  0
    7.0193   -1.3203   -0.7105 H   0  0  0  0  0  0  0  0  0  0  0  0
    7.4071   -3.2400   -0.0725 H   0  0  0  0  0  0  0  0  0  0  0  0
    3.5613   -2.9845    5.3797 H   0  0  0  0  0  0  0  0  0  0  0  0
    5.2224   -2.6354    5.5494 H   0  0  0  0  0  0  0  0  0  0  0  0
    4.8374   -1.2250    3.6926 H   0  0  0  0  0  0  0  0  0  0  0  0
  1  2  1  0
  1 33  1  0
  1 34  1  0
  1 35  1  0
  2  3  1  0
  3  8  2  0
  3  4  1  0
  4  5  2  0
  4 36  1  0
  5  6  1  0
  5 37  1  0
  6 20  1  0
  6  7  2  0
  7 24  1  0
  7  8  1  0
  8  9  1  0
  9 10  1  0
 10 24  1  0
 10 11  1  0
 10 38  1  6
 11 32  1  0
 11 12  1  1
 11 14  1  0
 12 13  1  0
 13 39  1  0
 13 40  1  0
 13 41  1  0
 14 15  1  0
 14 42  1  0
 14 43  1  0
 15 29  1  0
 15 16  1  0
 15 44  1  6
 16 17  1  0
 16 45  1  0
 16 46  1  0
 17 30  1  0
 17 18  1  0
 17 47  1  1
 18 32  1  0
 18 19  1  0
 18 48  1  1
 19 20  1  0
 19 21  1  0
 19 49  1  1
 20 50  1  0
 20 51  1  0
 21 22  1  0
 21 31  1  0
 21 52  1  1
 22 23  1  0
 22 53  1  0
 22 54  1  0
 24 23  1  1
 23 55  1  0
 23 56  1  0
 24 25  1  0
 25 30  1  0
 25 26  1  0
 25 57  1  6
 26 27  1  0
 26 58  1  0
 26 59  1  0
 27 28  1  0
 27 60  1  0
 27 61  1  0
 28 29  1  0
 28 62  1  0
 28 63  1  0
 29 30  1  0
 29 64  1  6
 30 65  1  6
 31 32  1  0
 31 66  1  0
 31 67  1  0
 32 68  1  1
M  END
>  <i_m_ct_stereo_status>  (318) 
1

>  <s_m_source_file>  (318) 
/var/tmp/pbs.5076255.sched01/tmpagfdxo7m/88tnrj_5ym.sdf

>  <i_m_source_file_index>  (318) 
44

>  <i_lp_mmshare_version>  (318) 
48012

>  <i_f3d_flags>  (318) 
0

>  <s_epik_input>  (318) 
W0NAXTEyM2M0YzVbY0hdW2NIXWMoT1tDSDNdKWM0T1tDQEhdMVtDQEBdNihPW0NIM10pW0NAQEhdN1tDQEBIXShbQ0BASF0oW0NIMl01KVtDQEhdKFtDSDJdNylbQ0gyXVtDSDJdMilbQ0BIXThbQ0BIXTlbQ0BASF0zW0NIMl1bQ0gyXVtDSDJdW0NASF05W0NAQEhdKFtDSDJdNilbQ0gyXTg=

>  <s_epik_cmdline>  (318) 
J2VwaWtfcHl0aG9uJywgJy1waHQnLCAnMi4wJywgJy1waCcsICc3LjAnLCAnLXRuJywgJzgnLCAnLW1hJywgJzIwMCcsICctaW1hZScsICc8aW5maWxlLm1hZT4nLCAnLW9tYWUnLCAnPG91dGZpbGUubWFlPic=

>  <r_lp_tautomer_probability>  (318) 
1

>  <r_epik_Ionization_Penalty>  (318) 
1.27613e-11

>  <r_epik_Ionization_Penalty_Charging>  (318) 
0

>  <r_epik_Ionization_Penalty_Neutral>  (318) 
1.27613e-11

>  <r_epik_State_Penalty>  (318) 
-0

>  <r_epik_Charging_Adjusted_Penalty>  (318) 
0

>  <i_epik_Tot_Q>  (318) 
0

>  <i_epik_Tot_abs_Q>  (318) 
0

>  <s_lp_Force_Field>  (318) 
OPLS3e

>  <r_lp_Energy>  (318) 
540.715

>  <b_lp_Chiralities_Consistent>  (318) 
1

>  <s_lp_Variant>  (318) 
94:0-1

>  <s_i_glide_gridfile>  (318) 
pfpi4k_grid

>  <i_i_glide_lignum>  (318) 
44

>  <i_i_glide_rotatable_bonds>  (318) 
2

>  <r_i_docking_score>  (318) 
-0.852268

>  <r_i_glide_ligand_efficiency>  (318) 
-0.0266334

>  <r_i_glide_ligand_efficiency_sa>  (318) 
-0.0845557

>  <r_i_glide_ligand_efficiency_ln>  (318) 
-0.190846

>  <r_i_glide_gscore>  (318) 
-0.852268

>  <r_i_glide_lipo>  (318) 
-0.837423

>  <r_i_glide_hbond>  (318) 
-0.360891

>  <r_i_glide_metal>  (318) 
-0

>  <r_i_glide_rewards>  (318) 
-0.459584

>  <r_i_glide_evdw>  (318) 
0.0644202

>  <r_i_glide_ecoul>  (318) 
-1.78267

>  <r_i_glide_erotb>  (318) 
0

>  <r_i_glide_esite>  (318) 
0

>  <r_i_glide_emodel>  (318) 
9.23009

>  <r_i_glide_energy>  (318) 
-1.71825

>  <r_i_glide_einternal>  (318) 
7.9051

>  <r_i_glide_intrahb_reward>  (318) 
-0

>  <i_i_glide_confnum>  (318) 
2

>  <i_i_glide_posenum>  (318) 
36

>  <r_i_glide_eff_state_penalty>  (318) 
0

>  <ligand_id>  (318) 
94

>  <original_smiles>  (318) 
COc1ccc2c3c1OC1C4(OC)CC5CC6C7C(C2)C(CCC31C1CCCC5C61)CC74

>  <smiles>  (318) 
[H]c1c([H])c2c3c(c1OC([H])([H])[H])OC1([H])C4(OC([H])([H])[H])C([H])([H])C5([H])C([H])([H])C6([H])C7([H])C([H])(C2([H])[H])C([H])(C([H])([H])C([H])([H])C31C1([H])C([H])([H])C([H])([H])C([H])([H])C5([H])C61[H])C([H])([H])C74[H]

$$$$
95:0:0
     RDKit          3D

 92 99  0  0  1  0  0  0  0  0999 V2000
   -0.7676    0.2654    6.3396 C   0  0  0  0  0  0  0  0  0  0  0  0
    0.6616    0.4949    6.8593 C   0  0  0  0  0  0  0  0  0  0  0  0
    0.6402    0.5516    8.3987 C   0  0  0  0  0  0  0  0  0  0  0  0
    1.4743    1.7066    6.2780 C   0  0  1  0  0  0  0  0  0  0  0  0
    0.7185    3.0434    6.5087 C   0  0  0  0  0  0  0  0  0  0  0  0
   -0.0101    3.6759    5.2601 C   0  0  0  0  0  0  0  0  0  0  0  0
   -1.4110    4.1354    5.7004 C   0  0  0  0  0  0  0  0  0  0  0  0
    0.7660    4.9252    4.7801 C   0  0  0  0  0  0  0  0  0  0  0  0
   -0.1526    2.6839    4.0610 C   0  0  0  0  0  0  0  0  0  0  0  0
    1.2030    2.1048    3.6152 C   0  0  2  0  0  0  0  0  0  0  0  0
    1.1684    0.8921    2.6861 C   0  0  0  0  0  0  0  0  0  0  0  0
    0.6241   -0.2868    3.0198 C   0  0  0  0  0  0  0  0  0  0  0  0
    1.3405   -1.1832    4.0234 C   0  0  0  0  0  0  0  0  0  0  0  0
    2.4577   -1.9203    3.3261 C   0  0  2  0  0  0  0  0  0  0  0  0
    3.5206   -2.8059    3.9910 C   0  0  1  0  0  0  0  0  0  0  0  0
    3.0833   -3.7577    5.1009 C   0  0  0  0  0  0  0  0  0  0  0  0
    4.3000   -3.4539    2.8419 C   0  0  0  0  0  0  0  0  0  0  0  0
    4.5548   -2.1775    1.9857 C   0  0  1  0  0  0  0  0  0  0  0  0
    4.2882   -2.3318    0.4879 N   0  0  0  0  0  0  0  0  0  0  0  0
    2.8577   -2.6249    0.2122 C   0  0  0  0  0  0  0  0  0  0  0  0
    5.1536   -3.4349   -0.0345 C   0  0  0  0  0  0  0  0  0  0  0  0
    5.1915   -3.4879   -1.5792 C   0  0  0  0  0  0  0  0  0  0  0  0
    5.6558   -2.2458   -2.0876 O   0  0  0  0  0  0  0  0  0  0  0  0
    4.7680   -1.2015   -1.7403 C   0  0  0  0  0  0  0  0  0  0  0  0
    4.7022   -1.0705   -0.2146 C   0  0  0  0  0  0  0  0  0  0  0  0
    3.7280   -1.1716    2.8614 C   0  0  1  0  0  0  0  0  0  0  0  0
    3.6789    0.3052    2.3850 C   0  0  0  0  0  0  0  0  0  0  0  0
    2.3536    0.8231    1.7209 C   0  0  0  0  0  0  0  0  0  0  0  0
    4.2383   -1.4927    4.3188 C   0  0  1  0  0  0  0  0  0  0  0  0
    4.3844   -0.8666    5.7553 C   0  0  2  0  0  0  0  0  0  0  0  0
    3.7315    0.1846    6.7182 C   0  0  1  0  0  0  0  0  0  0  0  0
    5.0584    0.5165    7.2382 O   0  0  0  0  0  0  0  0  0  0  0  0
    5.7213   -0.2740    6.2111 C   0  0  0  0  0  0  0  0  0  0  0  0
    6.7073   -1.2161    6.9101 C   0  0  0  0  0  0  0  0  0  0  0  0
    6.4473    0.6727    5.2512 C   0  0  0  0  0  0  0  0  0  0  0  0
    3.0242    1.5744    6.5445 C   0  0  1  0  0  0  0  0  0  0  0  0
    3.2054    2.1724    5.1810 C   0  0  0  0  0  0  0  0  0  0  0  0
    1.9902    1.7723    4.8552 C   0  0  0  0  0  0  0  0  0  0  0  0
   -1.4106    1.1316    6.4904 H   0  0  0  0  0  0  0  0  0  0  0  0
   -1.2133   -0.5710    6.8723 H   0  0  0  0  0  0  0  0  0  0  0  0
   -0.7929   -0.0130    5.2890 H   0  0  0  0  0  0  0  0  0  0  0  0
    1.1761   -0.4395    6.6832 H   0  0  0  0  0  0  0  0  0  0  0  0
   -0.0429    1.3151    8.7722 H   0  0  0  0  0  0  0  0  0  0  0  0
    1.6288    0.7739    8.8064 H   0  0  0  0  0  0  0  0  0  0  0  0
    0.3235   -0.4025    8.8217 H   0  0  0  0  0  0  0  0  0  0  0  0
   -0.0098    2.9231    7.3072 H   0  0  0  0  0  0  0  0  0  0  0  0
    1.4133    3.7730    6.9221 H   0  0  0  0  0  0  0  0  0  0  0  0
   -1.9434    4.6050    4.8738 H   0  0  0  0  0  0  0  0  0  0  0  0
   -1.3470    4.8397    6.5310 H   0  0  0  0  0  0  0  0  0  0  0  0
   -2.0210    3.2962    6.0377 H   0  0  0  0  0  0  0  0  0  0  0  0
    0.3210    5.3475    3.8763 H   0  0  0  0  0  0  0  0  0  0  0  0
    1.8041    4.6912    4.5418 H   0  0  0  0  0  0  0  0  0  0  0  0
    0.7833    5.7117    5.5352 H   0  0  0  0  0  0  0  0  0  0  0  0
   -0.8288    1.8839    4.3275 H   0  0  0  0  0  0  0  0  0  0  0  0
   -0.6414    3.1768    3.2187 H   0  0  0  0  0  0  0  0  0  0  0  0
    1.7188    2.9060    3.0817 H   0  0  0  0  0  0  0  0  0  0  0  0
    0.5103   -0.9470    2.1718 H   0  0  0  0  0  0  0  0  0  0  0  0
    1.7795   -0.6083    4.8139 H   0  0  0  0  0  0  0  0  0  0  0  0
    0.6277   -1.8646    4.4813 H   0  0  0  0  0  0  0  0  0  0  0  0
    2.0113   -2.5481    2.5666 H   0  0  0  0  0  0  0  0  0  0  0  0
    3.9367   -4.2039    5.6148 H   0  0  0  0  0  0  0  0  0  0  0  0
    2.4535   -4.5569    4.7066 H   0  0  0  0  0  0  0  0  0  0  0  0
    2.4930   -3.2168    5.8423 H   0  0  0  0  0  0  0  0  0  0  0  0
    5.2247   -3.9272    3.1804 H   0  0  0  0  0  0  0  0  0  0  0  0
    3.7011   -4.2173    2.3573 H   0  0  0  0  0  0  0  0  0  0  0  0
    5.6112   -1.9417    2.0899 H   0  0  0  0  0  0  0  0  0  0  0  0
    2.6169   -2.6248   -0.8545 H   0  0  0  0  0  0  0  0  0  0  0  0
    2.1956   -1.9210    0.6949 H   0  0  0  0  0  0  0  0  0  0  0  0
    2.5588   -3.6102    0.5682 H   0  0  0  0  0  0  0  0  0  0  0  0
    6.1793   -3.3235    0.3227 H   0  0  0  0  0  0  0  0  0  0  0  0
    4.8203   -4.4080    0.3328 H   0  0  0  0  0  0  0  0  0  0  0  0
    5.8728   -4.2623   -1.9148 H   0  0  0  0  0  0  0  0  0  0  0  0
    4.2139   -3.7296   -2.0025 H   0  0  0  0  0  0  0  0  0  0  0  0
    5.1343   -0.2625   -2.1528 H   0  0  0  0  0  0  0  0  0  0  0  0
    3.7806   -1.3491   -2.1739 H   0  0  0  0  0  0  0  0  0  0  0  0
    3.9912   -0.2771   -0.0403 H   0  0  0  0  0  0  0  0  0  0  0  0
    5.6729   -0.7326    0.1448 H   0  0  0  0  0  0  0  0  0  0  0  0
    3.9055    0.9328    3.2227 H   0  0  0  0  0  0  0  0  0  0  0  0
    4.5328    0.5077    1.7430 H   0  0  0  0  0  0  0  0  0  0  0  0
    2.0543    0.2043    0.8802 H   0  0  0  0  0  0  0  0  0  0  0  0
    2.5094    1.8070    1.2899 H   0  0  0  0  0  0  0  0  0  0  0  0
    5.3014   -1.6991    4.2032 H   0  0  0  0  0  0  0  0  0  0  0  0
    4.3083   -1.7731    6.3514 H   0  0  0  0  0  0  0  0  0  0  0  0
    3.1928   -0.3924    7.4742 H   0  0  0  0  0  0  0  0  0  0  0  0
    7.1613   -1.9086    6.2102 H   0  0  0  0  0  0  0  0  0  0  0  0
    6.2142   -1.8275    7.6677 H   0  0  0  0  0  0  0  0  0  0  0  0
    7.4958   -0.6549    7.4078 H   0  0  0  0  0  0  0  0  0  0  0  0
    7.0356    0.1541    4.5038 H   0  0  0  0  0  0  0  0  0  0  0  0
    7.1166    1.3353    5.7957 H   0  0  0  0  0  0  0  0  0  0  0  0
    5.7335    1.2786    4.7038 H   0  0  0  0  0  0  0  0  0  0  0  0
    3.2975    2.2130    7.3840 H   0  0  0  0  0  0  0  0  0  0  0  0
    4.0379    2.6560    4.6675 H   0  0  0  0  0  0  0  0  0  0  0  0
  1  2  1  0
  1 39  1  0
  1 40  1  0
  1 41  1  0
  2  3  1  0
  4  2  1  6
  2 42  1  0
  3 43  1  0
  3 44  1  0
  3 45  1  0
  4 36  1  0
  4 38  1  0
  4  5  1  0
  5  6  1  0
  5 46  1  0
  5 47  1  0
  6  7  1  0
  6  8  1  0
  6  9  1  0
  7 48  1  0
  7 49  1  0
  7 50  1  0
  8 51  1  0
  8 52  1  0
  8 53  1  0
  9 10  1  0
  9 54  1  0
  9 55  1  0
 10 38  1  0
 10 11  1  0
 10 56  1  6
 11 28  1  0
 11 12  2  0
 12 13  1  0
 12 57  1  0
 13 14  1  0
 13 58  1  0
 13 59  1  0
 14 26  1  0
 14 15  1  0
 14 60  1  6
 15 29  1  0
 15 16  1  1
 15 17  1  0
 16 61  1  0
 16 62  1  0
 16 63  1  0
 17 18  1  0
 17 64  1  0
 17 65  1  0
 18 19  1  0
 18 26  1  0
 18 66  1  6
 19 25  1  0
 19 20  1  0
 19 21  1  0
 20 67  1  0
 20 68  1  0
 20 69  1  0
 21 22  1  0
 21 70  1  0
 21 71  1  0
 22 23  1  0
 22 72  1  0
 22 73  1  0
 23 24  1  0
 24 25  1  0
 24 74  1  0
 24 75  1  0
 25 76  1  0
 25 77  1  0
 26 27  1  6
 26 29  1  0
 27 28  1  0
 27 78  1  0
 27 79  1  0
 28 80  1  0
 28 81  1  0
 29 30  1  0
 29 82  1  6
 30 33  1  0
 30 31  1  0
 30 83  1  1
 31 32  1  0
 31 36  1  0
 31 84  1  1
 32 33  1  0
 33 34  1  0
 33 35  1  0
 34 85  1  0
 34 86  1  0
 34 87  1  0
 35 88  1  0
 35 89  1  0
 35 90  1  0
 36 37  1  0
 36 91  1  1
 37 38  2  0
 37 92  1  0
M  CHG  1  19   1
M  END
>  <i_m_ct_stereo_status>  (319) 
1

>  <s_m_source_file>  (319) 
/var/tmp/pbs.5076255.sched01/tmp2gi29psn/132an720x3a.sdf

>  <i_m_source_file_index>  (319) 
1

>  <i_lp_mmshare_version>  (319) 
48012

>  <i_f3d_flags>  (319) 
0

>  <s_epik_input>  (319) 
W0NIMl0xQyhbQ0gzXSkoW0NIM10pW0NIMl1bQ0BIXShDKD1bQ0hdW0NIMl0yKVtDSDJdW0NIMl0zKUMoPVtDSF00KVtDQEBdMShbQ0hdKFtDSDNdKVtDSDNdKVtDQEhdNFtDQEhdKE9DNShbQ0gzXSlbQ0gzXSlbQ0BIXTVbQ0BIXTZbQ0BdKFtDQEBIXTJbQ0BAXTM2NykoW0NIM10pW0NIMl1bQ0BIXTdbTitdOChbQ0gzXSlbQ0gyXVtDSDJdT1tDSDJdW0NIMl04

>  <s_epik_cmdline>  (319) 
J2VwaWtfcHl0aG9uJywgJy1waHQnLCAnMi4wJywgJy1waCcsICc3LjAnLCAnLXRuJywgJzgnLCAnLW1hJywgJzIwMCcsICctaW1hZScsICc8aW5maWxlLm1hZT4nLCAnLW9tYWUnLCAnPG91dGZpbGUubWFlPic=

>  <r_lp_tautomer_probability>  (319) 
1

>  <r_epik_Ionization_Penalty>  (319) 
1.40058e-11

>  <r_epik_Ionization_Penalty_Charging>  (319) 
0

>  <r_epik_Ionization_Penalty_Neutral>  (319) 
1.40058e-11

>  <r_epik_State_Penalty>  (319) 
-0

>  <r_epik_Charging_Adjusted_Penalty>  (319) 
0

>  <i_epik_Tot_Q>  (319) 
1

>  <i_epik_Tot_abs_Q>  (319) 
1

>  <s_lp_Force_Field>  (319) 
OPLS3e

>  <r_lp_Energy>  (319) 
214.369

>  <b_lp_Chiralities_Consistent>  (319) 
1

>  <s_lp_Variant>  (319) 
95:0-1

>  <s_i_glide_gridfile>  (319) 
pfpi4k_grid

>  <i_i_glide_lignum>  (319) 
1

>  <i_i_glide_rotatable_bonds>  (319) 
2

>  <r_i_docking_score>  (319) 
-2.0593

>  <r_i_glide_ligand_efficiency>  (319) 
-0.0541921

>  <r_i_glide_ligand_efficiency_sa>  (319) 
-0.182192

>  <r_i_glide_ligand_efficiency_ln>  (319) 
-0.444045

>  <r_i_glide_gscore>  (319) 
-2.0593

>  <r_i_glide_lipo>  (319) 
-0.46193

>  <r_i_glide_hbond>  (319) 
0

>  <r_i_glide_metal>  (319) 
-0

>  <r_i_glide_rewards>  (319) 
0

>  <r_i_glide_evdw>  (319) 
-23.4155

>  <r_i_glide_ecoul>  (319) 
-3.31148

>  <r_i_glide_erotb>  (319) 
0.0757757

>  <r_i_glide_esite>  (319) 
-0.00564599

>  <r_i_glide_emodel>  (319) 
-28.7261

>  <r_i_glide_energy>  (319) 
-26.727

>  <r_i_glide_einternal>  (319) 
0.619615

>  <r_i_glide_intrahb_reward>  (319) 
-0

>  <i_i_glide_confnum>  (319) 
6

>  <i_i_glide_posenum>  (319) 
22

>  <r_i_glide_eff_state_penalty>  (319) 
0

>  <ligand_id>  (319) 
95

>  <original_smiles>  (319) 
CC(C)C12CC(C)(C)CC3C4=CCC5C6(C)CC([N+]7(C)CCOCC7)C5(CC4)C6C4C(OC4(C)C)C1C=C32

>  <smiles>  (319) 
[H]C1=C2C([H])([H])C([H])([H])C34C([H])(C1([H])[H])C(C([H])([H])[H])(C([H])([H])C3([H])[N+]1(C([H])([H])[H])C([H])([H])C([H])([H])OC([H])([H])C1([H])[H])C4([H])C1([H])C([H])(OC1(C([H])([H])[H])C([H])([H])[H])C1([H])C([H])=C3C2([H])C([H])([H])C(C([H])([H])[H])(C([H])([H])[H])C([H])([H])C31C([H])(C([H])([H])[H])C([H])([H])[H]

$$$$
95:0:1
     RDKit          3D

 92 99  0  0  1  0  0  0  0  0999 V2000
   -0.6920    0.0561    5.8707 C   0  0  0  0  0  0  0  0  0  0  0  0
    0.7042    0.3782    6.4318 C   0  0  0  0  0  0  0  0  0  0  0  0
    0.6218    0.5515    7.9488 C   0  0  0  0  0  0  0  0  0  0  0  0
    1.4895    1.5598    5.7824 C   0  0  1  0  0  0  0  0  0  0  0  0
    0.6387    2.8783    5.8155 C   0  0  0  0  0  0  0  0  0  0  0  0
   -0.0174    3.3424    4.4496 C   0  0  0  0  0  0  0  0  0  0  0  0
   -1.4690    3.7581    4.7241 C   0  0  0  0  0  0  0  0  0  0  0  0
    0.7314    4.5786    3.9018 C   0  0  0  0  0  0  0  0  0  0  0  0
    0.0033    2.2273    3.3519 C   0  0  0  0  0  0  0  0  0  0  0  0
    1.4141    1.6905    3.0847 C   0  0  2  0  0  0  0  0  0  0  0  0
    1.5339    0.4124    2.2597 C   0  0  0  0  0  0  0  0  0  0  0  0
    1.0406   -0.7705    2.6665 C   0  0  0  0  0  0  0  0  0  0  0  0
    1.7003   -1.5082    3.8345 C   0  0  0  0  0  0  0  0  0  0  0  0
    2.9214   -2.2293    3.3112 C   0  0  2  0  0  0  0  0  0  0  0  0
    3.9498   -2.9762    4.1506 C   0  0  1  0  0  0  0  0  0  0  0  0
    3.4914   -3.8643    5.3003 C   0  0  0  0  0  0  0  0  0  0  0  0
    4.8487   -3.6948    3.1266 C   0  0  0  0  0  0  0  0  0  0  0  0
    5.1254   -2.5231    2.1441 C   0  0  1  0  0  0  0  0  0  0  0  0
    5.0025   -2.8708    0.6608 N   0  0  0  0  0  0  0  0  0  0  0  0
    5.7143   -4.1648    0.3678 C   0  0  0  0  0  0  0  0  0  0  0  0
    5.6598   -1.7637   -0.1313 C   0  0  0  0  0  0  0  0  0  0  0  0
    5.3789   -1.8569   -1.6467 C   0  0  0  0  0  0  0  0  0  0  0  0
    3.9796   -1.8062   -1.8246 O   0  0  0  0  0  0  0  0  0  0  0  0
    3.3368   -2.9429   -1.2825 C   0  0  0  0  0  0  0  0  0  0  0  0
    3.5591   -2.9914    0.2491 C   0  0  0  0  0  0  0  0  0  0  0  0
    4.1670   -1.4470    2.8463 C   0  0  1  0  0  0  0  0  0  0  0  0
    4.0909   -0.0234    2.2143 C   0  0  0  0  0  0  0  0  0  0  0  0
    2.7996    0.3617    1.4023 C   0  0  0  0  0  0  0  0  0  0  0  0
    4.5635   -1.6027    4.3677 C   0  0  1  0  0  0  0  0  0  0  0  0
    4.5700   -0.8328    5.7441 C   0  0  2  0  0  0  0  0  0  0  0  0
    3.7939    0.2616    6.5325 C   0  0  1  0  0  0  0  0  0  0  0  0
    5.0694    0.7270    7.1209 O   0  0  0  0  0  0  0  0  0  0  0  0
    5.8496   -0.1338    6.2261 C   0  0  0  0  0  0  0  0  0  0  0  0
    6.8247   -0.9338    7.0894 C   0  0  0  0  0  0  0  0  0  0  0  0
    6.5923    0.7443    5.2376 C   0  0  0  0  0  0  0  0  0  0  0  0
    3.0242    1.5794    6.1734 C   0  0  1  0  0  0  0  0  0  0  0  0
    3.2655    2.0278    4.7846 C   0  0  0  0  0  0  0  0  0  0  0  0
    2.1155    1.5314    4.4031 C   0  0  0  0  0  0  0  0  0  0  0  0
   -1.3724    0.9076    5.9204 H   0  0  0  0  0  0  0  0  0  0  0  0
   -1.1362   -0.7380    6.4646 H   0  0  0  0  0  0  0  0  0  0  0  0
   -0.6695   -0.3229    4.8491 H   0  0  0  0  0  0  0  0  0  0  0  0
    1.2680   -0.5331    6.3422 H   0  0  0  0  0  0  0  0  0  0  0  0
   -0.0954    1.3205    8.2237 H   0  0  0  0  0  0  0  0  0  0  0  0
    1.5830    0.8358    8.3720 H   0  0  0  0  0  0  0  0  0  0  0  0
    0.3242   -0.3827    8.4170 H   0  0  0  0  0  0  0  0  0  0  0  0
   -0.1450    2.8058    6.5813 H   0  0  0  0  0  0  0  0  0  0  0  0
    1.2692    3.6869    6.1772 H   0  0  0  0  0  0  0  0  0  0  0  0
   -1.9526    4.1279    3.8213 H   0  0  0  0  0  0  0  0  0  0  0  0
   -1.5029    4.5419    5.4787 H   0  0  0  0  0  0  0  0  0  0  0  0
   -2.0578    2.9214    5.0921 H   0  0  0  0  0  0  0  0  0  0  0  0
    0.3382    4.8792    2.9305 H   0  0  0  0  0  0  0  0  0  0  0  0
    1.7928    4.3860    3.7621 H   0  0  0  0  0  0  0  0  0  0  0  0
    0.6437    5.4349    4.5683 H   0  0  0  0  0  0  0  0  0  0  0  0
   -0.6448    1.4158    3.6423 H   0  0  0  0  0  0  0  0  0  0  0  0
   -0.4382    2.6001    2.4247 H   0  0  0  0  0  0  0  0  0  0  0  0
    1.9354    2.4719    2.5270 H   0  0  0  0  0  0  0  0  0  0  0  0
    1.0260   -1.5253    1.8861 H   0  0  0  0  0  0  0  0  0  0  0  0
    2.0417   -0.8338    4.5919 H   0  0  0  0  0  0  0  0  0  0  0  0
    0.9942   -2.2061    4.2950 H   0  0  0  0  0  0  0  0  0  0  0  0
    2.5685   -2.9736    2.6271 H   0  0  0  0  0  0  0  0  0  0  0  0
    4.3285   -4.2025    5.9131 H   0  0  0  0  0  0  0  0  0  0  0  0
    2.9471   -4.7374    4.9357 H   0  0  0  0  0  0  0  0  0  0  0  0
    2.8173   -3.2948    5.9295 H   0  0  0  0  0  0  0  0  0  0  0  0
    5.7596   -4.0872    3.5880 H   0  0  0  0  0  0  0  0  0  0  0  0
    4.2928   -4.5279    2.7031 H   0  0  0  0  0  0  0  0  0  0  0  0
    6.1696   -2.2172    2.3237 H   0  0  0  0  0  0  0  0  0  0  0  0
    5.5550   -4.4880   -0.6624 H   0  0  0  0  0  0  0  0  0  0  0  0
    5.3970   -5.0224    0.9634 H   0  0  0  0  0  0  0  0  0  0  0  0
    6.7839   -4.0643    0.5124 H   0  0  0  0  0  0  0  0  0  0  0  0
    5.3167   -0.7692    0.1208 H   0  0  0  0  0  0  0  0  0  0  0  0
    6.7449   -1.7875    0.0315 H   0  0  0  0  0  0  0  0  0  0  0  0
    5.8065   -0.9657   -2.1084 H   0  0  0  0  0  0  0  0  0  0  0  0
    5.8230   -2.7238   -2.1450 H   0  0  0  0  0  0  0  0  0  0  0  0
    2.2643   -2.8608   -1.4752 H   0  0  0  0  0  0  0  0  0  0  0  0
    3.6803   -3.8394   -1.7874 H   0  0  0  0  0  0  0  0  0  0  0  0
    3.1263   -3.9360    0.6280 H   0  0  0  0  0  0  0  0  0  0  0  0
    2.9477   -2.1562    0.6224 H   0  0  0  0  0  0  0  0  0  0  0  0
    4.1571    0.6505    3.0487 H   0  0  0  0  0  0  0  0  0  0  0  0
    5.0010    0.2174    1.6747 H   0  0  0  0  0  0  0  0  0  0  0  0
    2.6188   -0.2705    0.5350 H   0  0  0  0  0  0  0  0  0  0  0  0
    2.9512    1.3435    0.9749 H   0  0  0  0  0  0  0  0  0  0  0  0
    5.6162   -1.7658    4.3630 H   0  0  0  0  0  0  0  0  0  0  0  0
    4.5074   -1.6737    6.4292 H   0  0  0  0  0  0  0  0  0  0  0  0
    3.2411   -0.3029    7.2750 H   0  0  0  0  0  0  0  0  0  0  0  0
    7.3886   -1.6292    6.4819 H   0  0  0  0  0  0  0  0  0  0  0  0
    6.3075   -1.5046    7.8592 H   0  0  0  0  0  0  0  0  0  0  0  0
    7.5208   -0.2659    7.5896 H   0  0  0  0  0  0  0  0  0  0  0  0
    7.2654    0.1663    4.6227 H   0  0  0  0  0  0  0  0  0  0  0  0
    7.1723    1.4981    5.7548 H   0  0  0  0  0  0  0  0  0  0  0  0
    5.8926    1.2255    4.5745 H   0  0  0  0  0  0  0  0  0  0  0  0
    3.1946    2.3227    6.9560 H   0  0  0  0  0  0  0  0  0  0  0  0
    4.0906    2.5031    4.2547 H   0  0  0  0  0  0  0  0  0  0  0  0
  1  2  1  0
  1 39  1  0
  1 40  1  0
  1 41  1  0
  2  3  1  0
  4  2  1  1
  2 42  1  0
  3 43  1  0
  3 44  1  0
  3 45  1  0
  4 36  1  0
  4 38  1  0
  4  5  1  0
  5  6  1  0
  5 46  1  0
  5 47  1  0
  6  7  1  0
  6  8  1  0
  6  9  1  0
  7 48  1  0
  7 49  1  0
  7 50  1  0
  8 51  1  0
  8 52  1  0
  8 53  1  0
  9 10  1  0
  9 54  1  0
  9 55  1  0
 10 38  1  0
 10 11  1  0
 10 56  1  6
 11 28  1  0
 11 12  2  0
 12 13  1  0
 12 57  1  0
 13 14  1  0
 13 58  1  0
 13 59  1  0
 14 26  1  0
 14 15  1  0
 14 60  1  6
 15 29  1  0
 15 16  1  1
 15 17  1  0
 16 61  1  0
 16 62  1  0
 16 63  1  0
 17 18  1  0
 17 64  1  0
 17 65  1  0
 18 19  1  0
 18 26  1  0
 18 66  1  6
 19 25  1  0
 19 20  1  0
 19 21  1  0
 20 67  1  0
 20 68  1  0
 20 69  1  0
 21 22  1  0
 21 70  1  0
 21 71  1  0
 22 23  1  0
 22 72  1  0
 22 73  1  0
 23 24  1  0
 24 25  1  0
 24 74  1  0
 24 75  1  0
 25 76  1  0
 25 77  1  0
 26 27  1  6
 26 29  1  0
 27 28  1  0
 27 78  1  0
 27 79  1  0
 28 80  1  0
 28 81  1  0
 29 30  1  0
 29 82  1  6
 30 33  1  0
 30 31  1  0
 30 83  1  1
 31 32  1  0
 31 36  1  0
 31 84  1  1
 32 33  1  0
 33 34  1  0
 33 35  1  0
 34 85  1  0
 34 86  1  0
 34 87  1  0
 35 88  1  0
 35 89  1  0
 35 90  1  0
 36 37  1  0
 36 91  1  1
 37 38  2  0
 37 92  1  0
M  CHG  1  19   1
M  END
>  <i_m_ct_stereo_status>  (320) 
1

>  <s_m_source_file>  (320) 
/var/tmp/pbs.5076255.sched01/tmp2gi29psn/132an720x3a.sdf

>  <i_m_source_file_index>  (320) 
1

>  <i_lp_mmshare_version>  (320) 
48012

>  <i_f3d_flags>  (320) 
0

>  <s_epik_input>  (320) 
W0NIMl0xQyhbQ0gzXSkoW0NIM10pW0NIMl1bQ0BIXShDKD1bQ0hdW0NIMl0yKVtDSDJdW0NIMl0zKUMoPVtDSF00KVtDQEBdMShbQ0hdKFtDSDNdKVtDSDNdKVtDQEhdNFtDQEhdKE9DNShbQ0gzXSlbQ0gzXSlbQ0BIXTVbQ0BIXTZbQ0BdKFtDQEBIXTJbQ0BAXTM2NykoW0NIM10pW0NIMl1bQ0BIXTdbTitdOChbQ0gzXSlbQ0gyXVtDSDJdT1tDSDJdW0NIMl04

>  <s_epik_cmdline>  (320) 
J2VwaWtfcHl0aG9uJywgJy1waHQnLCAnMi4wJywgJy1waCcsICc3LjAnLCAnLXRuJywgJzgnLCAnLW1hJywgJzIwMCcsICctaW1hZScsICc8aW5maWxlLm1hZT4nLCAnLW9tYWUnLCAnPG91dGZpbGUubWFlPic=

>  <r_lp_tautomer_probability>  (320) 
1

>  <r_epik_Ionization_Penalty>  (320) 
1.40058e-11

>  <r_epik_Ionization_Penalty_Charging>  (320) 
0

>  <r_epik_Ionization_Penalty_Neutral>  (320) 
1.40058e-11

>  <r_epik_State_Penalty>  (320) 
-0

>  <r_epik_Charging_Adjusted_Penalty>  (320) 
0

>  <i_epik_Tot_Q>  (320) 
1

>  <i_epik_Tot_abs_Q>  (320) 
1

>  <s_lp_Force_Field>  (320) 
OPLS3e

>  <r_lp_Energy>  (320) 
214.369

>  <b_lp_Chiralities_Consistent>  (320) 
1

>  <s_lp_Variant>  (320) 
95:0-1

>  <s_i_glide_gridfile>  (320) 
pfpi4k_grid

>  <i_i_glide_lignum>  (320) 
1

>  <i_i_glide_rotatable_bonds>  (320) 
2

>  <r_i_docking_score>  (320) 
-2.00726

>  <r_i_glide_ligand_efficiency>  (320) 
-0.0528226

>  <r_i_glide_ligand_efficiency_sa>  (320) 
-0.177588

>  <r_i_glide_ligand_efficiency_ln>  (320) 
-0.432824

>  <r_i_glide_gscore>  (320) 
-2.00726

>  <r_i_glide_lipo>  (320) 
-0.538863

>  <r_i_glide_hbond>  (320) 
0

>  <r_i_glide_metal>  (320) 
-0

>  <r_i_glide_rewards>  (320) 
0

>  <r_i_glide_evdw>  (320) 
-25.3022

>  <r_i_glide_ecoul>  (320) 
-1.86043

>  <r_i_glide_erotb>  (320) 
0.0757757

>  <r_i_glide_esite>  (320) 
0

>  <r_i_glide_emodel>  (320) 
-28.2246

>  <r_i_glide_energy>  (320) 
-27.1626

>  <r_i_glide_einternal>  (320) 
0.969207

>  <r_i_glide_intrahb_reward>  (320) 
-0

>  <i_i_glide_confnum>  (320) 
6

>  <i_i_glide_posenum>  (320) 
2

>  <r_i_glide_eff_state_penalty>  (320) 
0

>  <ligand_id>  (320) 
95

>  <original_smiles>  (320) 
CC(C)C12CC(C)(C)CC3C4=CCC5C6(C)CC([N+]7(C)CCOCC7)C5(CC4)C6C4C(OC4(C)C)C1C=C32

>  <smiles>  (320) 
[H]C1=C2C([H])([H])C([H])([H])C34C([H])(C1([H])[H])C(C([H])([H])[H])(C([H])([H])C3([H])[N+]1(C([H])([H])[H])C([H])([H])C([H])([H])OC([H])([H])C1([H])[H])C4([H])C1([H])C([H])(OC1(C([H])([H])[H])C([H])([H])[H])C1([H])C([H])=C3C2([H])C([H])([H])C(C([H])([H])[H])(C([H])([H])[H])C([H])([H])C31C([H])(C([H])([H])[H])C([H])([H])[H]

$$$$
95:0:2
     RDKit          3D

 92 99  0  0  1  0  0  0  0  0999 V2000
    3.8978   -8.9650    5.8022 C   0  0  0  0  0  0  0  0  0  0  0  0
    2.7792   -8.2144    6.5373 C   0  0  0  0  0  0  0  0  0  0  0  0
    2.4900   -8.9083    7.8763 C   0  0  0  0  0  0  0  0  0  0  0  0
    1.4502   -7.9508    5.7544 C   0  0  1  0  0  0  0  0  0  0  0  0
    0.8192   -9.2900    5.2555 C   0  0  0  0  0  0  0  0  0  0  0  0
    0.9635   -9.6135    3.7162 C   0  0  0  0  0  0  0  0  0  0  0  0
    1.3798  -11.0870    3.5708 C   0  0  0  0  0  0  0  0  0  0  0  0
   -0.3953   -9.4294    3.0038 C   0  0  0  0  0  0  0  0  0  0  0  0
    2.0152   -8.7023    2.9978 C   0  0  0  0  0  0  0  0  0  0  0  0
    1.7217   -7.2027    3.1720 C   0  0  2  0  0  0  0  0  0  0  0  0
    2.8217   -6.2129    2.7971 C   0  0  0  0  0  0  0  0  0  0  0  0
    4.0217   -6.1804    3.4025 C   0  0  0  0  0  0  0  0  0  0  0  0
    4.1188   -5.6420    4.8305 C   0  0  0  0  0  0  0  0  0  0  0  0
    4.1161   -4.1381    4.7838 C   0  0  2  0  0  0  0  0  0  0  0  0
    4.0615   -3.1888    5.9860 C   0  0  1  0  0  0  0  0  0  0  0  0
    4.8981   -3.5124    7.2216 C   0  0  0  0  0  0  0  0  0  0  0  0
    4.2806   -1.7834    5.4050 C   0  0  0  0  0  0  0  0  0  0  0  0
    3.2665   -1.8454    4.2192 C   0  0  1  0  0  0  0  0  0  0  0  0
    3.7949   -1.3222    2.8805 N   0  0  0  0  0  0  0  0  0  0  0  0
    4.9012   -2.1718    2.3475 C   0  0  0  0  0  0  0  0  0  0  0  0
    4.3329    0.0676    3.0354 C   0  0  0  0  0  0  0  0  0  0  0  0
    3.2481    1.1378    3.2710 C   0  0  0  0  0  0  0  0  0  0  0  0
    2.2917    1.1007    2.2186 O   0  0  0  0  0  0  0  0  0  0  0  0
    1.6545   -0.1749    2.1264 C   0  0  0  0  0  0  0  0  0  0  0  0
    2.7141   -1.2609    1.8295 C   0  0  0  0  0  0  0  0  0  0  0  0
    2.8356   -3.3501    4.3978 C   0  0  1  0  0  0  0  0  0  0  0  0
    1.7744   -3.9152    3.4006 C   0  0  0  0  0  0  0  0  0  0  0  0
    2.2806   -4.8766    2.2710 C   0  0  0  0  0  0  0  0  0  0  0  0
    2.5597   -3.4480    5.9516 C   0  0  1  0  0  0  0  0  0  0  0  0
    1.7472   -4.2619    7.0248 C   0  0  2  0  0  0  0  0  0  0  0  0
    1.1717   -5.6847    7.3028 C   0  0  1  0  0  0  0  0  0  0  0  0
    0.0112   -5.0770    7.9748 O   0  0  0  0  0  0  0  0  0  0  0  0
    0.3998   -3.7369    7.5420 C   0  0  0  0  0  0  0  0  0  0  0  0
    0.4197   -2.8273    8.7736 C   0  0  0  0  0  0  0  0  0  0  0  0
   -0.6104   -3.2322    6.5164 C   0  0  0  0  0  0  0  0  0  0  0  0
    0.5606   -6.8394    6.4426 C   0  0  1  0  0  0  0  0  0  0  0  0
    0.2123   -6.4284    5.0588 C   0  0  0  0  0  0  0  0  0  0  0  0
    1.2871   -6.9752    4.6063 C   0  0  0  0  0  0  0  0  0  0  0  0
    3.5805   -9.9434    5.4409 H   0  0  0  0  0  0  0  0  0  0  0  0
    4.7242   -9.1357    6.4882 H   0  0  0  0  0  0  0  0  0  0  0  0
    4.3169   -8.3990    4.9711 H   0  0  0  0  0  0  0  0  0  0  0  0
    3.2163   -7.2852    6.8532 H   0  0  0  0  0  0  0  0  0  0  0  0
    2.2460   -9.9595    7.7409 H   0  0  0  0  0  0  0  0  0  0  0  0
    1.6581   -8.4413    8.4010 H   0  0  0  0  0  0  0  0  0  0  0  0
    3.3622   -8.8540    8.5242 H   0  0  0  0  0  0  0  0  0  0  0  0
    1.2170  -10.1371    5.8270 H   0  0  0  0  0  0  0  0  0  0  0  0
   -0.2431   -9.3108    5.5134 H   0  0  0  0  0  0  0  0  0  0  0  0
    1.4561  -11.3757    2.5257 H   0  0  0  0  0  0  0  0  0  0  0  0
    0.6594  -11.7481    4.0515 H   0  0  0  0  0  0  0  0  0  0  0  0
    2.3487  -11.2764    4.0314 H   0  0  0  0  0  0  0  0  0  0  0  0
   -0.3002   -9.5826    1.9327 H   0  0  0  0  0  0  0  0  0  0  0  0
   -0.8140   -8.4343    3.1586 H   0  0  0  0  0  0  0  0  0  0  0  0
   -1.1346  -10.1486    3.3400 H   0  0  0  0  0  0  0  0  0  0  0  0
    3.0033   -8.9274    3.3697 H   0  0  0  0  0  0  0  0  0  0  0  0
    2.0632   -8.9567    1.9372 H   0  0  0  0  0  0  0  0  0  0  0  0
    0.8609   -6.9822    2.5377 H   0  0  0  0  0  0  0  0  0  0  0  0
    4.7651   -5.5866    2.8814 H   0  0  0  0  0  0  0  0  0  0  0  0
    3.2791   -5.9514    5.4238 H   0  0  0  0  0  0  0  0  0  0  0  0
    5.0167   -6.0334    5.3148 H   0  0  0  0  0  0  0  0  0  0  0  0
    5.0045   -3.8261    4.2517 H   0  0  0  0  0  0  0  0  0  0  0  0
    4.6389   -2.8694    8.0646 H   0  0  0  0  0  0  0  0  0  0  0  0
    5.9644   -3.4160    7.0133 H   0  0  0  0  0  0  0  0  0  0  0  0
    4.7116   -4.5413    7.5130 H   0  0  0  0  0  0  0  0  0  0  0  0
    4.0387   -0.9970    6.1279 H   0  0  0  0  0  0  0  0  0  0  0  0
    5.3154   -1.6453    5.1152 H   0  0  0  0  0  0  0  0  0  0  0  0
    2.4260   -1.2183    4.5425 H   0  0  0  0  0  0  0  0  0  0  0  0
    5.2025   -1.8758    1.3332 H   0  0  0  0  0  0  0  0  0  0  0  0
    4.6393   -3.2255    2.3096 H   0  0  0  0  0  0  0  0  0  0  0  0
    5.8044   -2.1242    2.9600 H   0  0  0  0  0  0  0  0  0  0  0  0
    5.0937    0.1499    3.8216 H   0  0  0  0  0  0  0  0  0  0  0  0
    4.8676    0.3238    2.1228 H   0  0  0  0  0  0  0  0  0  0  0  0
    2.7545    1.0123    4.2379 H   0  0  0  0  0  0  0  0  0  0  0  0
    3.6892    2.1352    3.2909 H   0  0  0  0  0  0  0  0  0  0  0  0
    1.0945   -0.3627    3.0377 H   0  0  0  0  0  0  0  0  0  0  0  0
    0.9147   -0.1345    1.3289 H   0  0  0  0  0  0  0  0  0  0  0  0
    3.1856   -0.9599    0.8649 H   0  0  0  0  0  0  0  0  0  0  0  0
    2.2505   -2.2060    1.6272 H   0  0  0  0  0  0  0  0  0  0  0  0
    1.0661   -4.4571    3.9966 H   0  0  0  0  0  0  0  0  0  0  0  0
    1.1654   -3.1104    2.9975 H   0  0  0  0  0  0  0  0  0  0  0  0
    3.0575   -4.4264    1.6606 H   0  0  0  0  0  0  0  0  0  0  0  0
    1.4850   -5.0808    1.5604 H   0  0  0  0  0  0  0  0  0  0  0  0
    2.1056   -2.5055    6.2065 H   0  0  0  0  0  0  0  0  0  0  0  0
    2.3943   -4.1268    7.8875 H   0  0  0  0  0  0  0  0  0  0  0  0
    1.8301   -6.1154    8.0573 H   0  0  0  0  0  0  0  0  0  0  0  0
    0.7614   -1.8334    8.5133 H   0  0  0  0  0  0  0  0  0  0  0  0
    1.0858   -3.2126    9.5479 H   0  0  0  0  0  0  0  0  0  0  0  0
   -0.5691   -2.7566    9.2146 H   0  0  0  0  0  0  0  0  0  0  0  0
   -0.4004   -2.2047    6.2532 H   0  0  0  0  0  0  0  0  0  0  0  0
   -1.6194   -3.3079    6.9110 H   0  0  0  0  0  0  0  0  0  0  0  0
   -0.5648   -3.8214    5.6087 H   0  0  0  0  0  0  0  0  0  0  0  0
   -0.1823   -7.3410    7.0335 H   0  0  0  0  0  0  0  0  0  0  0  0
   -0.5975   -5.8130    4.6255 H   0  0  0  0  0  0  0  0  0  0  0  0
  1  2  1  0
  1 39  1  0
  1 40  1  0
  1 41  1  0
  2  3  1  0
  4  2  1  1
  2 42  1  0
  3 43  1  0
  3 44  1  0
  3 45  1  0
  4 36  1  0
  4 38  1  0
  4  5  1  0
  5  6  1  0
  5 46  1  0
  5 47  1  0
  6  7  1  0
  6  8  1  0
  6  9  1  0
  7 48  1  0
  7 49  1  0
  7 50  1  0
  8 51  1  0
  8 52  1  0
  8 53  1  0
  9 10  1  0
  9 54  1  0
  9 55  1  0
 10 38  1  0
 10 11  1  0
 10 56  1  6
 11 28  1  0
 11 12  2  0
 12 13  1  0
 12 57  1  0
 13 14  1  0
 13 58  1  0
 13 59  1  0
 14 26  1  0
 14 15  1  0
 14 60  1  6
 15 29  1  0
 15 16  1  1
 15 17  1  0
 16 61  1  0
 16 62  1  0
 16 63  1  0
 17 18  1  0
 17 64  1  0
 17 65  1  0
 18 19  1  0
 18 26  1  0
 18 66  1  1
 19 25  1  0
 19 20  1  0
 19 21  1  0
 20 67  1  0
 20 68  1  0
 20 69  1  0
 21 22  1  0
 21 70  1  0
 21 71  1  0
 22 23  1  0
 22 72  1  0
 22 73  1  0
 23 24  1  0
 24 25  1  0
 24 74  1  0
 24 75  1  0
 25 76  1  0
 25 77  1  0
 26 27  1  6
 26 29  1  0
 27 28  1  0
 27 78  1  0
 27 79  1  0
 28 80  1  0
 28 81  1  0
 29 30  1  0
 29 82  1  1
 30 33  1  0
 30 31  1  0
 30 83  1  1
 31 32  1  0
 31 36  1  0
 31 84  1  1
 32 33  1  0
 33 34  1  0
 33 35  1  0
 34 85  1  0
 34 86  1  0
 34 87  1  0
 35 88  1  0
 35 89  1  0
 35 90  1  0
 36 37  1  0
 36 91  1  1
 37 38  2  0
 37 92  1  0
M  CHG  1  19   1
M  END
>  <i_m_ct_stereo_status>  (321) 
1

>  <s_m_source_file>  (321) 
/var/tmp/pbs.5076255.sched01/tmp2gi29psn/132an720x3a.sdf

>  <i_m_source_file_index>  (321) 
1

>  <i_lp_mmshare_version>  (321) 
48012

>  <i_f3d_flags>  (321) 
0

>  <s_epik_input>  (321) 
W0NIMl0xQyhbQ0gzXSkoW0NIM10pW0NIMl1bQ0BIXShDKD1bQ0hdW0NIMl0yKVtDSDJdW0NIMl0zKUMoPVtDSF00KVtDQEBdMShbQ0hdKFtDSDNdKVtDSDNdKVtDQEhdNFtDQEhdKE9DNShbQ0gzXSlbQ0gzXSlbQ0BIXTVbQ0BIXTZbQ0BdKFtDQEBIXTJbQ0BAXTM2NykoW0NIM10pW0NIMl1bQ0BIXTdbTitdOChbQ0gzXSlbQ0gyXVtDSDJdT1tDSDJdW0NIMl04

>  <s_epik_cmdline>  (321) 
J2VwaWtfcHl0aG9uJywgJy1waHQnLCAnMi4wJywgJy1waCcsICc3LjAnLCAnLXRuJywgJzgnLCAnLW1hJywgJzIwMCcsICctaW1hZScsICc8aW5maWxlLm1hZT4nLCAnLW9tYWUnLCAnPG91dGZpbGUubWFlPic=

>  <r_lp_tautomer_probability>  (321) 
1

>  <r_epik_Ionization_Penalty>  (321) 
1.40058e-11

>  <r_epik_Ionization_Penalty_Charging>  (321) 
0

>  <r_epik_Ionization_Penalty_Neutral>  (321) 
1.40058e-11

>  <r_epik_State_Penalty>  (321) 
-0

>  <r_epik_Charging_Adjusted_Penalty>  (321) 
0

>  <i_epik_Tot_Q>  (321) 
1

>  <i_epik_Tot_abs_Q>  (321) 
1

>  <s_lp_Force_Field>  (321) 
OPLS3e

>  <r_lp_Energy>  (321) 
214.369

>  <b_lp_Chiralities_Consistent>  (321) 
1

>  <s_lp_Variant>  (321) 
95:0-1

>  <s_i_glide_gridfile>  (321) 
pfpi4k_grid

>  <i_i_glide_lignum>  (321) 
1

>  <i_i_glide_rotatable_bonds>  (321) 
2

>  <r_i_docking_score>  (321) 
-1.77273

>  <r_i_glide_ligand_efficiency>  (321) 
-0.0466508

>  <r_i_glide_ligand_efficiency_sa>  (321) 
-0.156839

>  <r_i_glide_ligand_efficiency_ln>  (321) 
-0.382253

>  <r_i_glide_gscore>  (321) 
-1.77273

>  <r_i_glide_lipo>  (321) 
-0.258132

>  <r_i_glide_hbond>  (321) 
0

>  <r_i_glide_metal>  (321) 
-0

>  <r_i_glide_rewards>  (321) 
0

>  <r_i_glide_evdw>  (321) 
-21.1878

>  <r_i_glide_ecoul>  (321) 
-3.53989

>  <r_i_glide_erotb>  (321) 
0.0757757

>  <r_i_glide_esite>  (321) 
0

>  <r_i_glide_emodel>  (321) 
-26.3871

>  <r_i_glide_energy>  (321) 
-24.7277

>  <r_i_glide_einternal>  (321) 
0.544944

>  <r_i_glide_intrahb_reward>  (321) 
-0

>  <i_i_glide_confnum>  (321) 
4

>  <i_i_glide_posenum>  (321) 
13

>  <r_i_glide_eff_state_penalty>  (321) 
0

>  <ligand_id>  (321) 
95

>  <original_smiles>  (321) 
CC(C)C12CC(C)(C)CC3C4=CCC5C6(C)CC([N+]7(C)CCOCC7)C5(CC4)C6C4C(OC4(C)C)C1C=C32

>  <smiles>  (321) 
[H]C1=C2C([H])([H])C([H])([H])C34C([H])(C1([H])[H])C(C([H])([H])[H])(C([H])([H])C3([H])[N+]1(C([H])([H])[H])C([H])([H])C([H])([H])OC([H])([H])C1([H])[H])C4([H])C1([H])C([H])(OC1(C([H])([H])[H])C([H])([H])[H])C1([H])C([H])=C3C2([H])C([H])([H])C(C([H])([H])[H])(C([H])([H])[H])C([H])([H])C31C([H])(C([H])([H])[H])C([H])([H])[H]

$$$$
96:0:0
     RDKit          3D

 28 29  0  0  1  0  0  0  0  0999 V2000
    0.3254    4.3122    3.2798 N   0  0  0  0  0  0  0  0  0  0  0  0
   -1.1602    3.9073    4.0031 S   0  0  0  0  0  0  0  0  0  0  0  0
   -1.0360    4.1072    5.4587 O   0  0  0  0  0  0  0  0  0  0  0  0
   -2.2236    4.5418    3.2301 O   0  0  0  0  0  0  0  0  0  0  0  0
   -1.1591    2.2307    3.6650 N   0  0  0  0  0  0  0  0  0  0  0  0
   -0.5121    1.2934    4.5812 C   0  0  0  0  0  0  0  0  0  0  0  0
   -0.5362   -0.1530    4.0379 C   0  0  2  0  0  0  0  0  0  0  0  0
    0.0301   -1.1680    5.0475 C   0  0  0  0  0  0  0  0  0  0  0  0
    1.3836   -0.8529    5.3503 O   0  0  0  0  0  0  0  0  0  0  0  0
    2.1593   -0.5567    4.2522 C   0  0  0  0  0  0  0  0  0  0  0  0
    3.5607   -0.5101    4.4005 C   0  0  0  0  0  0  0  0  0  0  0  0
    4.3768   -0.2320    3.2855 C   0  0  0  0  0  0  0  0  0  0  0  0
    3.7974    0.0057    2.0237 C   0  0  0  0  0  0  0  0  0  0  0  0
    2.3969   -0.0158    1.8787 C   0  0  0  0  0  0  0  0  0  0  0  0
    1.5781   -0.2773    2.9920 C   0  0  0  0  0  0  0  0  0  0  0  0
    0.2134   -0.2481    2.8279 O   0  0  0  0  0  0  0  0  0  0  0  0
    0.7139    5.1565    3.6927 H   0  0  0  0  0  0  0  0  0  0  0  0
    0.2041    4.4064    2.2553 H   0  0  0  0  0  0  0  0  0  0  0  0
   -2.0242    1.9146    3.2264 H   0  0  0  0  0  0  0  0  0  0  0  0
    0.5093    1.6414    4.7532 H   0  0  0  0  0  0  0  0  0  0  0  0
   -1.0273    1.3420    5.5418 H   0  0  0  0  0  0  0  0  0  0  0  0
   -1.5632   -0.4499    3.8045 H   0  0  0  0  0  0  0  0  0  0  0  0
   -0.5518   -1.1562    5.9683 H   0  0  0  0  0  0  0  0  0  0  0  0
   -0.0230   -2.1856    4.6538 H   0  0  0  0  0  0  0  0  0  0  0  0
    4.0037   -0.6845    5.3698 H   0  0  0  0  0  0  0  0  0  0  0  0
    5.4523   -0.1984    3.4020 H   0  0  0  0  0  0  0  0  0  0  0  0
    4.4193    0.2252    1.1682 H   0  0  0  0  0  0  0  0  0  0  0  0
    1.9440    0.1825    0.9175 H   0  0  0  0  0  0  0  0  0  0  0  0
  1  2  1  0
  1 17  1  0
  1 18  1  0
  2  3  2  0
  2  4  2  0
  2  5  1  0
  5  6  1  0
  5 19  1  0
  6  7  1  0
  6 20  1  0
  6 21  1  0
  7 16  1  0
  7  8  1  0
  7 22  1  6
  8  9  1  0
  8 23  1  0
  8 24  1  0
  9 10  1  0
 10 15  2  0
 10 11  1  0
 11 12  2  0
 11 25  1  0
 12 13  1  0
 12 26  1  0
 13 14  2  0
 13 27  1  0
 14 15  1  0
 14 28  1  0
 15 16  1  0
M  END
>  <i_m_ct_stereo_status>  (322) 
1

>  <s_m_source_file>  (322) 
/var/tmp/pbs.5076255.sched01/tmp2gi29psn/132an720x3a.sdf

>  <i_m_source_file_index>  (322) 
2

>  <i_lp_mmshare_version>  (322) 
48012

>  <i_f3d_flags>  (322) 
0

>  <s_epik_input>  (322) 
W05IMl1TKD1PKSg9TylbTkhdW0NIMl1bQ0BIXShbQ0gyXU8xKU9jKGMxMilbY0hdW2NIXVtjSF1bY0hdMg==

>  <s_epik_cmdline>  (322) 
J2VwaWtfcHl0aG9uJywgJy1waHQnLCAnMi4wJywgJy1waCcsICc3LjAnLCAnLXRuJywgJzgnLCAnLW1hJywgJzIwMCcsICctaW1hZScsICc8aW5maWxlLm1hZT4nLCAnLW9tYWUnLCAnPG91dGZpbGUubWFlPic=

>  <r_lp_tautomer_probability>  (322) 
1

>  <r_epik_Ionization_Penalty>  (322) 
0.265058

>  <r_epik_Ionization_Penalty_Charging>  (322) 
0

>  <r_epik_Ionization_Penalty_Neutral>  (322) 
0.265058

>  <r_epik_State_Penalty>  (322) 
0.109342

>  <r_epik_Charging_Adjusted_Penalty>  (322) 
0.109342

>  <i_epik_Tot_Q>  (322) 
0

>  <i_epik_Tot_abs_Q>  (322) 
0

>  <s_lp_Force_Field>  (322) 
OPLS3e

>  <r_lp_Energy>  (322) 
20.6156

>  <b_lp_Chiralities_Consistent>  (322) 
1

>  <s_lp_Variant>  (322) 
96:0-1

>  <s_i_glide_gridfile>  (322) 
pfpi4k_grid

>  <i_i_glide_lignum>  (322) 
2

>  <i_i_glide_rotatable_bonds>  (322) 
3

>  <r_i_docking_score>  (322) 
-3.87577

>  <r_i_glide_ligand_efficiency>  (322) 
-0.242235

>  <r_i_glide_ligand_efficiency_sa>  (322) 
-0.610395

>  <r_i_glide_ligand_efficiency_ln>  (322) 
-1.02735

>  <r_i_glide_gscore>  (322) 
-3.87577

>  <r_i_glide_lipo>  (322) 
-0.0773292

>  <r_i_glide_hbond>  (322) 
-0.146918

>  <r_i_glide_metal>  (322) 
-0

>  <r_i_glide_rewards>  (322) 
-1.74362

>  <r_i_glide_evdw>  (322) 
-13.1055

>  <r_i_glide_ecoul>  (322) 
-8.06567

>  <r_i_glide_erotb>  (322) 
0.291341

>  <r_i_glide_esite>  (322) 
-0.334107

>  <r_i_glide_emodel>  (322) 
-25.2662

>  <r_i_glide_energy>  (322) 
-21.1712

>  <r_i_glide_einternal>  (322) 
3.449

>  <r_i_glide_intrahb_reward>  (322) 
-0

>  <i_i_glide_confnum>  (322) 
4

>  <i_i_glide_posenum>  (322) 
3

>  <r_i_glide_eff_state_penalty>  (322) 
0

>  <ligand_id>  (322) 
96

>  <original_smiles>  (322) 
NS(=O)(=O)NCC1COc2ccccc2O1

>  <smiles>  (322) 
[H]c1c([H])c([H])c2c(c1[H])OC([H])([H])C([H])(C([H])([H])N([H])S(=O)(=O)N([H])[H])O2

$$$$
96:0:1
     RDKit          3D

 28 29  0  0  1  0  0  0  0  0999 V2000
    2.2139    2.4008    2.3623 N   0  0  0  0  0  0  0  0  0  0  0  0
    2.0532    0.6947    2.2949 S   0  0  0  0  0  0  0  0  0  0  0  0
    2.9750    0.2111    1.2725 O   0  0  0  0  0  0  0  0  0  0  0  0
    2.0506    0.1804    3.6784 O   0  0  0  0  0  0  0  0  0  0  0  0
    0.4297    0.5795    1.7151 N   0  0  0  0  0  0  0  0  0  0  0  0
   -0.7068    1.3411    2.2831 C   0  0  0  0  0  0  0  0  0  0  0  0
   -0.6266    1.4587    3.8095 C   0  0  2  0  0  0  0  0  0  0  0  0
   -0.7277    0.0778    4.4909 C   0  0  0  0  0  0  0  0  0  0  0  0
   -0.4939    0.2470    5.8871 O   0  0  0  0  0  0  0  0  0  0  0  0
   -1.1615    1.3015    6.4606 C   0  0  0  0  0  0  0  0  0  0  0  0
   -1.2665    1.3586    7.8601 C   0  0  0  0  0  0  0  0  0  0  0  0
   -2.0057    2.3813    8.4765 C   0  0  0  0  0  0  0  0  0  0  0  0
   -2.6179    3.3744    7.6856 C   0  0  0  0  0  0  0  0  0  0  0  0
   -2.4927    3.3463    6.2841 C   0  0  0  0  0  0  0  0  0  0  0  0
   -1.7620    2.3147    5.6592 C   0  0  0  0  0  0  0  0  0  0  0  0
   -1.6719    2.2919    4.2909 O   0  0  0  0  0  0  0  0  0  0  0  0
    3.2120    2.6650    2.3724 H   0  0  0  0  0  0  0  0  0  0  0  0
    1.7276    2.7765    3.1685 H   0  0  0  0  0  0  0  0  0  0  0  0
    0.3790    0.4074    0.6984 H   0  0  0  0  0  0  0  0  0  0  0  0
   -0.7600    2.3202    1.8108 H   0  0  0  0  0  0  0  0  0  0  0  0
   -1.6250    0.8356    1.9931 H   0  0  0  0  0  0  0  0  0  0  0  0
    0.3004    1.9546    4.0839 H   0  0  0  0  0  0  0  0  0  0  0  0
   -1.7373   -0.3440    4.3558 H   0  0  0  0  0  0  0  0  0  0  0  0
    0.0301   -0.5991    4.1108 H   0  0  0  0  0  0  0  0  0  0  0  0
   -0.7976    0.5934    8.4617 H   0  0  0  0  0  0  0  0  0  0  0  0
   -2.1121    2.4067    9.5500 H   0  0  0  0  0  0  0  0  0  0  0  0
   -3.1877    4.1632    8.1577 H   0  0  0  0  0  0  0  0  0  0  0  0
   -2.9511    4.1049    5.6750 H   0  0  0  0  0  0  0  0  0  0  0  0
  1  2  1  0
  1 17  1  0
  1 18  1  0
  2  3  2  0
  2  4  2  0
  2  5  1  0
  5  6  1  0
  5 19  1  0
  6  7  1  0
  6 20  1  0
  6 21  1  0
  7 16  1  0
  7  8  1  0
  7 22  1  6
  8  9  1  0
  8 23  1  0
  8 24  1  0
  9 10  1  0
 10 15  2  0
 10 11  1  0
 11 12  2  0
 11 25  1  0
 12 13  1  0
 12 26  1  0
 13 14  2  0
 13 27  1  0
 14 15  1  0
 14 28  1  0
 15 16  1  0
M  END
>  <i_m_ct_stereo_status>  (323) 
1

>  <s_m_source_file>  (323) 
/var/tmp/pbs.5076255.sched01/tmp2gi29psn/132an720x3a.sdf

>  <i_m_source_file_index>  (323) 
2

>  <i_lp_mmshare_version>  (323) 
48012

>  <i_f3d_flags>  (323) 
0

>  <s_epik_input>  (323) 
W05IMl1TKD1PKSg9TylbTkhdW0NIMl1bQ0BIXShbQ0gyXU8xKU9jKGMxMilbY0hdW2NIXVtjSF1bY0hdMg==

>  <s_epik_cmdline>  (323) 
J2VwaWtfcHl0aG9uJywgJy1waHQnLCAnMi4wJywgJy1waCcsICc3LjAnLCAnLXRuJywgJzgnLCAnLW1hJywgJzIwMCcsICctaW1hZScsICc8aW5maWxlLm1hZT4nLCAnLW9tYWUnLCAnPG91dGZpbGUubWFlPic=

>  <r_lp_tautomer_probability>  (323) 
1

>  <r_epik_Ionization_Penalty>  (323) 
0.265058

>  <r_epik_Ionization_Penalty_Charging>  (323) 
0

>  <r_epik_Ionization_Penalty_Neutral>  (323) 
0.265058

>  <r_epik_State_Penalty>  (323) 
0.109342

>  <r_epik_Charging_Adjusted_Penalty>  (323) 
0.109342

>  <i_epik_Tot_Q>  (323) 
0

>  <i_epik_Tot_abs_Q>  (323) 
0

>  <s_lp_Force_Field>  (323) 
OPLS3e

>  <r_lp_Energy>  (323) 
20.6156

>  <b_lp_Chiralities_Consistent>  (323) 
1

>  <s_lp_Variant>  (323) 
96:0-1

>  <s_i_glide_gridfile>  (323) 
pfpi4k_grid

>  <i_i_glide_lignum>  (323) 
2

>  <i_i_glide_rotatable_bonds>  (323) 
3

>  <r_i_docking_score>  (323) 
-3.76201

>  <r_i_glide_ligand_efficiency>  (323) 
-0.235126

>  <r_i_glide_ligand_efficiency_sa>  (323) 
-0.59248

>  <r_i_glide_ligand_efficiency_ln>  (323) 
-0.997197

>  <r_i_glide_gscore>  (323) 
-3.76201

>  <r_i_glide_lipo>  (323) 
-0.222817

>  <r_i_glide_hbond>  (323) 
-0.363348

>  <r_i_glide_metal>  (323) 
-0

>  <r_i_glide_rewards>  (323) 
-1.74362

>  <r_i_glide_evdw>  (323) 
-18.3464

>  <r_i_glide_ecoul>  (323) 
-4.3862

>  <r_i_glide_erotb>  (323) 
0.291341

>  <r_i_glide_esite>  (323) 
-0.148318

>  <r_i_glide_emodel>  (323) 
-26.8316

>  <r_i_glide_energy>  (323) 
-22.7326

>  <r_i_glide_einternal>  (323) 
2.15914

>  <r_i_glide_intrahb_reward>  (323) 
-0

>  <i_i_glide_confnum>  (323) 
3

>  <i_i_glide_posenum>  (323) 
11

>  <r_i_glide_eff_state_penalty>  (323) 
0

>  <ligand_id>  (323) 
96

>  <original_smiles>  (323) 
NS(=O)(=O)NCC1COc2ccccc2O1

>  <smiles>  (323) 
[H]c1c([H])c([H])c2c(c1[H])OC([H])([H])C([H])(C([H])([H])N([H])S(=O)(=O)N([H])[H])O2

$$$$
96:0:2
     RDKit          3D

 28 29  0  0  1  0  0  0  0  0999 V2000
   -0.1244    2.1060    2.1237 N   0  0  0  0  0  0  0  0  0  0  0  0
    1.1637    1.3602    2.9605 S   0  0  0  0  0  0  0  0  0  0  0  0
    2.1260    0.8493    1.9640 O   0  0  0  0  0  0  0  0  0  0  0  0
    1.5842    2.2444    4.0385 O   0  0  0  0  0  0  0  0  0  0  0  0
    0.3109    0.0024    3.6247 N   0  0  0  0  0  0  0  0  0  0  0  0
   -0.9646    0.1261    4.3599 C   0  0  0  0  0  0  0  0  0  0  0  0
   -0.8074    0.9325    5.6591 C   0  0  2  0  0  0  0  0  0  0  0  0
   -0.1083    0.1309    6.7708 C   0  0  0  0  0  0  0  0  0  0  0  0
    0.0950    0.9571    7.9092 O   0  0  0  0  0  0  0  0  0  0  0  0
   -0.9728    1.7545    8.2456 C   0  0  0  0  0  0  0  0  0  0  0  0
   -0.9940    2.3638    9.5153 C   0  0  0  0  0  0  0  0  0  0  0  0
   -2.0954    3.1487    9.9041 C   0  0  0  0  0  0  0  0  0  0  0  0
   -3.1654    3.3535    9.0126 C   0  0  0  0  0  0  0  0  0  0  0  0
   -3.1377    2.7683    7.7317 C   0  0  0  0  0  0  0  0  0  0  0  0
   -2.0552    1.9534    7.3537 C   0  0  0  0  0  0  0  0  0  0  0  0
   -2.0857    1.3304    6.1262 O   0  0  0  0  0  0  0  0  0  0  0  0
    0.1885    2.7442    1.3995 H   0  0  0  0  0  0  0  0  0  0  0  0
   -0.7221    2.6278    2.7737 H   0  0  0  0  0  0  0  0  0  0  0  0
    0.3993   -0.8223    3.0474 H   0  0  0  0  0  0  0  0  0  0  0  0
   -1.7280    0.5525    3.7139 H   0  0  0  0  0  0  0  0  0  0  0  0
   -1.3235   -0.8757    4.5975 H   0  0  0  0  0  0  0  0  0  0  0  0
   -0.2639    1.8703    5.4820 H   0  0  0  0  0  0  0  0  0  0  0  0
   -0.7000   -0.7345    7.0563 H   0  0  0  0  0  0  0  0  0  0  0  0
    0.8579   -0.2400    6.4360 H   0  0  0  0  0  0  0  0  0  0  0  0
   -0.1790    2.1999   10.2019 H   0  0  0  0  0  0  0  0  0  0  0  0
   -2.1208    3.5869   10.8909 H   0  0  0  0  0  0  0  0  0  0  0  0
   -4.0159    3.9490    9.3108 H   0  0  0  0  0  0  0  0  0  0  0  0
   -3.9598    2.9217    7.0500 H   0  0  0  0  0  0  0  0  0  0  0  0
  1  2  1  0
  1 17  1  0
  1 18  1  0
  2  3  2  0
  2  4  2  0
  2  5  1  0
  5  6  1  0
  5 19  1  0
  6  7  1  0
  6 20  1  0
  6 21  1  0
  7 16  1  0
  7  8  1  0
  7 22  1  6
  8  9  1  0
  8 23  1  0
  8 24  1  0
  9 10  1  0
 10 15  2  0
 10 11  1  0
 11 12  2  0
 11 25  1  0
 12 13  1  0
 12 26  1  0
 13 14  2  0
 13 27  1  0
 14 15  1  0
 14 28  1  0
 15 16  1  0
M  END
>  <i_m_ct_stereo_status>  (324) 
1

>  <s_m_source_file>  (324) 
/var/tmp/pbs.5076255.sched01/tmp2gi29psn/132an720x3a.sdf

>  <i_m_source_file_index>  (324) 
2

>  <i_lp_mmshare_version>  (324) 
48012

>  <i_f3d_flags>  (324) 
0

>  <s_epik_input>  (324) 
W05IMl1TKD1PKSg9TylbTkhdW0NIMl1bQ0BIXShbQ0gyXU8xKU9jKGMxMilbY0hdW2NIXVtjSF1bY0hdMg==

>  <s_epik_cmdline>  (324) 
J2VwaWtfcHl0aG9uJywgJy1waHQnLCAnMi4wJywgJy1waCcsICc3LjAnLCAnLXRuJywgJzgnLCAnLW1hJywgJzIwMCcsICctaW1hZScsICc8aW5maWxlLm1hZT4nLCAnLW9tYWUnLCAnPG91dGZpbGUubWFlPic=

>  <r_lp_tautomer_probability>  (324) 
1

>  <r_epik_Ionization_Penalty>  (324) 
0.265058

>  <r_epik_Ionization_Penalty_Charging>  (324) 
0

>  <r_epik_Ionization_Penalty_Neutral>  (324) 
0.265058

>  <r_epik_State_Penalty>  (324) 
0.109342

>  <r_epik_Charging_Adjusted_Penalty>  (324) 
0.109342

>  <i_epik_Tot_Q>  (324) 
0

>  <i_epik_Tot_abs_Q>  (324) 
0

>  <s_lp_Force_Field>  (324) 
OPLS3e

>  <r_lp_Energy>  (324) 
20.6156

>  <b_lp_Chiralities_Consistent>  (324) 
1

>  <s_lp_Variant>  (324) 
96:0-1

>  <s_i_glide_gridfile>  (324) 
pfpi4k_grid

>  <i_i_glide_lignum>  (324) 
2

>  <i_i_glide_rotatable_bonds>  (324) 
3

>  <r_i_docking_score>  (324) 
-3.38525

>  <r_i_glide_ligand_efficiency>  (324) 
-0.211578

>  <r_i_glide_ligand_efficiency_sa>  (324) 
-0.533144

>  <r_i_glide_ligand_efficiency_ln>  (324) 
-0.897329

>  <r_i_glide_gscore>  (324) 
-3.38525

>  <r_i_glide_lipo>  (324) 
-0.13526

>  <r_i_glide_hbond>  (324) 
-0.151327

>  <r_i_glide_metal>  (324) 
-0

>  <r_i_glide_rewards>  (324) 
-1.74362

>  <r_i_glide_evdw>  (324) 
-15.4588

>  <r_i_glide_ecoul>  (324) 
-4.65126

>  <r_i_glide_erotb>  (324) 
0.291341

>  <r_i_glide_esite>  (324) 
-0.175753

>  <r_i_glide_emodel>  (324) 
-24.5679

>  <r_i_glide_energy>  (324) 
-20.1101

>  <r_i_glide_einternal>  (324) 
1.09152

>  <r_i_glide_intrahb_reward>  (324) 
-0

>  <i_i_glide_confnum>  (324) 
3

>  <i_i_glide_posenum>  (324) 
26

>  <r_i_glide_eff_state_penalty>  (324) 
0

>  <ligand_id>  (324) 
96

>  <original_smiles>  (324) 
NS(=O)(=O)NCC1COc2ccccc2O1

>  <smiles>  (324) 
[H]c1c([H])c([H])c2c(c1[H])OC([H])([H])C([H])(C([H])([H])N([H])S(=O)(=O)N([H])[H])O2

$$$$
96:1:0
     RDKit          3D

 27 28  0  0  1  0  0  0  0  0999 V2000
   -1.3709    0.0669    4.1603 N   0  0  0  0  0  0  0  0  0  0  0  0
   -1.1406   -0.7369    5.6422 S   0  0  0  0  0  0  0  0  0  0  0  0
   -2.2002   -1.7595    5.6733 O   0  0  0  0  0  0  0  0  0  0  0  0
    0.2601   -1.1942    5.6579 O   0  0  0  0  0  0  0  0  0  0  0  0
   -1.5238    0.5103    6.6236 N   0  0  0  0  0  0  0  0  0  0  0  0
   -0.5492    1.5704    6.8829 C   0  0  0  0  0  0  0  0  0  0  0  0
   -1.1044    2.6158    7.8767 C   0  0  2  0  0  0  0  0  0  0  0  0
   -2.2051    3.5002    7.2498 C   0  0  0  0  0  0  0  0  0  0  0  0
   -2.6583    4.4503    8.2019 O   0  0  0  0  0  0  0  0  0  0  0  0
   -1.6551    5.1028    8.8803 C   0  0  0  0  0  0  0  0  0  0  0  0
   -1.9667    6.2774    9.5785 C   0  0  0  0  0  0  0  0  0  0  0  0
   -0.9704    6.9830   10.2748 C   0  0  0  0  0  0  0  0  0  0  0  0
    0.3562    6.5034   10.2724 C   0  0  0  0  0  0  0  0  0  0  0  0
    0.6763    5.3191    9.5772 C   0  0  0  0  0  0  0  0  0  0  0  0
   -0.3275    4.6082    8.8890 C   0  0  0  0  0  0  0  0  0  0  0  0
   -0.0031    3.4437    8.2269 O   0  0  0  0  0  0  0  0  0  0  0  0
   -0.7633   -0.3320    3.4479 H   0  0  0  0  0  0  0  0  0  0  0  0
   -1.1697    1.0536    4.3151 H   0  0  0  0  0  0  0  0  0  0  0  0
    0.3752    1.1395    7.2758 H   0  0  0  0  0  0  0  0  0  0  0  0
   -0.2899    2.0790    5.9456 H   0  0  0  0  0  0  0  0  0  0  0  0
   -1.4682    2.1405    8.7892 H   0  0  0  0  0  0  0  0  0  0  0  0
   -1.8423    4.0355    6.3662 H   0  0  0  0  0  0  0  0  0  0  0  0
   -3.0752    2.9196    6.9339 H   0  0  0  0  0  0  0  0  0  0  0  0
   -2.9857    6.6433    9.5713 H   0  0  0  0  0  0  0  0  0  0  0  0
   -1.2229    7.8867   10.8081 H   0  0  0  0  0  0  0  0  0  0  0  0
    1.1232    7.0438   10.8066 H   0  0  0  0  0  0  0  0  0  0  0  0
    1.6924    4.9507    9.5835 H   0  0  0  0  0  0  0  0  0  0  0  0
  1  2  1  0
  1 17  1  0
  1 18  1  0
  2  3  2  0
  2  4  2  0
  2  5  1  0
  5  6  1  0
  6  7  1  0
  6 19  1  0
  6 20  1  0
  7 16  1  0
  7  8  1  0
  7 21  1  1
  8  9  1  0
  8 22  1  0
  8 23  1  0
  9 10  1  0
 10 15  2  0
 10 11  1  0
 11 12  2  0
 11 24  1  0
 12 13  1  0
 12 25  1  0
 13 14  2  0
 13 26  1  0
 14 15  1  0
 14 27  1  0
 15 16  1  0
M  CHG  1   5  -1
M  END
>  <i_m_ct_stereo_status>  (325) 
1

>  <s_m_source_file>  (325) 
/var/tmp/pbs.5076255.sched01/tmp2gi29psn/132an720x3a.sdf

>  <i_m_source_file_index>  (325) 
3

>  <i_lp_mmshare_version>  (325) 
48012

>  <i_f3d_flags>  (325) 
0

>  <s_epik_input>  (325) 
W05IMl1TKD1PKSg9TylbTkhdW0NIMl1bQ0BIXShbQ0gyXU8xKU9jKGMxMilbY0hdW2NIXVtjSF1bY0hdMg==

>  <s_epik_cmdline>  (325) 
J2VwaWtfcHl0aG9uJywgJy1waHQnLCAnMi4wJywgJy1waCcsICc3LjAnLCAnLXRuJywgJzgnLCAnLW1hJywgJzIwMCcsICctaW1hZScsICc8aW5maWxlLm1hZT4nLCAnLW9tYWUnLCAnPG91dGZpbGUubWFlPic=

>  <r_lp_tautomer_probability>  (325) 
1

>  <r_epik_Ionization_Penalty>  (325) 
0.631644

>  <r_epik_Ionization_Penalty_Charging>  (325) 
0.630566

>  <r_epik_Ionization_Penalty_Neutral>  (325) 
0.00107809

>  <r_epik_State_Penalty>  (325) 
1.3379

>  <r_epik_Charging_Adjusted_Penalty>  (325) 
1.96847

>  <i_epik_Tot_Q>  (325) 
-1

>  <i_epik_Tot_abs_Q>  (325) 
1

>  <s_lp_Force_Field>  (325) 
OPLS3e

>  <r_lp_Energy>  (325) 
14.671

>  <b_lp_Chiralities_Consistent>  (325) 
1

>  <s_lp_Variant>  (325) 
96:0-2

>  <s_i_glide_gridfile>  (325) 
pfpi4k_grid

>  <i_i_glide_lignum>  (325) 
3

>  <i_i_glide_rotatable_bonds>  (325) 
3

>  <r_i_docking_score>  (325) 
-3.34108

>  <r_i_glide_ligand_efficiency>  (325) 
-0.208817

>  <r_i_glide_ligand_efficiency_sa>  (325) 
-0.526187

>  <r_i_glide_ligand_efficiency_ln>  (325) 
-0.88562

>  <r_i_glide_gscore>  (325) 
-3.34108

>  <r_i_glide_lipo>  (325) 
-0.103221

>  <r_i_glide_hbond>  (325) 
-0.2

>  <r_i_glide_metal>  (325) 
-0

>  <r_i_glide_rewards>  (325) 
-1.7505

>  <r_i_glide_evdw>  (325) 
-13.8077

>  <r_i_glide_ecoul>  (325) 
-4.93262

>  <r_i_glide_erotb>  (325) 
0.293407

>  <r_i_glide_esite>  (325) 
-0.150493

>  <r_i_glide_emodel>  (325) 
-22.58

>  <r_i_glide_energy>  (325) 
-18.7403

>  <r_i_glide_einternal>  (325) 
5.30966

>  <r_i_glide_intrahb_reward>  (325) 
-0

>  <i_i_glide_confnum>  (325) 
1

>  <i_i_glide_posenum>  (325) 
1

>  <r_i_glide_eff_state_penalty>  (325) 
0

>  <ligand_id>  (325) 
96

>  <original_smiles>  (325) 
NS(=O)(=O)NCC1COc2ccccc2O1

>  <smiles>  (325) 
[H]c1c([H])c([H])c2c(c1[H])OC([H])([H])C([H])(C([H])([H])[N-]S(=O)(=O)N([H])[H])O2

$$$$
96:1:1
     RDKit          3D

 27 28  0  0  1  0  0  0  0  0999 V2000
   -1.3735    0.9429    2.2525 N   0  0  0  0  0  0  0  0  0  0  0  0
   -0.3463    0.9995    3.5812 S   0  0  0  0  0  0  0  0  0  0  0  0
    0.9330    0.4410    3.1340 O   0  0  0  0  0  0  0  0  0  0  0  0
   -0.4049    2.4009    4.0403 O   0  0  0  0  0  0  0  0  0  0  0  0
   -1.1866   -0.0611    4.5213 N   0  0  0  0  0  0  0  0  0  0  0  0
   -0.5918   -0.4334    5.8126 C   0  0  0  0  0  0  0  0  0  0  0  0
   -0.5245    0.7784    6.7948 C   0  0  2  0  0  0  0  0  0  0  0  0
    0.1464    0.4342    8.1400 C   0  0  0  0  0  0  0  0  0  0  0  0
    0.2310    1.5974    8.9445 O   0  0  0  0  0  0  0  0  0  0  0  0
   -0.9177    2.3469    9.0057 C   0  0  0  0  0  0  0  0  0  0  0  0
   -1.0585    3.3086   10.0255 C   0  0  0  0  0  0  0  0  0  0  0  0
   -2.2328    4.0794   10.1192 C   0  0  0  0  0  0  0  0  0  0  0  0
   -3.2610    3.8929    9.1916 C   0  0  0  0  0  0  0  0  0  0  0  0
   -3.1344    2.9452    8.1610 C   0  0  0  0  0  0  0  0  0  0  0  0
   -1.9571    2.1677    8.0551 C   0  0  0  0  0  0  0  0  0  0  0  0
   -1.8509    1.2370    7.0502 O   0  0  0  0  0  0  0  0  0  0  0  0
   -1.2491    1.7873    1.7030 H   0  0  0  0  0  0  0  0  0  0  0  0
   -2.3425    0.7979    2.5721 H   0  0  0  0  0  0  0  0  0  0  0  0
   -1.1806   -1.2115    6.3084 H   0  0  0  0  0  0  0  0  0  0  0  0
    0.4001   -0.8662    5.7165 H   0  0  0  0  0  0  0  0  0  0  0  0
    0.0736    1.5898    6.3932 H   0  0  0  0  0  0  0  0  0  0  0  0
   -0.4059   -0.3286    8.6915 H   0  0  0  0  0  0  0  0  0  0  0  0
    1.1653    0.0698    8.0004 H   0  0  0  0  0  0  0  0  0  0  0  0
   -0.2643    3.4403   10.7526 H   0  0  0  0  0  0  0  0  0  0  0  0
   -2.3366    4.8077   10.9210 H   0  0  0  0  0  0  0  0  0  0  0  0
   -4.1733    4.4817    9.2671 H   0  0  0  0  0  0  0  0  0  0  0  0
   -3.9217    2.8081    7.4457 H   0  0  0  0  0  0  0  0  0  0  0  0
  1  2  1  0
  1 17  1  0
  1 18  1  0
  2  3  2  0
  2  4  2  0
  2  5  1  0
  5  6  1  0
  6  7  1  0
  6 19  1  0
  6 20  1  0
  7 16  1  0
  7  8  1  0
  7 21  1  6
  8  9  1  0
  8 22  1  0
  8 23  1  0
  9 10  1  0
 10 15  2  0
 10 11  1  0
 11 12  2  0
 11 24  1  0
 12 13  1  0
 12 25  1  0
 13 14  2  0
 13 26  1  0
 14 15  1  0
 14 27  1  0
 15 16  1  0
M  CHG  1   5  -1
M  END
>  <i_m_ct_stereo_status>  (326) 
1

>  <s_m_source_file>  (326) 
/var/tmp/pbs.5076255.sched01/tmp2gi29psn/132an720x3a.sdf

>  <i_m_source_file_index>  (326) 
3

>  <i_lp_mmshare_version>  (326) 
48012

>  <i_f3d_flags>  (326) 
0

>  <s_epik_input>  (326) 
W05IMl1TKD1PKSg9TylbTkhdW0NIMl1bQ0BIXShbQ0gyXU8xKU9jKGMxMilbY0hdW2NIXVtjSF1bY0hdMg==

>  <s_epik_cmdline>  (326) 
J2VwaWtfcHl0aG9uJywgJy1waHQnLCAnMi4wJywgJy1waCcsICc3LjAnLCAnLXRuJywgJzgnLCAnLW1hJywgJzIwMCcsICctaW1hZScsICc8aW5maWxlLm1hZT4nLCAnLW9tYWUnLCAnPG91dGZpbGUubWFlPic=

>  <r_lp_tautomer_probability>  (326) 
1

>  <r_epik_Ionization_Penalty>  (326) 
0.631644

>  <r_epik_Ionization_Penalty_Charging>  (326) 
0.630566

>  <r_epik_Ionization_Penalty_Neutral>  (326) 
0.00107809

>  <r_epik_State_Penalty>  (326) 
1.3379

>  <r_epik_Charging_Adjusted_Penalty>  (326) 
1.96847

>  <i_epik_Tot_Q>  (326) 
-1

>  <i_epik_Tot_abs_Q>  (326) 
1

>  <s_lp_Force_Field>  (326) 
OPLS3e

>  <r_lp_Energy>  (326) 
14.671

>  <b_lp_Chiralities_Consistent>  (326) 
1

>  <s_lp_Variant>  (326) 
96:0-2

>  <s_i_glide_gridfile>  (326) 
pfpi4k_grid

>  <i_i_glide_lignum>  (326) 
3

>  <i_i_glide_rotatable_bonds>  (326) 
3

>  <r_i_docking_score>  (326) 
-3.29286

>  <r_i_glide_ligand_efficiency>  (326) 
-0.205804

>  <r_i_glide_ligand_efficiency_sa>  (326) 
-0.518594

>  <r_i_glide_ligand_efficiency_ln>  (326) 
-0.87284

>  <r_i_glide_gscore>  (326) 
-3.29286

>  <r_i_glide_lipo>  (326) 
-0.141069

>  <r_i_glide_hbond>  (326) 
-0.439495

>  <r_i_glide_metal>  (326) 
-0

>  <r_i_glide_rewards>  (326) 
-1.7505

>  <r_i_glide_evdw>  (326) 
-17.2524

>  <r_i_glide_ecoul>  (326) 
-1.78971

>  <r_i_glide_erotb>  (326) 
0.293407

>  <r_i_glide_esite>  (326) 
-0.124134

>  <r_i_glide_emodel>  (326) 
-24.7244

>  <r_i_glide_energy>  (326) 
-19.0421

>  <r_i_glide_einternal>  (326) 
0.0573274

>  <r_i_glide_intrahb_reward>  (326) 
-0

>  <i_i_glide_confnum>  (326) 
4

>  <i_i_glide_posenum>  (326) 
30

>  <r_i_glide_eff_state_penalty>  (326) 
0

>  <ligand_id>  (326) 
96

>  <original_smiles>  (326) 
NS(=O)(=O)NCC1COc2ccccc2O1

>  <smiles>  (326) 
[H]c1c([H])c([H])c2c(c1[H])OC([H])([H])C([H])(C([H])([H])[N-]S(=O)(=O)N([H])[H])O2

$$$$
96:1:2
     RDKit          3D

 27 28  0  0  1  0  0  0  0  0999 V2000
    0.1509    1.7420    1.6807 N   0  0  0  0  0  0  0  0  0  0  0  0
    0.0841    1.8437    3.3709 S   0  0  0  0  0  0  0  0  0  0  0  0
    1.4856    1.9668    3.7689 O   0  0  0  0  0  0  0  0  0  0  0  0
   -0.8311    2.9522    3.6734 O   0  0  0  0  0  0  0  0  0  0  0  0
   -0.5808    0.3830    3.6456 N   0  0  0  0  0  0  0  0  0  0  0  0
   -0.3488   -0.2788    4.9207 C   0  0  0  0  0  0  0  0  0  0  0  0
   -0.3909    0.6753    6.1686 C   0  0  2  0  0  0  0  0  0  0  0  0
    0.1034    0.0040    7.4670 C   0  0  0  0  0  0  0  0  0  0  0  0
    0.1131    0.9560    8.5212 O   0  0  0  0  0  0  0  0  0  0  0  0
   -1.0040    1.7537    8.6014 C   0  0  0  0  0  0  0  0  0  0  0  0
   -1.2447    2.4757    9.7882 C   0  0  0  0  0  0  0  0  0  0  0  0
   -2.4064    3.2632    9.9179 C   0  0  0  0  0  0  0  0  0  0  0  0
   -3.3211    3.3465    8.8496 C   0  0  0  0  0  0  0  0  0  0  0  0
   -3.0692    2.6456    7.6551 C   0  0  0  0  0  0  0  0  0  0  0  0
   -1.9209    1.8425    7.5228 C   0  0  0  0  0  0  0  0  0  0  0  0
   -1.7287    1.1274    6.3643 O   0  0  0  0  0  0  0  0  0  0  0  0
    0.1553    2.6995    1.2877 H   0  0  0  0  0  0  0  0  0  0  0  0
   -0.6186    1.1821    1.3122 H   0  0  0  0  0  0  0  0  0  0  0  0
   -1.0690   -1.0846    5.0778 H   0  0  0  0  0  0  0  0  0  0  0  0
    0.6087   -0.8069    4.9250 H   0  0  0  0  0  0  0  0  0  0  0  0
    0.2577    1.5439    6.0565 H   0  0  0  0  0  0  0  0  0  0  0  0
   -0.5217   -0.8367    7.7555 H   0  0  0  0  0  0  0  0  0  0  0  0
    1.1265   -0.3586    7.3673 H   0  0  0  0  0  0  0  0  0  0  0  0
   -0.5533    2.3996   10.6143 H   0  0  0  0  0  0  0  0  0  0  0  0
   -2.5978    3.7890   10.8446 H   0  0  0  0  0  0  0  0  0  0  0  0
   -4.2211    3.9405    8.9556 H   0  0  0  0  0  0  0  0  0  0  0  0
   -3.7726    2.7016    6.8380 H   0  0  0  0  0  0  0  0  0  0  0  0
  1  2  1  0
  1 17  1  0
  1 18  1  0
  2  3  2  0
  2  4  2  0
  2  5  1  0
  5  6  1  0
  6  7  1  0
  6 19  1  0
  6 20  1  0
  7 16  1  0
  7  8  1  0
  7 21  1  6
  8  9  1  0
  8 22  1  0
  8 23  1  0
  9 10  1  0
 10 15  2  0
 10 11  1  0
 11 12  2  0
 11 24  1  0
 12 13  1  0
 12 25  1  0
 13 14  2  0
 13 26  1  0
 14 15  1  0
 14 27  1  0
 15 16  1  0
M  CHG  1   5  -1
M  END
>  <i_m_ct_stereo_status>  (327) 
1

>  <s_m_source_file>  (327) 
/var/tmp/pbs.5076255.sched01/tmp2gi29psn/132an720x3a.sdf

>  <i_m_source_file_index>  (327) 
3

>  <i_lp_mmshare_version>  (327) 
48012

>  <i_f3d_flags>  (327) 
0

>  <s_epik_input>  (327) 
W05IMl1TKD1PKSg9TylbTkhdW0NIMl1bQ0BIXShbQ0gyXU8xKU9jKGMxMilbY0hdW2NIXVtjSF1bY0hdMg==

>  <s_epik_cmdline>  (327) 
J2VwaWtfcHl0aG9uJywgJy1waHQnLCAnMi4wJywgJy1waCcsICc3LjAnLCAnLXRuJywgJzgnLCAnLW1hJywgJzIwMCcsICctaW1hZScsICc8aW5maWxlLm1hZT4nLCAnLW9tYWUnLCAnPG91dGZpbGUubWFlPic=

>  <r_lp_tautomer_probability>  (327) 
1

>  <r_epik_Ionization_Penalty>  (327) 
0.631644

>  <r_epik_Ionization_Penalty_Charging>  (327) 
0.630566

>  <r_epik_Ionization_Penalty_Neutral>  (327) 
0.00107809

>  <r_epik_State_Penalty>  (327) 
1.3379

>  <r_epik_Charging_Adjusted_Penalty>  (327) 
1.96847

>  <i_epik_Tot_Q>  (327) 
-1

>  <i_epik_Tot_abs_Q>  (327) 
1

>  <s_lp_Force_Field>  (327) 
OPLS3e

>  <r_lp_Energy>  (327) 
14.671

>  <b_lp_Chiralities_Consistent>  (327) 
1

>  <s_lp_Variant>  (327) 
96:0-2

>  <s_i_glide_gridfile>  (327) 
pfpi4k_grid

>  <i_i_glide_lignum>  (327) 
3

>  <i_i_glide_rotatable_bonds>  (327) 
3

>  <r_i_docking_score>  (327) 
-3.21454

>  <r_i_glide_ligand_efficiency>  (327) 
-0.200909

>  <r_i_glide_ligand_efficiency_sa>  (327) 
-0.506259

>  <r_i_glide_ligand_efficiency_ln>  (327) 
-0.852079

>  <r_i_glide_gscore>  (327) 
-3.21454

>  <r_i_glide_lipo>  (327) 
-0.180801

>  <r_i_glide_hbond>  (327) 
-0.190479

>  <r_i_glide_metal>  (327) 
-0

>  <r_i_glide_rewards>  (327) 
-1.7505

>  <r_i_glide_evdw>  (327) 
-18.5967

>  <r_i_glide_ecoul>  (327) 
-1.71677

>  <r_i_glide_erotb>  (327) 
0.293407

>  <r_i_glide_esite>  (327) 
-0.198826

>  <r_i_glide_emodel>  (327) 
-23.8758

>  <r_i_glide_energy>  (327) 
-20.3134

>  <r_i_glide_einternal>  (327) 
2.31787

>  <r_i_glide_intrahb_reward>  (327) 
-0

>  <i_i_glide_confnum>  (327) 
3

>  <i_i_glide_posenum>  (327) 
2

>  <r_i_glide_eff_state_penalty>  (327) 
0

>  <ligand_id>  (327) 
96

>  <original_smiles>  (327) 
NS(=O)(=O)NCC1COc2ccccc2O1

>  <smiles>  (327) 
[H]c1c([H])c([H])c2c(c1[H])OC([H])([H])C([H])(C([H])([H])[N-]S(=O)(=O)N([H])[H])O2

$$$$
96:2:0
     RDKit          3D

 27 28  0  0  1  0  0  0  0  0999 V2000
   -4.9920   -5.4128   -5.1193 N   0  0  0  0  0  0  0  0  0  0  0  0
   -6.3297   -6.1396   -4.6776 S   0  0  0  0  0  0  0  0  0  0  0  0
   -6.1853   -6.6504   -3.3079 O   0  0  0  0  0  0  0  0  0  0  0  0
   -7.5455   -5.4342   -5.0913 O   0  0  0  0  0  0  0  0  0  0  0  0
   -6.1484   -7.4922   -5.7294 N   0  0  0  0  0  0  0  0  0  0  0  0
   -5.3004   -8.6496   -5.4034 C   0  0  0  0  0  0  0  0  0  0  0  0
   -5.7891   -9.9473   -6.0880 C   0  0  2  0  0  0  0  0  0  0  0  0
   -5.3043  -10.0493   -7.5372 C   0  0  0  0  0  0  0  0  0  0  0  0
   -5.7007  -11.2760   -8.1290 O   0  0  0  0  0  0  0  0  0  0  0  0
   -7.0154  -11.6087   -7.9060 C   0  0  0  0  0  0  0  0  0  0  0  0
   -7.6086  -12.6020   -8.7058 C   0  0  0  0  0  0  0  0  0  0  0  0
   -8.9605  -12.9552   -8.5111 C   0  0  0  0  0  0  0  0  0  0  0  0
   -9.7163  -12.3060   -7.5209 C   0  0  0  0  0  0  0  0  0  0  0  0
   -9.1221  -11.3202   -6.7118 C   0  0  0  0  0  0  0  0  0  0  0  0
   -7.7660  -10.9745   -6.8845 C   0  0  0  0  0  0  0  0  0  0  0  0
   -7.2121  -10.0232   -6.0574 O   0  0  0  0  0  0  0  0  0  0  0  0
   -5.1831   -4.4095   -5.1922 H   0  0  0  0  0  0  0  0  0  0  0  0
   -6.8982   -7.6391   -6.4006 H   0  0  0  0  0  0  0  0  0  0  0  0
   -4.2775   -8.4256   -5.7023 H   0  0  0  0  0  0  0  0  0  0  0  0
   -5.2749   -8.8086   -4.3279 H   0  0  0  0  0  0  0  0  0  0  0  0
   -5.3896  -10.8054   -5.5433 H   0  0  0  0  0  0  0  0  0  0  0  0
   -5.6654   -9.2077   -8.1292 H   0  0  0  0  0  0  0  0  0  0  0  0
   -4.2209  -10.0406   -7.5405 H   0  0  0  0  0  0  0  0  0  0  0  0
   -7.0333  -13.0900   -9.4765 H   0  0  0  0  0  0  0  0  0  0  0  0
   -9.4159  -13.7131   -9.1293 H   0  0  0  0  0  0  0  0  0  0  0  0
  -10.7543  -12.5681   -7.3655 H   0  0  0  0  0  0  0  0  0  0  0  0
   -9.7005  -10.8408   -5.9386 H   0  0  0  0  0  0  0  0  0  0  0  0
  1  2  1  0
  1 17  1  0
  2  3  2  0
  2  4  2  0
  2  5  1  0
  5  6  1  0
  5 18  1  0
  6  7  1  0
  6 19  1  0
  6 20  1  0
  7 16  1  0
  7  8  1  0
  7 21  1  1
  8  9  1  0
  8 22  1  0
  8 23  1  0
  9 10  1  0
 10 15  2  0
 10 11  1  0
 11 12  2  0
 11 24  1  0
 12 13  1  0
 12 25  1  0
 13 14  2  0
 13 26  1  0
 14 15  1  0
 14 27  1  0
 15 16  1  0
M  CHG  1   1  -1
M  END
>  <i_m_ct_stereo_status>  (328) 
1

>  <s_m_source_file>  (328) 
/var/tmp/pbs.5076255.sched01/tmp2gi29psn/132an720x3a.sdf

>  <i_m_source_file_index>  (328) 
4

>  <i_lp_mmshare_version>  (328) 
48012

>  <i_f3d_flags>  (328) 
0

>  <s_epik_input>  (328) 
W05IMl1TKD1PKSg9TylbTkhdW0NIMl1bQ0BIXShbQ0gyXU8xKU9jKGMxMilbY0hdW2NIXVtjSF1bY0hdMg==

>  <s_epik_cmdline>  (328) 
J2VwaWtfcHl0aG9uJywgJy1waHQnLCAnMi4wJywgJy1waCcsICc3LjAnLCAnLXRuJywgJzgnLCAnLW1hJywgJzIwMCcsICctaW1hZScsICc8aW5maWxlLm1hZT4nLCAnLW9tYWUnLCAnPG91dGZpbGUubWFlPic=

>  <r_epik_Ionization_Penalty>  (328) 
2.21027

>  <r_epik_Ionization_Penalty_Charging>  (328) 
2.21014

>  <r_epik_Ionization_Penalty_Neutral>  (328) 
0.00012653

>  <r_epik_State_Penalty>  (328) 
1.62921

>  <r_epik_Charging_Adjusted_Penalty>  (328) 
3.83935

>  <i_epik_Tot_Q>  (328) 
-1

>  <i_epik_Tot_abs_Q>  (328) 
1

>  <s_lp_Force_Field>  (328) 
OPLS3e

>  <r_lp_Energy>  (328) 
9.30352

>  <b_lp_Chiralities_Consistent>  (328) 
1

>  <s_lp_Variant>  (328) 
96:0-3

>  <s_i_glide_gridfile>  (328) 
pfpi4k_grid

>  <i_i_glide_lignum>  (328) 
4

>  <i_i_glide_rotatable_bonds>  (328) 
3

>  <r_i_docking_score>  (328) 
-4.51234

>  <r_i_glide_ligand_efficiency>  (328) 
-0.282021

>  <r_i_glide_ligand_efficiency_sa>  (328) 
-0.710649

>  <r_i_glide_ligand_efficiency_ln>  (328) 
-1.19609

>  <r_i_glide_gscore>  (328) 
-4.51234

>  <r_i_glide_lipo>  (328) 
-0.842671

>  <r_i_glide_hbond>  (328) 
-0.150245

>  <r_i_glide_metal>  (328) 
-0

>  <r_i_glide_rewards>  (328) 
-2.3005

>  <r_i_glide_evdw>  (328) 
-18.7153

>  <r_i_glide_ecoul>  (328) 
-3.84379

>  <r_i_glide_erotb>  (328) 
0.293407

>  <r_i_glide_esite>  (328) 
0

>  <r_i_glide_emodel>  (328) 
-26.3909

>  <r_i_glide_energy>  (328) 
-22.5591

>  <r_i_glide_einternal>  (328) 
5.85756

>  <r_i_glide_intrahb_reward>  (328) 
-0

>  <i_i_glide_confnum>  (328) 
4

>  <i_i_glide_posenum>  (328) 
11

>  <r_i_glide_eff_state_penalty>  (328) 
0

>  <ligand_id>  (328) 
96

>  <original_smiles>  (328) 
NS(=O)(=O)NCC1COc2ccccc2O1

>  <smiles>  (328) 
[H][N-]S(=O)(=O)N([H])C([H])([H])C1([H])Oc2c([H])c([H])c([H])c([H])c2OC1([H])[H]

$$$$
96:2:1
     RDKit          3D

 27 28  0  0  1  0  0  0  0  0999 V2000
   -6.4653   -7.1944   -5.8091 N   0  0  0  0  0  0  0  0  0  0  0  0
   -6.1188   -6.0684   -4.7189 S   0  0  0  0  0  0  0  0  0  0  0  0
   -6.1788   -6.6309   -3.3557 O   0  0  0  0  0  0  0  0  0  0  0  0
   -4.9872   -5.2128   -5.0905 O   0  0  0  0  0  0  0  0  0  0  0  0
   -7.5291   -5.1074   -4.8998 N   0  0  0  0  0  0  0  0  0  0  0  0
   -7.6822   -4.0381   -5.9023 C   0  0  0  0  0  0  0  0  0  0  0  0
   -8.5369   -4.4393   -7.1087 C   0  0  2  0  0  0  0  0  0  0  0  0
  -10.0111   -4.6705   -6.7416 C   0  0  0  0  0  0  0  0  0  0  0  0
  -10.7348   -5.0342   -7.9071 O   0  0  0  0  0  0  0  0  0  0  0  0
  -10.1409   -6.0203   -8.6590 C   0  0  0  0  0  0  0  0  0  0  0  0
  -10.9268   -6.7437   -9.5790 C   0  0  0  0  0  0  0  0  0  0  0  0
  -10.3383   -7.7631  -10.3567 C   0  0  0  0  0  0  0  0  0  0  0  0
   -8.9752   -8.0829  -10.1955 C   0  0  0  0  0  0  0  0  0  0  0  0
   -8.1902   -7.3632   -9.2739 C   0  0  0  0  0  0  0  0  0  0  0  0
   -8.7677   -6.3134   -8.5369 C   0  0  0  0  0  0  0  0  0  0  0  0
   -7.9523   -5.5809   -7.7102 O   0  0  0  0  0  0  0  0  0  0  0  0
   -5.6894   -7.2150   -6.4720 H   0  0  0  0  0  0  0  0  0  0  0  0
   -8.3190   -5.3584   -4.3051 H   0  0  0  0  0  0  0  0  0  0  0  0
   -8.1438   -3.1806   -5.4199 H   0  0  0  0  0  0  0  0  0  0  0  0
   -6.6923   -3.7844   -6.2528 H   0  0  0  0  0  0  0  0  0  0  0  0
   -8.5025   -3.6409   -7.8574 H   0  0  0  0  0  0  0  0  0  0  0  0
  -10.1143   -5.4396   -5.9740 H   0  0  0  0  0  0  0  0  0  0  0  0
  -10.4481   -3.7591   -6.3285 H   0  0  0  0  0  0  0  0  0  0  0  0
  -11.9740   -6.5114   -9.6853 H   0  0  0  0  0  0  0  0  0  0  0  0
  -10.9322   -8.3051  -11.0810 H   0  0  0  0  0  0  0  0  0  0  0  0
   -8.5177   -8.8672  -10.7802 H   0  0  0  0  0  0  0  0  0  0  0  0
   -7.1492   -7.5992   -9.1320 H   0  0  0  0  0  0  0  0  0  0  0  0
  1  2  1  0
  1 17  1  0
  2  3  2  0
  2  4  2  0
  2  5  1  0
  5  6  1  0
  5 18  1  0
  6  7  1  0
  6 19  1  0
  6 20  1  0
  7 16  1  0
  7  8  1  0
  7 21  1  6
  8  9  1  0
  8 22  1  0
  8 23  1  0
  9 10  1  0
 10 15  2  0
 10 11  1  0
 11 12  2  0
 11 24  1  0
 12 13  1  0
 12 25  1  0
 13 14  2  0
 13 26  1  0
 14 15  1  0
 14 27  1  0
 15 16  1  0
M  CHG  1   1  -1
M  END
>  <i_m_ct_stereo_status>  (329) 
1

>  <s_m_source_file>  (329) 
/var/tmp/pbs.5076255.sched01/tmp2gi29psn/132an720x3a.sdf

>  <i_m_source_file_index>  (329) 
4

>  <i_lp_mmshare_version>  (329) 
48012

>  <i_f3d_flags>  (329) 
0

>  <s_epik_input>  (329) 
W05IMl1TKD1PKSg9TylbTkhdW0NIMl1bQ0BIXShbQ0gyXU8xKU9jKGMxMilbY0hdW2NIXVtjSF1bY0hdMg==

>  <s_epik_cmdline>  (329) 
J2VwaWtfcHl0aG9uJywgJy1waHQnLCAnMi4wJywgJy1waCcsICc3LjAnLCAnLXRuJywgJzgnLCAnLW1hJywgJzIwMCcsICctaW1hZScsICc8aW5maWxlLm1hZT4nLCAnLW9tYWUnLCAnPG91dGZpbGUubWFlPic=

>  <r_epik_Ionization_Penalty>  (329) 
2.21027

>  <r_epik_Ionization_Penalty_Charging>  (329) 
2.21014

>  <r_epik_Ionization_Penalty_Neutral>  (329) 
0.00012653

>  <r_epik_State_Penalty>  (329) 
1.62921

>  <r_epik_Charging_Adjusted_Penalty>  (329) 
3.83935

>  <i_epik_Tot_Q>  (329) 
-1

>  <i_epik_Tot_abs_Q>  (329) 
1

>  <s_lp_Force_Field>  (329) 
OPLS3e

>  <r_lp_Energy>  (329) 
9.30352

>  <b_lp_Chiralities_Consistent>  (329) 
1

>  <s_lp_Variant>  (329) 
96:0-3

>  <s_i_glide_gridfile>  (329) 
pfpi4k_grid

>  <i_i_glide_lignum>  (329) 
4

>  <i_i_glide_rotatable_bonds>  (329) 
3

>  <r_i_docking_score>  (329) 
-4.42699

>  <r_i_glide_ligand_efficiency>  (329) 
-0.276687

>  <r_i_glide_ligand_efficiency_sa>  (329) 
-0.697207

>  <r_i_glide_ligand_efficiency_ln>  (329) 
-1.17346

>  <r_i_glide_gscore>  (329) 
-4.42699

>  <r_i_glide_lipo>  (329) 
-1.11019

>  <r_i_glide_hbond>  (329) 
-0.0131766

>  <r_i_glide_metal>  (329) 
-0

>  <r_i_glide_rewards>  (329) 
-2.36765

>  <r_i_glide_evdw>  (329) 
-21.6276

>  <r_i_glide_ecoul>  (329) 
-0.801081

>  <r_i_glide_erotb>  (329) 
0.293407

>  <r_i_glide_esite>  (329) 
-0.0278375

>  <r_i_glide_emodel>  (329) 
-27.1114

>  <r_i_glide_energy>  (329) 
-22.4287

>  <r_i_glide_einternal>  (329) 
3.93585

>  <r_i_glide_intrahb_reward>  (329) 
-0

>  <i_i_glide_confnum>  (329) 
2

>  <i_i_glide_posenum>  (329) 
24

>  <r_i_glide_eff_state_penalty>  (329) 
0

>  <ligand_id>  (329) 
96

>  <original_smiles>  (329) 
NS(=O)(=O)NCC1COc2ccccc2O1

>  <smiles>  (329) 
[H][N-]S(=O)(=O)N([H])C([H])([H])C1([H])Oc2c([H])c([H])c([H])c([H])c2OC1([H])[H]

$$$$
96:2:2
     RDKit          3D

 27 28  0  0  1  0  0  0  0  0999 V2000
   -5.3143   -4.8471   -5.1255 N   0  0  0  0  0  0  0  0  0  0  0  0
   -6.5210   -5.7988   -4.7363 S   0  0  0  0  0  0  0  0  0  0  0  0
   -6.1827   -6.6529   -3.5931 O   0  0  0  0  0  0  0  0  0  0  0  0
   -7.8339   -5.1294   -4.8263 O   0  0  0  0  0  0  0  0  0  0  0  0
   -6.3912   -6.8092   -6.1147 N   0  0  0  0  0  0  0  0  0  0  0  0
   -7.2826   -7.9517   -6.3066 C   0  0  0  0  0  0  0  0  0  0  0  0
   -6.7533   -8.9613   -7.3407 C   0  0  2  0  0  0  0  0  0  0  0  0
   -7.8638   -9.9444   -7.7764 C   0  0  0  0  0  0  0  0  0  0  0  0
   -7.3578  -10.8473   -8.7550 O   0  0  0  0  0  0  0  0  0  0  0  0
   -6.1559  -11.4137   -8.4253 C   0  0  0  0  0  0  0  0  0  0  0  0
   -5.7138  -12.5484   -9.1406 C   0  0  0  0  0  0  0  0  0  0  0  0
   -4.4823  -13.1530   -8.8322 C   0  0  0  0  0  0  0  0  0  0  0  0
   -3.6857  -12.6222   -7.7989 C   0  0  0  0  0  0  0  0  0  0  0  0
   -4.1178  -11.4811   -7.0910 C   0  0  0  0  0  0  0  0  0  0  0  0
   -5.3343  -10.8627   -7.4068 C   0  0  0  0  0  0  0  0  0  0  0  0
   -5.7016   -9.7165   -6.7344 O   0  0  0  0  0  0  0  0  0  0  0  0
   -5.6166   -3.8878   -4.9368 H   0  0  0  0  0  0  0  0  0  0  0  0
   -5.9895   -6.3282   -6.9171 H   0  0  0  0  0  0  0  0  0  0  0  0
   -7.3760   -8.4545   -5.3427 H   0  0  0  0  0  0  0  0  0  0  0  0
   -8.2596   -7.5649   -6.5972 H   0  0  0  0  0  0  0  0  0  0  0  0
   -6.3706   -8.4585   -8.2349 H   0  0  0  0  0  0  0  0  0  0  0  0
   -8.2548  -10.5098   -6.9280 H   0  0  0  0  0  0  0  0  0  0  0  0
   -8.6973   -9.4087   -8.2267 H   0  0  0  0  0  0  0  0  0  0  0  0
   -6.3311  -12.9564   -9.9298 H   0  0  0  0  0  0  0  0  0  0  0  0
   -4.1527  -14.0265   -9.3844 H   0  0  0  0  0  0  0  0  0  0  0  0
   -2.7421  -13.0760   -7.5443 H   0  0  0  0  0  0  0  0  0  0  0  0
   -3.4944  -11.0675   -6.3126 H   0  0  0  0  0  0  0  0  0  0  0  0
  1  2  1  0
  1 17  1  0
  2  3  2  0
  2  4  2  0
  2  5  1  0
  5  6  1  0
  5 18  1  0
  6  7  1  0
  6 19  1  0
  6 20  1  0
  7 16  1  0
  7  8  1  0
  7 21  1  6
  8  9  1  0
  8 22  1  0
  8 23  1  0
  9 10  1  0
 10 15  2  0
 10 11  1  0
 11 12  2  0
 11 24  1  0
 12 13  1  0
 12 25  1  0
 13 14  2  0
 13 26  1  0
 14 15  1  0
 14 27  1  0
 15 16  1  0
M  CHG  1   1  -1
M  END
>  <i_m_ct_stereo_status>  (330) 
1

>  <s_m_source_file>  (330) 
/var/tmp/pbs.5076255.sched01/tmp2gi29psn/132an720x3a.sdf

>  <i_m_source_file_index>  (330) 
4

>  <i_lp_mmshare_version>  (330) 
48012

>  <i_f3d_flags>  (330) 
0

>  <s_epik_input>  (330) 
W05IMl1TKD1PKSg9TylbTkhdW0NIMl1bQ0BIXShbQ0gyXU8xKU9jKGMxMilbY0hdW2NIXVtjSF1bY0hdMg==

>  <s_epik_cmdline>  (330) 
J2VwaWtfcHl0aG9uJywgJy1waHQnLCAnMi4wJywgJy1waCcsICc3LjAnLCAnLXRuJywgJzgnLCAnLW1hJywgJzIwMCcsICctaW1hZScsICc8aW5maWxlLm1hZT4nLCAnLW9tYWUnLCAnPG91dGZpbGUubWFlPic=

>  <r_epik_Ionization_Penalty>  (330) 
2.21027

>  <r_epik_Ionization_Penalty_Charging>  (330) 
2.21014

>  <r_epik_Ionization_Penalty_Neutral>  (330) 
0.00012653

>  <r_epik_State_Penalty>  (330) 
1.62921

>  <r_epik_Charging_Adjusted_Penalty>  (330) 
3.83935

>  <i_epik_Tot_Q>  (330) 
-1

>  <i_epik_Tot_abs_Q>  (330) 
1

>  <s_lp_Force_Field>  (330) 
OPLS3e

>  <r_lp_Energy>  (330) 
9.30352

>  <b_lp_Chiralities_Consistent>  (330) 
1

>  <s_lp_Variant>  (330) 
96:0-3

>  <s_i_glide_gridfile>  (330) 
pfpi4k_grid

>  <i_i_glide_lignum>  (330) 
4

>  <i_i_glide_rotatable_bonds>  (330) 
3

>  <r_i_docking_score>  (330) 
-3.80626

>  <r_i_glide_ligand_efficiency>  (330) 
-0.237891

>  <r_i_glide_ligand_efficiency_sa>  (330) 
-0.599448

>  <r_i_glide_ligand_efficiency_ln>  (330) 
-1.00893

>  <r_i_glide_gscore>  (330) 
-3.80626

>  <r_i_glide_lipo>  (330) 
-0.551167

>  <r_i_glide_hbond>  (330) 
0

>  <r_i_glide_metal>  (330) 
-0

>  <r_i_glide_rewards>  (330) 
-2.35883

>  <r_i_glide_evdw>  (330) 
-20.0764

>  <r_i_glide_ecoul>  (330) 
-1.23901

>  <r_i_glide_erotb>  (330) 
0.293407

>  <r_i_glide_esite>  (330) 
0

>  <r_i_glide_emodel>  (330) 
-25.4773

>  <r_i_glide_energy>  (330) 
-21.3154

>  <r_i_glide_einternal>  (330) 
2.97337

>  <r_i_glide_intrahb_reward>  (330) 
-0

>  <i_i_glide_confnum>  (330) 
4

>  <i_i_glide_posenum>  (330) 
2

>  <r_i_glide_eff_state_penalty>  (330) 
0

>  <ligand_id>  (330) 
96

>  <original_smiles>  (330) 
NS(=O)(=O)NCC1COc2ccccc2O1

>  <smiles>  (330) 
[H][N-]S(=O)(=O)N([H])C([H])([H])C1([H])Oc2c([H])c([H])c([H])c([H])c2OC1([H])[H]

$$$$
97:0:0
     RDKit          3D

 57 62  0  0  1  0  0  0  0  0999 V2000
    3.9522   -0.1139    2.5292 C   0  0  0  0  0  0  0  0  0  0  0  0
    4.2927   -1.3536    1.8091 N   0  0  1  0  0  0  0  0  0  0  0  0
    3.0926   -1.9392    1.1441 C   0  0  0  0  0  0  0  0  0  0  0  0
    3.1904   -3.4007    0.6144 C   0  0  0  0  0  0  0  0  0  0  0  0
    4.1929   -3.7484   -0.5511 C   0  0  2  0  0  0  0  0  0  0  0  0
    4.3399   -5.2895   -0.6343 C   0  0  0  0  0  0  0  0  0  0  0  0
    5.1539   -5.8902    0.5919 C   0  0  0  0  0  0  0  0  0  0  0  0
    6.3586   -5.1009    1.0740 N   0  0  0  0  0  0  0  0  0  0  0  0
    6.7544   -5.5867    2.3915 C   0  0  0  0  0  0  0  0  0  0  0  0
    7.1059   -7.0599    2.4433 C   0  0  0  0  0  0  0  0  0  0  0  0
    6.4172   -7.9659    3.4439 C   0  0  0  0  0  0  0  0  0  0  0  0
    7.8779   -7.6475    3.6027 C   0  0  0  0  0  0  0  0  0  0  0  0
    5.9539   -3.6844    1.0671 C   0  0  2  0  0  0  0  0  0  0  0  0
    5.6382   -3.5334   -0.3468 C   0  0  0  0  0  0  0  0  0  0  0  0
    6.6007   -3.2643   -1.2521 C   0  0  0  0  0  0  0  0  0  0  0  0
    7.9638   -2.8521   -0.7476 C   0  0  0  0  0  0  0  0  0  0  0  0
    7.8313   -2.1191    0.4796 O   0  0  0  0  0  0  0  0  0  0  0  0
    6.6341   -2.3285    1.2527 C   0  0  1  0  0  0  0  0  0  0  0  0
    5.5171   -1.2192    0.9528 C   0  0  1  0  0  0  0  0  0  0  0  0
    5.1822   -0.7433   -0.5243 C   0  0  0  0  0  0  0  0  0  0  0  0
    4.2826   -1.4248   -1.6299 C   0  0  0  0  0  0  0  0  0  0  0  0
    3.9035   -0.5799   -2.6951 C   0  0  0  0  0  0  0  0  0  0  0  0
    3.0746   -1.0253   -3.7533 C   0  0  0  0  0  0  0  0  0  0  0  0
    2.6490   -2.3584   -3.7641 C   0  0  0  0  0  0  0  0  0  0  0  0
    3.0260   -3.2272   -2.7433 C   0  0  0  0  0  0  0  0  0  0  0  0
    3.8468   -2.7922   -1.6745 C   0  0  0  0  0  0  0  0  0  0  0  0
    3.6594    0.6807    1.8496 H   0  0  0  0  0  0  0  0  0  0  0  0
    4.7824    0.2455    3.1342 H   0  0  0  0  0  0  0  0  0  0  0  0
    3.1230   -0.2783    3.2115 H   0  0  0  0  0  0  0  0  0  0  0  0
    2.3082   -1.9749    1.8978 H   0  0  0  0  0  0  0  0  0  0  0  0
    2.6831   -1.2630    0.3942 H   0  0  0  0  0  0  0  0  0  0  0  0
    3.2626   -4.0936    1.4548 H   0  0  0  0  0  0  0  0  0  0  0  0
    2.2086   -3.6252    0.2133 H   0  0  0  0  0  0  0  0  0  0  0  0
    3.3592   -5.7551   -0.6642 H   0  0  0  0  0  0  0  0  0  0  0  0
    4.8946   -5.5517   -1.5347 H   0  0  0  0  0  0  0  0  0  0  0  0
    4.4580   -5.9993    1.4204 H   0  0  0  0  0  0  0  0  0  0  0  0
    5.4439   -6.9030    0.3282 H   0  0  0  0  0  0  0  0  0  0  0  0
    7.6494   -5.0615    2.7200 H   0  0  0  0  0  0  0  0  0  0  0  0
    5.9652   -5.3790    3.1192 H   0  0  0  0  0  0  0  0  0  0  0  0
    7.3676   -7.5019    1.4783 H   0  0  0  0  0  0  0  0  0  0  0  0
    5.7153   -7.5001    4.1365 H   0  0  0  0  0  0  0  0  0  0  0  0
    6.1398   -8.9598    3.0985 H   0  0  0  0  0  0  0  0  0  0  0  0
    8.5887   -8.4404    3.3714 H   0  0  0  0  0  0  0  0  0  0  0  0
    8.1795   -6.9734    4.3998 H   0  0  0  0  0  0  0  0  0  0  0  0
    5.1709   -3.6279    1.8038 H   0  0  0  0  0  0  0  0  0  0  0  0
    6.4262   -3.2175   -2.3195 H   0  0  0  0  0  0  0  0  0  0  0  0
    8.5968   -3.7307   -0.6207 H   0  0  0  0  0  0  0  0  0  0  0  0
    8.4534   -2.2138   -1.4843 H   0  0  0  0  0  0  0  0  0  0  0  0
    6.8495   -2.2100    2.2974 H   0  0  0  0  0  0  0  0  0  0  0  0
    6.0446   -0.3453    1.3333 H   0  0  0  0  0  0  0  0  0  0  0  0
    4.6245    0.1605   -0.3258 H   0  0  0  0  0  0  0  0  0  0  0  0
    6.1226   -0.5049   -1.0050 H   0  0  0  0  0  0  0  0  0  0  0  0
    4.1924    0.4592   -2.6930 H   0  0  0  0  0  0  0  0  0  0  0  0
    2.7464   -0.3360   -4.5110 H   0  0  0  0  0  0  0  0  0  0  0  0
    1.9990   -2.7295   -4.5413 H   0  0  0  0  0  0  0  0  0  0  0  0
    2.6564   -4.2296   -2.7822 H   0  0  0  0  0  0  0  0  0  0  0  0
    4.5524   -2.0090    2.5427 H   0  0  0  0  0  0  0  0  0  0  0  0
  1  2  1  0
  1 27  1  0
  1 28  1  0
  1 29  1  0
  2 19  1  0
  2  3  1  0
  2 57  1  1
  3  4  1  0
  3 30  1  0
  3 31  1  0
  4  5  1  0
  4 32  1  0
  4 33  1  0
  5 14  1  0
  5 26  1  0
  5  6  1  6
  6  7  1  0
  6 34  1  0
  6 35  1  0
  7  8  1  0
  7 36  1  0
  7 37  1  0
  8  9  1  0
  8 13  1  0
  9 10  1  0
  9 38  1  0
  9 39  1  0
 10 12  1  0
 10 11  1  0
 10 40  1  0
 11 12  1  0
 11 41  1  0
 11 42  1  0
 12 43  1  0
 12 44  1  0
 13 18  1  0
 13 14  1  0
 13 45  1  1
 14 15  2  0
 15 16  1  0
 15 46  1  0
 16 17  1  0
 16 47  1  0
 16 48  1  0
 17 18  1  0
 18 19  1  0
 18 49  1  1
 19 20  1  0
 19 50  1  1
 20 21  1  0
 20 51  1  0
 20 52  1  0
 21 26  2  0
 21 22  1  0
 22 23  2  0
 22 53  1  0
 23 24  1  0
 23 54  1  0
 24 25  2  0
 24 55  1  0
 25 26  1  0
 25 56  1  0
M  CHG  1   2   1
M  END
>  <i_m_ct_stereo_status>  (331) 
1

>  <s_m_source_file>  (331) 
/var/tmp/pbs.5076255.sched01/tmp2gi29psn/132an720x3a.sdf

>  <i_m_source_file_index>  (331) 
5

>  <i_lp_mmshare_version>  (331) 
48012

>  <i_f3d_flags>  (331) 
0

>  <s_epik_input>  (331) 
W2NIXTFbY0hdW2NIXVtjSF1jMmMxW0NIMl1bQ0BASF0oTihbQ0gzXSlbQ0gyXVtDSDJdMylbQ0BIXShPW0NIMl1bQ0hdNClbQ0BASF0oQz00W0NAXTIzNSlOKFtDSDJdW0NIMl01KVtDSDJdW0NIXTZbQ0gyXVtDSDJdNg==

>  <s_epik_cmdline>  (331) 
J2VwaWtfcHl0aG9uJywgJy1waHQnLCAnMi4wJywgJy1waCcsICc3LjAnLCAnLXRuJywgJzgnLCAnLW1hJywgJzIwMCcsICctaW1hZScsICc8aW5maWxlLm1hZT4nLCAnLW9tYWUnLCAnPG91dGZpbGUubWFlPic=

>  <r_epik_Ionization_Penalty>  (331) 
0.0903784

>  <r_epik_Ionization_Penalty_Charging>  (331) 
0.052489

>  <r_epik_Ionization_Penalty_Neutral>  (331) 
0.0378894

>  <r_epik_State_Penalty>  (331) 
0.182763

>  <r_epik_Charging_Adjusted_Penalty>  (331) 
0.235252

>  <i_epik_Tot_Q>  (331) 
1

>  <i_epik_Tot_abs_Q>  (331) 
1

>  <s_lp_Force_Field>  (331) 
OPLS3e

>  <r_lp_Energy>  (331) 
156.13

>  <b_lp_Chiralities_Consistent>  (331) 
1

>  <s_lp_Variant>  (331) 
97:0-1

>  <s_i_glide_gridfile>  (331) 
pfpi4k_grid

>  <i_i_glide_lignum>  (331) 
5

>  <i_i_glide_rotatable_bonds>  (331) 
2

>  <r_i_docking_score>  (331) 
-3.47127

>  <r_i_glide_ligand_efficiency>  (331) 
-0.13351

>  <r_i_glide_ligand_efficiency_sa>  (331) 
-0.395524

>  <r_i_glide_ligand_efficiency_ln>  (331) 
-0.815216

>  <r_i_glide_gscore>  (331) 
-3.47127

>  <r_i_glide_lipo>  (331) 
-1.15882

>  <r_i_glide_hbond>  (331) 
0

>  <r_i_glide_metal>  (331) 
-0

>  <r_i_glide_rewards>  (331) 
-1.01247

>  <r_i_glide_evdw>  (331) 
-18.1855

>  <r_i_glide_ecoul>  (331) 
-4.66303

>  <r_i_glide_erotb>  (331) 
0.308746

>  <r_i_glide_esite>  (331) 
0

>  <r_i_glide_emodel>  (331) 
-25.172

>  <r_i_glide_energy>  (331) 
-22.8485

>  <r_i_glide_einternal>  (331) 
1.11916

>  <r_i_glide_intrahb_reward>  (331) 
-0

>  <i_i_glide_confnum>  (331) 
2

>  <i_i_glide_posenum>  (331) 
19

>  <r_i_glide_eff_state_penalty>  (331) 
0

>  <ligand_id>  (331) 
97

>  <original_smiles>  (331) 
CN1CCC23CCN(CC4CC4)C4C2=CCOC4C1Cc1ccccc13

>  <smiles>  (331) 
[H]C1=C2C3([H])N(C([H])([H])C4([H])C([H])([H])C4([H])[H])C([H])([H])C([H])([H])C24c2c([H])c([H])c([H])c([H])c2C([H])([H])C([H])(C3([H])OC1([H])[H])[N+]([H])(C([H])([H])[H])C([H])([H])C4([H])[H]

$$$$
97:0:1
     RDKit          3D

 57 62  0  0  1  0  0  0  0  0999 V2000
    7.7497   -6.0172    0.5397 C   0  0  0  0  0  0  0  0  0  0  0  0
    6.4865   -5.2570    0.2932 N   0  0  1  0  0  0  0  0  0  0  0  0
    5.2938   -6.0259    0.7766 C   0  0  0  0  0  0  0  0  0  0  0  0
    3.8948   -5.5066    0.3433 C   0  0  0  0  0  0  0  0  0  0  0  0
    3.3845   -4.0945    0.7749 C   0  0  2  0  0  0  0  0  0  0  0  0
    2.1665   -3.7110   -0.0861 C   0  0  0  0  0  0  0  0  0  0  0  0
    2.5513   -3.3015   -1.5862 C   0  0  0  0  0  0  0  0  0  0  0  0
    3.8475   -2.5369   -1.7812 N   0  0  0  0  0  0  0  0  0  0  0  0
    4.2504   -2.5744   -3.1812 C   0  0  0  0  0  0  0  0  0  0  0  0
    3.3232   -1.7594   -4.0668 C   0  0  0  0  0  0  0  0  0  0  0  0
    3.9078   -0.7886   -5.0635 C   0  0  0  0  0  0  0  0  0  0  0  0
    3.2091   -0.2652   -3.8430 C   0  0  0  0  0  0  0  0  0  0  0  0
    4.8295   -3.1181   -0.8672 C   0  0  2  0  0  0  0  0  0  0  0  0
    4.1479   -2.8893    0.4049 C   0  0  0  0  0  0  0  0  0  0  0  0
    4.2340   -1.7054    1.0382 C   0  0  0  0  0  0  0  0  0  0  0  0
    5.2755   -0.7142    0.5748 C   0  0  0  0  0  0  0  0  0  0  0  0
    6.4119   -1.3905    0.0067 O   0  0  0  0  0  0  0  0  0  0  0  0
    6.2397   -2.7619   -0.4209 C   0  0  1  0  0  0  0  0  0  0  0  0
    6.5964   -3.8317    0.7533 C   0  0  1  0  0  0  0  0  0  0  0  0
    6.1028   -3.6863    2.2619 C   0  0  0  0  0  0  0  0  0  0  0  0
    4.7181   -3.9849    2.9399 C   0  0  0  0  0  0  0  0  0  0  0  0
    4.7517   -4.1012    4.3423 C   0  0  0  0  0  0  0  0  0  0  0  0
    3.5936   -4.3713    5.0916 C   0  0  0  0  0  0  0  0  0  0  0  0
    2.3604   -4.5267    4.4346 C   0  0  0  0  0  0  0  0  0  0  0  0
    2.2867   -4.4089    3.0375 C   0  0  0  0  0  0  0  0  0  0  0  0
    3.4350   -4.1355    2.2835 C   0  0  0  0  0  0  0  0  0  0  0  0
    7.9438   -6.1308    1.6082 H   0  0  0  0  0  0  0  0  0  0  0  0
    8.6047   -5.5181    0.0760 H   0  0  0  0  0  0  0  0  0  0  0  0
    7.7307   -7.0143    0.1099 H   0  0  0  0  0  0  0  0  0  0  0  0
    5.3685   -7.0094    0.3152 H   0  0  0  0  0  0  0  0  0  0  0  0
    5.3336   -6.2274    1.8474 H   0  0  0  0  0  0  0  0  0  0  0  0
    3.8010   -5.6474   -0.7138 H   0  0  0  0  0  0  0  0  0  0  0  0
    3.1710   -6.2242    0.7215 H   0  0  0  0  0  0  0  0  0  0  0  0
    1.4693   -4.5344   -0.1257 H   0  0  0  0  0  0  0  0  0  0  0  0
    1.7046   -2.8270    0.3603 H   0  0  0  0  0  0  0  0  0  0  0  0
    2.5918   -4.2259   -2.1402 H   0  0  0  0  0  0  0  0  0  0  0  0
    1.7226   -2.7390   -2.0359 H   0  0  0  0  0  0  0  0  0  0  0  0
    5.2642   -2.1962   -3.2822 H   0  0  0  0  0  0  0  0  0  0  0  0
    4.2552   -3.6074   -3.5421 H   0  0  0  0  0  0  0  0  0  0  0  0
    2.3947   -2.2638   -4.3281 H   0  0  0  0  0  0  0  0  0  0  0  0
    4.9848   -0.7130   -5.0750 H   0  0  0  0  0  0  0  0  0  0  0  0
    3.4166   -0.6420   -6.0231 H   0  0  0  0  0  0  0  0  0  0  0  0
    2.2280    0.1873   -3.9818 H   0  0  0  0  0  0  0  0  0  0  0  0
    3.8186    0.1668   -3.0516 H   0  0  0  0  0  0  0  0  0  0  0  0
    4.9565   -4.1270   -1.2310 H   0  0  0  0  0  0  0  0  0  0  0  0
    3.6761   -1.4734    1.9357 H   0  0  0  0  0  0  0  0  0  0  0  0
    4.8155   -0.0405   -0.1513 H   0  0  0  0  0  0  0  0  0  0  0  0
    5.6034   -0.1152    1.4294 H   0  0  0  0  0  0  0  0  0  0  0  0
    6.9269   -2.9036   -1.2552 H   0  0  0  0  0  0  0  0  0  0  0  0
    7.6632   -3.6261    0.8525 H   0  0  0  0  0  0  0  0  0  0  0  0
    6.6856   -4.4563    2.7755 H   0  0  0  0  0  0  0  0  0  0  0  0
    6.3944   -2.6994    2.6011 H   0  0  0  0  0  0  0  0  0  0  0  0
    5.6959   -3.9865    4.8690 H   0  0  0  0  0  0  0  0  0  0  0  0
    3.6553   -4.4578    6.1633 H   0  0  0  0  0  0  0  0  0  0  0  0
    1.4732   -4.7397    5.0076 H   0  0  0  0  0  0  0  0  0  0  0  0
    1.3398   -4.5485    2.5340 H   0  0  0  0  0  0  0  0  0  0  0  0
    6.3916   -5.2024   -0.7030 H   0  0  0  0  0  0  0  0  0  0  0  0
  1  2  1  0
  1 27  1  0
  1 28  1  0
  1 29  1  0
  2 19  1  0
  2  3  1  0
  2 57  1  6
  3  4  1  0
  3 30  1  0
  3 31  1  0
  4  5  1  0
  4 32  1  0
  4 33  1  0
  5 14  1  0
  5 26  1  0
  5  6  1  1
  6  7  1  0
  6 34  1  0
  6 35  1  0
  7  8  1  0
  7 36  1  0
  7 37  1  0
  8  9  1  0
  8 13  1  0
  9 10  1  0
  9 38  1  0
  9 39  1  0
 10 12  1  0
 10 11  1  0
 10 40  1  0
 11 12  1  0
 11 41  1  0
 11 42  1  0
 12 43  1  0
 12 44  1  0
 13 18  1  0
 13 14  1  0
 13 45  1  6
 14 15  2  0
 15 16  1  0
 15 46  1  0
 16 17  1  0
 16 47  1  0
 16 48  1  0
 17 18  1  0
 18 19  1  0
 18 49  1  6
 19 20  1  0
 19 50  1  1
 20 21  1  0
 20 51  1  0
 20 52  1  0
 21 26  2  0
 21 22  1  0
 22 23  2  0
 22 53  1  0
 23 24  1  0
 23 54  1  0
 24 25  2  0
 24 55  1  0
 25 26  1  0
 25 56  1  0
M  CHG  1   2   1
M  END
>  <i_m_ct_stereo_status>  (332) 
1

>  <s_m_source_file>  (332) 
/var/tmp/pbs.5076255.sched01/tmp2gi29psn/132an720x3a.sdf

>  <i_m_source_file_index>  (332) 
5

>  <i_lp_mmshare_version>  (332) 
48012

>  <i_f3d_flags>  (332) 
0

>  <s_epik_input>  (332) 
W2NIXTFbY0hdW2NIXVtjSF1jMmMxW0NIMl1bQ0BASF0oTihbQ0gzXSlbQ0gyXVtDSDJdMylbQ0BIXShPW0NIMl1bQ0hdNClbQ0BASF0oQz00W0NAXTIzNSlOKFtDSDJdW0NIMl01KVtDSDJdW0NIXTZbQ0gyXVtDSDJdNg==

>  <s_epik_cmdline>  (332) 
J2VwaWtfcHl0aG9uJywgJy1waHQnLCAnMi4wJywgJy1waCcsICc3LjAnLCAnLXRuJywgJzgnLCAnLW1hJywgJzIwMCcsICctaW1hZScsICc8aW5maWxlLm1hZT4nLCAnLW9tYWUnLCAnPG91dGZpbGUubWFlPic=

>  <r_epik_Ionization_Penalty>  (332) 
0.0903784

>  <r_epik_Ionization_Penalty_Charging>  (332) 
0.052489

>  <r_epik_Ionization_Penalty_Neutral>  (332) 
0.0378894

>  <r_epik_State_Penalty>  (332) 
0.182763

>  <r_epik_Charging_Adjusted_Penalty>  (332) 
0.235252

>  <i_epik_Tot_Q>  (332) 
1

>  <i_epik_Tot_abs_Q>  (332) 
1

>  <s_lp_Force_Field>  (332) 
OPLS3e

>  <r_lp_Energy>  (332) 
156.13

>  <b_lp_Chiralities_Consistent>  (332) 
1

>  <s_lp_Variant>  (332) 
97:0-1

>  <s_i_glide_gridfile>  (332) 
pfpi4k_grid

>  <i_i_glide_lignum>  (332) 
5

>  <i_i_glide_rotatable_bonds>  (332) 
2

>  <r_i_docking_score>  (332) 
-2.8885

>  <r_i_glide_ligand_efficiency>  (332) 
-0.111096

>  <r_i_glide_ligand_efficiency_sa>  (332) 
-0.329122

>  <r_i_glide_ligand_efficiency_ln>  (332) 
-0.678356

>  <r_i_glide_gscore>  (332) 
-2.8885

>  <r_i_glide_lipo>  (332) 
-0.986521

>  <r_i_glide_hbond>  (332) 
-0.0345337

>  <r_i_glide_metal>  (332) 
-0

>  <r_i_glide_rewards>  (332) 
-1.01247

>  <r_i_glide_evdw>  (332) 
-17.2683

>  <r_i_glide_ecoul>  (332) 
-2.0021

>  <r_i_glide_erotb>  (332) 
0.308746

>  <r_i_glide_esite>  (332) 
0

>  <r_i_glide_emodel>  (332) 
-20.4197

>  <r_i_glide_energy>  (332) 
-19.2704

>  <r_i_glide_einternal>  (332) 
1.91393

>  <r_i_glide_intrahb_reward>  (332) 
-0

>  <i_i_glide_confnum>  (332) 
1

>  <i_i_glide_posenum>  (332) 
14

>  <r_i_glide_eff_state_penalty>  (332) 
0

>  <ligand_id>  (332) 
97

>  <original_smiles>  (332) 
CN1CCC23CCN(CC4CC4)C4C2=CCOC4C1Cc1ccccc13

>  <smiles>  (332) 
[H]C1=C2C3([H])N(C([H])([H])C4([H])C([H])([H])C4([H])[H])C([H])([H])C([H])([H])C24c2c([H])c([H])c([H])c([H])c2C([H])([H])C([H])(C3([H])OC1([H])[H])[N+]([H])(C([H])([H])[H])C([H])([H])C4([H])[H]

$$$$
97:0:2
     RDKit          3D

 57 62  0  0  1  0  0  0  0  0999 V2000
    8.1482   -4.5114    1.0140 C   0  0  0  0  0  0  0  0  0  0  0  0
    6.7744   -4.1509    0.5707 N   0  0  1  0  0  0  0  0  0  0  0  0
    5.8910   -5.3610    0.5587 C   0  0  0  0  0  0  0  0  0  0  0  0
    4.5226   -5.2455   -0.1860 C   0  0  0  0  0  0  0  0  0  0  0  0
    3.4187   -4.2503    0.3455 C   0  0  2  0  0  0  0  0  0  0  0  0
    2.3078   -4.0952   -0.7399 C   0  0  0  0  0  0  0  0  0  0  0  0
    2.8427   -3.2406   -1.9871 C   0  0  0  0  0  0  0  0  0  0  0  0
    3.7611   -2.0624   -1.7083 N   0  0  0  0  0  0  0  0  0  0  0  0
    4.4231   -1.6346   -2.9361 C   0  0  0  0  0  0  0  0  0  0  0  0
    3.4553   -1.2048   -4.0218 C   0  0  0  0  0  0  0  0  0  0  0  0
    3.9066   -0.3117   -5.1362 C   0  0  0  0  0  0  0  0  0  0  0  0
    2.9988    0.2355   -4.0899 C   0  0  0  0  0  0  0  0  0  0  0  0
    4.6892   -2.4736   -0.6463 C   0  0  2  0  0  0  0  0  0  0  0  0
    3.7354   -2.8145    0.4010 C   0  0  0  0  0  0  0  0  0  0  0  0
    3.2333   -1.8517    1.2142 C   0  0  0  0  0  0  0  0  0  0  0  0
    3.8933   -0.4945    1.2147 C   0  0  0  0  0  0  0  0  0  0  0  0
    5.2933   -0.5965    0.9043 O   0  0  0  0  0  0  0  0  0  0  0  0
    5.7411   -1.7901    0.2309 C   0  0  1  0  0  0  0  0  0  0  0  0
    6.2367   -2.9309    1.2706 C   0  0  1  0  0  0  0  0  0  0  0  0
    5.4425   -3.2797    2.6244 C   0  0  0  0  0  0  0  0  0  0  0  0
    4.1856   -4.2268    2.8020 C   0  0  0  0  0  0  0  0  0  0  0  0
    3.9702   -4.6722    4.1279 C   0  0  0  0  0  0  0  0  0  0  0  0
    2.8703   -5.4799    4.4658 C   0  0  0  0  0  0  0  0  0  0  0  0
    1.9503   -5.8694    3.4794 C   0  0  0  0  0  0  0  0  0  0  0  0
    2.1311   -5.4575    2.1511 C   0  0  0  0  0  0  0  0  0  0  0  0
    3.2268   -4.6384    1.8019 C   0  0  0  0  0  0  0  0  0  0  0  0
    8.1612   -4.8258    2.0573 H   0  0  0  0  0  0  0  0  0  0  0  0
    8.8384   -3.6762    0.9000 H   0  0  0  0  0  0  0  0  0  0  0  0
    8.5486   -5.3340    0.4202 H   0  0  0  0  0  0  0  0  0  0  0  0
    6.4412   -6.1362    0.0337 H   0  0  0  0  0  0  0  0  0  0  0  0
    5.7837   -5.7822    1.5552 H   0  0  0  0  0  0  0  0  0  0  0  0
    4.6945   -5.1516   -1.2600 H   0  0  0  0  0  0  0  0  0  0  0  0
    4.0756   -6.2391   -0.1235 H   0  0  0  0  0  0  0  0  0  0  0  0
    1.9044   -5.0546   -1.0631 H   0  0  0  0  0  0  0  0  0  0  0  0
    1.4615   -3.5485   -0.3392 H   0  0  0  0  0  0  0  0  0  0  0  0
    3.3824   -3.9060   -2.6550 H   0  0  0  0  0  0  0  0  0  0  0  0
    1.9717   -2.9130   -2.5532 H   0  0  0  0  0  0  0  0  0  0  0  0
    5.0946   -0.8038   -2.7121 H   0  0  0  0  0  0  0  0  0  0  0  0
    5.0427   -2.4425   -3.3335 H   0  0  0  0  0  0  0  0  0  0  0  0
    2.7309   -1.9499   -4.3296 H   0  0  0  0  0  0  0  0  0  0  0  0
    4.9257    0.0434   -5.1064 H   0  0  0  0  0  0  0  0  0  0  0  0
    3.4872   -0.4765   -6.1361 H   0  0  0  0  0  0  0  0  0  0  0  0
    1.9746    0.4438   -4.3816 H   0  0  0  0  0  0  0  0  0  0  0  0
    3.4532    0.9213   -3.3886 H   0  0  0  0  0  0  0  0  0  0  0  0
    5.2684   -3.2581   -1.1064 H   0  0  0  0  0  0  0  0  0  0  0  0
    2.4632   -2.0410    1.9455 H   0  0  0  0  0  0  0  0  0  0  0  0
    3.3896    0.1585    0.5035 H   0  0  0  0  0  0  0  0  0  0  0  0
    3.7888   -0.0368    2.1998 H   0  0  0  0  0  0  0  0  0  0  0  0
    6.5825   -1.4889   -0.3908 H   0  0  0  0  0  0  0  0  0  0  0  0
    7.1041   -2.4167    1.6713 H   0  0  0  0  0  0  0  0  0  0  0  0
    6.1867   -3.7270    3.2824 H   0  0  0  0  0  0  0  0  0  0  0  0
    5.1916   -2.3367    3.1123 H   0  0  0  0  0  0  0  0  0  0  0  0
    4.6571   -4.3827    4.9095 H   0  0  0  0  0  0  0  0  0  0  0  0
    2.7330   -5.7990    5.4875 H   0  0  0  0  0  0  0  0  0  0  0  0
    1.1110   -6.4939    3.7434 H   0  0  0  0  0  0  0  0  0  0  0  0
    1.4343   -5.7766    1.3938 H   0  0  0  0  0  0  0  0  0  0  0  0
    6.8918   -3.8828   -0.3943 H   0  0  0  0  0  0  0  0  0  0  0  0
  1  2  1  0
  1 27  1  0
  1 28  1  0
  1 29  1  0
  2 19  1  0
  2  3  1  0
  2 57  1  6
  3  4  1  0
  3 30  1  0
  3 31  1  0
  4  5  1  0
  4 32  1  0
  4 33  1  0
  5 14  1  0
  5 26  1  0
  5  6  1  6
  6  7  1  0
  6 34  1  0
  6 35  1  0
  7  8  1  0
  7 36  1  0
  7 37  1  0
  8  9  1  0
  8 13  1  0
  9 10  1  0
  9 38  1  0
  9 39  1  0
 10 12  1  0
 10 11  1  0
 10 40  1  0
 11 12  1  0
 11 41  1  0
 11 42  1  0
 12 43  1  0
 12 44  1  0
 13 18  1  0
 13 14  1  0
 13 45  1  6
 14 15  2  0
 15 16  1  0
 15 46  1  0
 16 17  1  0
 16 47  1  0
 16 48  1  0
 17 18  1  0
 18 19  1  0
 18 49  1  6
 19 20  1  0
 19 50  1  1
 20 21  1  0
 20 51  1  0
 20 52  1  0
 21 26  2  0
 21 22  1  0
 22 23  2  0
 22 53  1  0
 23 24  1  0
 23 54  1  0
 24 25  2  0
 24 55  1  0
 25 26  1  0
 25 56  1  0
M  CHG  1   2   1
M  END
>  <i_m_ct_stereo_status>  (333) 
1

>  <s_m_source_file>  (333) 
/var/tmp/pbs.5076255.sched01/tmp2gi29psn/132an720x3a.sdf

>  <i_m_source_file_index>  (333) 
5

>  <i_lp_mmshare_version>  (333) 
48012

>  <i_f3d_flags>  (333) 
0

>  <s_epik_input>  (333) 
W2NIXTFbY0hdW2NIXVtjSF1jMmMxW0NIMl1bQ0BASF0oTihbQ0gzXSlbQ0gyXVtDSDJdMylbQ0BIXShPW0NIMl1bQ0hdNClbQ0BASF0oQz00W0NAXTIzNSlOKFtDSDJdW0NIMl01KVtDSDJdW0NIXTZbQ0gyXVtDSDJdNg==

>  <s_epik_cmdline>  (333) 
J2VwaWtfcHl0aG9uJywgJy1waHQnLCAnMi4wJywgJy1waCcsICc3LjAnLCAnLXRuJywgJzgnLCAnLW1hJywgJzIwMCcsICctaW1hZScsICc8aW5maWxlLm1hZT4nLCAnLW9tYWUnLCAnPG91dGZpbGUubWFlPic=

>  <r_epik_Ionization_Penalty>  (333) 
0.0903784

>  <r_epik_Ionization_Penalty_Charging>  (333) 
0.052489

>  <r_epik_Ionization_Penalty_Neutral>  (333) 
0.0378894

>  <r_epik_State_Penalty>  (333) 
0.182763

>  <r_epik_Charging_Adjusted_Penalty>  (333) 
0.235252

>  <i_epik_Tot_Q>  (333) 
1

>  <i_epik_Tot_abs_Q>  (333) 
1

>  <s_lp_Force_Field>  (333) 
OPLS3e

>  <r_lp_Energy>  (333) 
156.13

>  <b_lp_Chiralities_Consistent>  (333) 
1

>  <s_lp_Variant>  (333) 
97:0-1

>  <s_i_glide_gridfile>  (333) 
pfpi4k_grid

>  <i_i_glide_lignum>  (333) 
5

>  <i_i_glide_rotatable_bonds>  (333) 
2

>  <r_i_docking_score>  (333) 
-2.46207

>  <r_i_glide_ligand_efficiency>  (333) 
-0.0946951

>  <r_i_glide_ligand_efficiency_sa>  (333) 
-0.280534

>  <r_i_glide_ligand_efficiency_ln>  (333) 
-0.57821

>  <r_i_glide_gscore>  (333) 
-2.46207

>  <r_i_glide_lipo>  (333) 
-0.752431

>  <r_i_glide_hbond>  (333) 
0

>  <r_i_glide_metal>  (333) 
-0

>  <r_i_glide_rewards>  (333) 
-1.05413

>  <r_i_glide_evdw>  (333) 
-19.4264

>  <r_i_glide_ecoul>  (333) 
0.0470775

>  <r_i_glide_erotb>  (333) 
0.308746

>  <r_i_glide_esite>  (333) 
0

>  <r_i_glide_emodel>  (333) 
-21.2943

>  <r_i_glide_energy>  (333) 
-19.3793

>  <r_i_glide_einternal>  (333) 
0.338575

>  <r_i_glide_intrahb_reward>  (333) 
-0

>  <i_i_glide_confnum>  (333) 
2

>  <i_i_glide_posenum>  (333) 
11

>  <r_i_glide_eff_state_penalty>  (333) 
0

>  <ligand_id>  (333) 
97

>  <original_smiles>  (333) 
CN1CCC23CCN(CC4CC4)C4C2=CCOC4C1Cc1ccccc13

>  <smiles>  (333) 
[H]C1=C2C3([H])N(C([H])([H])C4([H])C([H])([H])C4([H])[H])C([H])([H])C([H])([H])C24c2c([H])c([H])c([H])c([H])c2C([H])([H])C([H])(C3([H])OC1([H])[H])[N+]([H])(C([H])([H])[H])C([H])([H])C4([H])[H]

$$$$
97:1:0
     RDKit          3D

 57 62  0  0  1  0  0  0  0  0999 V2000
    4.4460   -0.8475    3.6193 C   0  0  0  0  0  0  0  0  0  0  0  0
    4.6544   -1.4019    2.2814 N   0  0  0  0  0  0  0  0  0  0  0  0
    6.0990   -1.4725    1.9840 C   0  0  0  0  0  0  0  0  0  0  0  0
    6.6101   -1.8359    0.5575 C   0  0  0  0  0  0  0  0  0  0  0  0
    6.2506   -3.2310   -0.0695 C   0  0  2  0  0  0  0  0  0  0  0  0
    6.5044   -3.1849   -1.6114 C   0  0  0  0  0  0  0  0  0  0  0  0
    5.3885   -2.3586   -2.4042 C   0  0  0  0  0  0  0  0  0  0  0  0
    3.9518   -2.4757   -1.8785 N   0  0  2  0  0  0  0  0  0  0  0  0
    3.0137   -1.4951   -2.4601 C   0  0  0  0  0  0  0  0  0  0  0  0
    3.2636   -1.1597   -3.9163 C   0  0  0  0  0  0  0  0  0  0  0  0
    3.9619    0.1346   -4.2606 C   0  0  0  0  0  0  0  0  0  0  0  0
    2.5259   -0.0318   -4.6069 C   0  0  0  0  0  0  0  0  0  0  0  0
    4.0231   -2.4356   -0.3925 C   0  0  2  0  0  0  0  0  0  0  0  0
    4.8406   -3.6123   -0.1964 C   0  0  0  0  0  0  0  0  0  0  0  0
    4.2755   -4.8385   -0.2195 C   0  0  0  0  0  0  0  0  0  0  0  0
    2.7679   -4.9400   -0.1021 C   0  0  0  0  0  0  0  0  0  0  0  0
    2.2194   -3.8445    0.6311 O   0  0  0  0  0  0  0  0  0  0  0  0
    3.0175   -2.6584    0.7317 C   0  0  1  0  0  0  0  0  0  0  0  0
    3.8967   -2.6650    2.0889 C   0  0  1  0  0  0  0  0  0  0  0  0
    4.6592   -3.9834    2.6208 C   0  0  0  0  0  0  0  0  0  0  0  0
    6.0584   -4.5444    2.1442 C   0  0  0  0  0  0  0  0  0  0  0  0
    6.6409   -5.4745    3.0328 C   0  0  0  0  0  0  0  0  0  0  0  0
    7.8841   -6.0766    2.7591 C   0  0  0  0  0  0  0  0  0  0  0  0
    8.5717   -5.7756    1.5721 C   0  0  0  0  0  0  0  0  0  0  0  0
    8.0217   -4.8695    0.6509 C   0  0  0  0  0  0  0  0  0  0  0  0
    6.7852   -4.2512    0.9214 C   0  0  0  0  0  0  0  0  0  0  0  0
    4.9335    0.1214    3.7139 H   0  0  0  0  0  0  0  0  0  0  0  0
    4.8458   -1.5012    4.3935 H   0  0  0  0  0  0  0  0  0  0  0  0
    3.3859   -0.6910    3.8212 H   0  0  0  0  0  0  0  0  0  0  0  0
    6.5163   -0.4888    2.1874 H   0  0  0  0  0  0  0  0  0  0  0  0
    6.5760   -2.1148    2.7125 H   0  0  0  0  0  0  0  0  0  0  0  0
    6.4014   -1.0065   -0.1193 H   0  0  0  0  0  0  0  0  0  0  0  0
    7.7004   -1.8173    0.6343 H   0  0  0  0  0  0  0  0  0  0  0  0
    7.5124   -2.8341   -1.8546 H   0  0  0  0  0  0  0  0  0  0  0  0
    6.3979   -4.1820   -2.0207 H   0  0  0  0  0  0  0  0  0  0  0  0
    5.6690   -1.3133   -2.3515 H   0  0  0  0  0  0  0  0  0  0  0  0
    5.4236   -2.6643   -3.4485 H   0  0  0  0  0  0  0  0  0  0  0  0
    2.0052   -1.8865   -2.3532 H   0  0  0  0  0  0  0  0  0  0  0  0
    3.0712   -0.5751   -1.9016 H   0  0  0  0  0  0  0  0  0  0  0  0
    3.4399   -2.0174   -4.5589 H   0  0  0  0  0  0  0  0  0  0  0  0
    4.2113    0.8300   -3.4657 H   0  0  0  0  0  0  0  0  0  0  0  0
    4.6371    0.1071   -5.0944 H   0  0  0  0  0  0  0  0  0  0  0  0
    2.2788   -0.1530   -5.6570 H   0  0  0  0  0  0  0  0  0  0  0  0
    1.8194    0.5408   -4.0299 H   0  0  0  0  0  0  0  0  0  0  0  0
    4.4106   -1.4464   -0.1948 H   0  0  0  0  0  0  0  0  0  0  0  0
    4.8497   -5.7550   -0.1706 H   0  0  0  0  0  0  0  0  0  0  0  0
    2.2656   -4.9616   -1.0703 H   0  0  0  0  0  0  0  0  0  0  0  0
    2.5170   -5.8612    0.4301 H   0  0  0  0  0  0  0  0  0  0  0  0
    2.3328   -1.8171    0.7704 H   0  0  0  0  0  0  0  0  0  0  0  0
    3.0728   -2.6265    2.7976 H   0  0  0  0  0  0  0  0  0  0  0  0
    4.7857   -3.8231    3.6932 H   0  0  0  0  0  0  0  0  0  0  0  0
    3.9607   -4.8195    2.5714 H   0  0  0  0  0  0  0  0  0  0  0  0
    6.1506   -5.7138    3.9648 H   0  0  0  0  0  0  0  0  0  0  0  0
    8.3259   -6.7660    3.4686 H   0  0  0  0  0  0  0  0  0  0  0  0
    9.5136   -6.2560    1.3739 H   0  0  0  0  0  0  0  0  0  0  0  0
    8.5618   -4.6430   -0.2583 H   0  0  0  0  0  0  0  0  0  0  0  0
    3.6063   -3.3878   -2.1365 H   0  0  0  0  0  0  0  0  0  0  0  0
  1  2  1  0
  1 27  1  0
  1 28  1  0
  1 29  1  0
  2 19  1  0
  2  3  1  0
  3  4  1  0
  3 30  1  0
  3 31  1  0
  4  5  1  0
  4 32  1  0
  4 33  1  0
  5 14  1  0
  5 26  1  0
  5  6  1  6
  6  7  1  0
  6 34  1  0
  6 35  1  0
  7  8  1  0
  7 36  1  0
  7 37  1  0
  8  9  1  0
  8 13  1  0
  8 57  1  1
  9 10  1  0
  9 38  1  0
  9 39  1  0
 10 12  1  0
 10 11  1  0
 10 40  1  0
 11 12  1  0
 11 41  1  0
 11 42  1  0
 12 43  1  0
 12 44  1  0
 13 18  1  0
 13 14  1  0
 13 45  1  6
 14 15  2  0
 15 16  1  0
 15 46  1  0
 16 17  1  0
 16 47  1  0
 16 48  1  0
 17 18  1  0
 18 19  1  0
 18 49  1  1
 19 20  1  0
 19 50  1  1
 20 21  1  0
 20 51  1  0
 20 52  1  0
 21 26  2  0
 21 22  1  0
 22 23  2  0
 22 53  1  0
 23 24  1  0
 23 54  1  0
 24 25  2  0
 24 55  1  0
 25 26  1  0
 25 56  1  0
M  CHG  1   8   1
M  END
>  <i_m_ct_stereo_status>  (334) 
1

>  <s_m_source_file>  (334) 
/var/tmp/pbs.5076255.sched01/tmp2gi29psn/132an720x3a.sdf

>  <i_m_source_file_index>  (334) 
6

>  <i_lp_mmshare_version>  (334) 
48012

>  <i_f3d_flags>  (334) 
0

>  <s_epik_input>  (334) 
W2NIXTFbY0hdW2NIXVtjSF1jMmMxW0NIMl1bQ0BASF0oTihbQ0gzXSlbQ0gyXVtDSDJdMylbQ0BIXShPW0NIMl1bQ0hdNClbQ0BASF0oQz00W0NAXTIzNSlOKFtDSDJdW0NIMl01KVtDSDJdW0NIXTZbQ0gyXVtDSDJdNg==

>  <s_epik_cmdline>  (334) 
J2VwaWtfcHl0aG9uJywgJy1waHQnLCAnMi4wJywgJy1waCcsICc3LjAnLCAnLXRuJywgJzgnLCAnLW1hJywgJzIwMCcsICctaW1hZScsICc8aW5maWxlLm1hZT4nLCAnLW9tYWUnLCAnPG91dGZpbGUubWFlPic=

>  <r_epik_Ionization_Penalty>  (334) 
0.324563

>  <r_epik_Ionization_Penalty_Charging>  (334) 
0.181323

>  <r_epik_Ionization_Penalty_Neutral>  (334) 
0.143239

>  <r_epik_State_Penalty>  (334) 
1.05935

>  <r_epik_Charging_Adjusted_Penalty>  (334) 
1.24067

>  <i_epik_Tot_Q>  (334) 
1

>  <i_epik_Tot_abs_Q>  (334) 
1

>  <s_lp_Force_Field>  (334) 
OPLS3e

>  <r_lp_Energy>  (334) 
149.871

>  <b_lp_Chiralities_Consistent>  (334) 
1

>  <s_lp_Variant>  (334) 
97:0-2

>  <s_i_glide_gridfile>  (334) 
pfpi4k_grid

>  <i_i_glide_lignum>  (334) 
6

>  <i_i_glide_rotatable_bonds>  (334) 
2

>  <r_i_docking_score>  (334) 
-3.30132

>  <r_i_glide_ligand_efficiency>  (334) 
-0.126974

>  <r_i_glide_ligand_efficiency_sa>  (334) 
-0.376159

>  <r_i_glide_ligand_efficiency_ln>  (334) 
-0.775304

>  <r_i_glide_gscore>  (334) 
-3.30132

>  <r_i_glide_lipo>  (334) 
-1.21397

>  <r_i_glide_hbond>  (334) 
0

>  <r_i_glide_metal>  (334) 
-0

>  <r_i_glide_rewards>  (334) 
-1.01247

>  <r_i_glide_evdw>  (334) 
-17.8776

>  <r_i_glide_ecoul>  (334) 
-3.14864

>  <r_i_glide_erotb>  (334) 
0.308746

>  <r_i_glide_esite>  (334) 
-0.0174536

>  <r_i_glide_emodel>  (334) 
-24.6029

>  <r_i_glide_energy>  (334) 
-21.0263

>  <r_i_glide_einternal>  (334) 
2.00457

>  <r_i_glide_intrahb_reward>  (334) 
-0

>  <i_i_glide_confnum>  (334) 
1

>  <i_i_glide_posenum>  (334) 
14

>  <r_i_glide_eff_state_penalty>  (334) 
0

>  <ligand_id>  (334) 
97

>  <original_smiles>  (334) 
CN1CCC23CCN(CC4CC4)C4C2=CCOC4C1Cc1ccccc13

>  <smiles>  (334) 
[H]C1=C2C34c5c([H])c([H])c([H])c([H])c5C([H])([H])C([H])(N(C([H])([H])[H])C([H])([H])C3([H])[H])C([H])(OC1([H])[H])C2([H])[N+]([H])(C([H])([H])C1([H])C([H])([H])C1([H])[H])C([H])([H])C4([H])[H]

$$$$
97:1:1
     RDKit          3D

 57 62  0  0  1  0  0  0  0  0999 V2000
    8.1604   -3.6823    0.8884 C   0  0  0  0  0  0  0  0  0  0  0  0
    6.8128   -3.3926    0.4038 N   0  0  0  0  0  0  0  0  0  0  0  0
    6.0415   -4.6502    0.2836 C   0  0  0  0  0  0  0  0  0  0  0  0
    4.6641   -4.6624   -0.4422 C   0  0  0  0  0  0  0  0  0  0  0  0
    3.4747   -3.8229    0.1424 C   0  0  2  0  0  0  0  0  0  0  0  0
    2.3574   -3.6623   -0.9483 C   0  0  0  0  0  0  0  0  0  0  0  0
    2.7615   -2.6351   -2.1256 C   0  0  0  0  0  0  0  0  0  0  0  0
    3.5755   -1.4102   -1.6900 N   0  0  2  0  0  0  0  0  0  0  0  0
    4.1853   -0.6548   -2.8177 C   0  0  0  0  0  0  0  0  0  0  0  0
    3.1277    0.0348   -3.6578 C   0  0  0  0  0  0  0  0  0  0  0  0
    2.9369   -0.2713   -5.1245 C   0  0  0  0  0  0  0  0  0  0  0  0
    3.5487    1.0275   -4.7295 C   0  0  0  0  0  0  0  0  0  0  0  0
    4.5669   -1.8666   -0.6823 C   0  0  2  0  0  0  0  0  0  0  0  0
    3.6510   -2.3760    0.3194 C   0  0  0  0  0  0  0  0  0  0  0  0
    3.0619   -1.5351    1.1979 C   0  0  0  0  0  0  0  0  0  0  0  0
    3.5987   -0.1304    1.3384 C   0  0  0  0  0  0  0  0  0  0  0  0
    4.9874   -0.0576    0.9896 O   0  0  0  0  0  0  0  0  0  0  0  0
    5.5432   -1.1480    0.2401 C   0  0  1  0  0  0  0  0  0  0  0  0
    6.1541   -2.3123    1.1848 C   0  0  1  0  0  0  0  0  0  0  0  0
    5.3896   -2.8285    2.5098 C   0  0  0  0  0  0  0  0  0  0  0  0
    4.2152   -3.8946    2.6065 C   0  0  0  0  0  0  0  0  0  0  0  0
    4.0283   -4.4420    3.8939 C   0  0  0  0  0  0  0  0  0  0  0  0
    3.0005   -5.3673    4.1542 C   0  0  0  0  0  0  0  0  0  0  0  0
    2.1302   -5.7686    3.1337 C   0  0  0  0  0  0  0  0  0  0  0  0
    2.2853   -5.2561    1.8364 C   0  0  0  0  0  0  0  0  0  0  0  0
    3.3077   -4.3248    1.5698 C   0  0  0  0  0  0  0  0  0  0  0  0
    8.6645   -4.4136    0.2611 H   0  0  0  0  0  0  0  0  0  0  0  0
    8.1358   -4.1032    1.8912 H   0  0  0  0  0  0  0  0  0  0  0  0
    8.7881   -2.7902    0.8852 H   0  0  0  0  0  0  0  0  0  0  0  0
    6.6478   -5.3517   -0.2926 H   0  0  0  0  0  0  0  0  0  0  0  0
    5.9653   -5.1194    1.2645 H   0  0  0  0  0  0  0  0  0  0  0  0
    4.8152   -4.4992   -1.5122 H   0  0  0  0  0  0  0  0  0  0  0  0
    4.3392   -5.7027   -0.4040 H   0  0  0  0  0  0  0  0  0  0  0  0
    2.0454   -4.6239   -1.3553 H   0  0  0  0  0  0  0  0  0  0  0  0
    1.4623   -3.2469   -0.4827 H   0  0  0  0  0  0  0  0  0  0  0  0
    3.3382   -3.1872   -2.8611 H   0  0  0  0  0  0  0  0  0  0  0  0
    1.8608   -2.2856   -2.6285 H   0  0  0  0  0  0  0  0  0  0  0  0
    4.8461    0.1188   -2.4239 H   0  0  0  0  0  0  0  0  0  0  0  0
    4.7902   -1.3142   -3.4455 H   0  0  0  0  0  0  0  0  0  0  0  0
    2.2115    0.2582   -3.1159 H   0  0  0  0  0  0  0  0  0  0  0  0
    3.5873   -1.0311   -5.5500 H   0  0  0  0  0  0  0  0  0  0  0  0
    1.9156   -0.2372   -5.5008 H   0  0  0  0  0  0  0  0  0  0  0  0
    2.9494    1.9237   -4.9045 H   0  0  0  0  0  0  0  0  0  0  0  0
    4.6008    1.1135   -4.9784 H   0  0  0  0  0  0  0  0  0  0  0  0
    5.2119   -2.5181   -1.2494 H   0  0  0  0  0  0  0  0  0  0  0  0
    2.3047   -1.8509    1.9018 H   0  0  0  0  0  0  0  0  0  0  0  0
    3.0066    0.5284    0.7095 H   0  0  0  0  0  0  0  0  0  0  0  0
    3.4906    0.2005    2.3694 H   0  0  0  0  0  0  0  0  0  0  0  0
    6.3457   -0.7262   -0.3566 H   0  0  0  0  0  0  0  0  0  0  0  0
    6.9517   -1.7237    1.6287 H   0  0  0  0  0  0  0  0  0  0  0  0
    6.1759   -3.2628    3.1171 H   0  0  0  0  0  0  0  0  0  0  0  0
    5.0764   -1.9485    3.0747 H   0  0  0  0  0  0  0  0  0  0  0  0
    4.6844   -4.1522    4.6966 H   0  0  0  0  0  0  0  0  0  0  0  0
    2.8883   -5.7717    5.1484 H   0  0  0  0  0  0  0  0  0  0  0  0
    1.3519   -6.4860    3.3370 H   0  0  0  0  0  0  0  0  0  0  0  0
    1.6422   -5.5872    1.0398 H   0  0  0  0  0  0  0  0  0  0  0  0
    2.8999   -0.8135   -1.2068 H   0  0  0  0  0  0  0  0  0  0  0  0
  1  2  1  0
  1 27  1  0
  1 28  1  0
  1 29  1  0
  2 19  1  0
  2  3  1  0
  3  4  1  0
  3 30  1  0
  3 31  1  0
  4  5  1  0
  4 32  1  0
  4 33  1  0
  5 14  1  0
  5 26  1  0
  5  6  1  6
  6  7  1  0
  6 34  1  0
  6 35  1  0
  7  8  1  0
  7 36  1  0
  7 37  1  0
  8  9  1  0
  8 13  1  0
  8 57  1  1
  9 10  1  0
  9 38  1  0
  9 39  1  0
 10 12  1  0
 10 11  1  0
 10 40  1  0
 11 12  1  0
 11 41  1  0
 11 42  1  0
 12 43  1  0
 12 44  1  0
 13 18  1  0
 13 14  1  0
 13 45  1  6
 14 15  2  0
 15 16  1  0
 15 46  1  0
 16 17  1  0
 16 47  1  0
 16 48  1  0
 17 18  1  0
 18 19  1  0
 18 49  1  6
 19 20  1  0
 19 50  1  1
 20 21  1  0
 20 51  1  0
 20 52  1  0
 21 26  2  0
 21 22  1  0
 22 23  2  0
 22 53  1  0
 23 24  1  0
 23 54  1  0
 24 25  2  0
 24 55  1  0
 25 26  1  0
 25 56  1  0
M  CHG  1   8   1
M  END
>  <i_m_ct_stereo_status>  (335) 
1

>  <s_m_source_file>  (335) 
/var/tmp/pbs.5076255.sched01/tmp2gi29psn/132an720x3a.sdf

>  <i_m_source_file_index>  (335) 
6

>  <i_lp_mmshare_version>  (335) 
48012

>  <i_f3d_flags>  (335) 
0

>  <s_epik_input>  (335) 
W2NIXTFbY0hdW2NIXVtjSF1jMmMxW0NIMl1bQ0BASF0oTihbQ0gzXSlbQ0gyXVtDSDJdMylbQ0BIXShPW0NIMl1bQ0hdNClbQ0BASF0oQz00W0NAXTIzNSlOKFtDSDJdW0NIMl01KVtDSDJdW0NIXTZbQ0gyXVtDSDJdNg==

>  <s_epik_cmdline>  (335) 
J2VwaWtfcHl0aG9uJywgJy1waHQnLCAnMi4wJywgJy1waCcsICc3LjAnLCAnLXRuJywgJzgnLCAnLW1hJywgJzIwMCcsICctaW1hZScsICc8aW5maWxlLm1hZT4nLCAnLW9tYWUnLCAnPG91dGZpbGUubWFlPic=

>  <r_epik_Ionization_Penalty>  (335) 
0.324563

>  <r_epik_Ionization_Penalty_Charging>  (335) 
0.181323

>  <r_epik_Ionization_Penalty_Neutral>  (335) 
0.143239

>  <r_epik_State_Penalty>  (335) 
1.05935

>  <r_epik_Charging_Adjusted_Penalty>  (335) 
1.24067

>  <i_epik_Tot_Q>  (335) 
1

>  <i_epik_Tot_abs_Q>  (335) 
1

>  <s_lp_Force_Field>  (335) 
OPLS3e

>  <r_lp_Energy>  (335) 
149.871

>  <b_lp_Chiralities_Consistent>  (335) 
1

>  <s_lp_Variant>  (335) 
97:0-2

>  <s_i_glide_gridfile>  (335) 
pfpi4k_grid

>  <i_i_glide_lignum>  (335) 
6

>  <i_i_glide_rotatable_bonds>  (335) 
2

>  <r_i_docking_score>  (335) 
-3.09852

>  <r_i_glide_ligand_efficiency>  (335) 
-0.119174

>  <r_i_glide_ligand_efficiency_sa>  (335) 
-0.353052

>  <r_i_glide_ligand_efficiency_ln>  (335) 
-0.727677

>  <r_i_glide_gscore>  (335) 
-3.09852

>  <r_i_glide_lipo>  (335) 
-0.729259

>  <r_i_glide_hbond>  (335) 
-0.15901

>  <r_i_glide_metal>  (335) 
-0

>  <r_i_glide_rewards>  (335) 
-1.01247

>  <r_i_glide_evdw>  (335) 
-21.8439

>  <r_i_glide_ecoul>  (335) 
-2.17416

>  <r_i_glide_erotb>  (335) 
0.308746

>  <r_i_glide_esite>  (335) 
-0.08821

>  <r_i_glide_emodel>  (335) 
-28.2698

>  <r_i_glide_energy>  (335) 
-24.0181

>  <r_i_glide_einternal>  (335) 
0.37608

>  <r_i_glide_intrahb_reward>  (335) 
-0

>  <i_i_glide_confnum>  (335) 
1

>  <i_i_glide_posenum>  (335) 
9

>  <r_i_glide_eff_state_penalty>  (335) 
0

>  <ligand_id>  (335) 
97

>  <original_smiles>  (335) 
CN1CCC23CCN(CC4CC4)C4C2=CCOC4C1Cc1ccccc13

>  <smiles>  (335) 
[H]C1=C2C34c5c([H])c([H])c([H])c([H])c5C([H])([H])C([H])(N(C([H])([H])[H])C([H])([H])C3([H])[H])C([H])(OC1([H])[H])C2([H])[N+]([H])(C([H])([H])C1([H])C([H])([H])C1([H])[H])C([H])([H])C4([H])[H]

$$$$
97:1:2
     RDKit          3D

 57 62  0  0  1  0  0  0  0  0999 V2000
    8.7012   -2.5157    0.1095 C   0  0  0  0  0  0  0  0  0  0  0  0
    7.2841   -2.4204   -0.2631 N   0  0  0  0  0  0  0  0  0  0  0  0
    6.7533   -3.7688   -0.5036 C   0  0  0  0  0  0  0  0  0  0  0  0
    5.3386   -3.9676   -1.1683 C   0  0  0  0  0  0  0  0  0  0  0  0
    4.0497   -3.4587   -0.4127 C   0  0  2  0  0  0  0  0  0  0  0  0
    2.8303   -3.3644   -1.3768 C   0  0  0  0  0  0  0  0  0  0  0  0
    2.9573   -2.1864   -2.4376 C   0  0  0  0  0  0  0  0  0  0  0  0
    3.5991   -0.9301   -1.9270 N   0  0  2  0  0  0  0  0  0  0  0  0
    3.9943   -0.0080   -3.0073 C   0  0  0  0  0  0  0  0  0  0  0  0
    2.8717    0.3886   -3.9355 C   0  0  0  0  0  0  0  0  0  0  0  0
    2.8509   -0.0889   -5.3204 C   0  0  0  0  0  0  0  0  0  0  0  0
    3.1075    1.3455   -5.0826 C   0  0  0  0  0  0  0  0  0  0  0  0
    4.7086   -1.2792   -1.0139 C   0  0  2  0  0  0  0  0  0  0  0  0
    3.9640   -2.0481   -0.0437 C   0  0  0  0  0  0  0  0  0  0  0  0
    3.2982   -1.4434    0.9675 C   0  0  0  0  0  0  0  0  0  0  0  0
    3.6033   -0.0036    1.2915 C   0  0  0  0  0  0  0  0  0  0  0  0
    4.9268    0.3153    0.9034 O   0  0  0  0  0  0  0  0  0  0  0  0
    5.5959   -0.5186   -0.0397 C   0  0  1  0  0  0  0  0  0  0  0  0
    6.4977   -1.6177    0.6993 C   0  0  1  0  0  0  0  0  0  0  0  0
    5.9177   -2.4136    1.9544 C   0  0  0  0  0  0  0  0  0  0  0  0
    4.9780   -3.6854    1.9654 C   0  0  0  0  0  0  0  0  0  0  0  0
    5.0196   -4.4162    3.1775 C   0  0  0  0  0  0  0  0  0  0  0  0
    4.2011   -5.5449    3.3654 C   0  0  0  0  0  0  0  0  0  0  0  0
    3.3328   -5.9665    2.3583 C   0  0  0  0  0  0  0  0  0  0  0  0
    3.2739   -5.2755    1.1337 C   0  0  0  0  0  0  0  0  0  0  0  0
    4.0890   -4.1485    0.9381 C   0  0  0  0  0  0  0  0  0  0  0  0
    9.2749   -3.0451   -0.6532 H   0  0  0  0  0  0  0  0  0  0  0  0
    8.8261   -3.0647    1.0395 H   0  0  0  0  0  0  0  0  0  0  0  0
    9.1671   -1.5365    0.2202 H   0  0  0  0  0  0  0  0  0  0  0  0
    7.5036   -4.2293   -1.1263 H   0  0  0  0  0  0  0  0  0  0  0  0
    6.8290   -4.3696    0.4003 H   0  0  0  0  0  0  0  0  0  0  0  0
    5.3657   -3.6549   -2.2153 H   0  0  0  0  0  0  0  0  0  0  0  0
    5.2004   -5.0446   -1.2510 H   0  0  0  0  0  0  0  0  0  0  0  0
    2.6763   -4.2479   -1.9493 H   0  0  0  0  0  0  0  0  0  0  0  0
    1.9228   -3.1787   -0.7980 H   0  0  0  0  0  0  0  0  0  0  0  0
    3.5666   -2.5235   -3.2804 H   0  0  0  0  0  0  0  0  0  0  0  0
    1.9782   -1.9313   -2.8274 H   0  0  0  0  0  0  0  0  0  0  0  0
    4.2606    0.9320   -2.5479 H   0  0  0  0  0  0  0  0  0  0  0  0
    4.8471   -0.3996   -3.5925 H   0  0  0  0  0  0  0  0  0  0  0  0
    1.8892    0.5379   -3.4970 H   0  0  0  0  0  0  0  0  0  0  0  0
    3.6646   -0.7590   -5.6224 H   0  0  0  0  0  0  0  0  0  0  0  0
    1.8232   -0.2531   -5.6030 H   0  0  0  0  0  0  0  0  0  0  0  0
    2.2674    1.9515   -5.4037 H   0  0  0  0  0  0  0  0  0  0  0  0
    4.0998    1.7178   -5.2937 H   0  0  0  0  0  0  0  0  0  0  0  0
    5.4501   -1.6994   -1.6965 H   0  0  0  0  0  0  0  0  0  0  0  0
    2.6853   -1.9815    1.6751 H   0  0  0  0  0  0  0  0  0  0  0  0
    2.8922    0.6570    0.8076 H   0  0  0  0  0  0  0  0  0  0  0  0
    3.5220    0.1796    2.3628 H   0  0  0  0  0  0  0  0  0  0  0  0
    6.2109    0.1408   -0.5895 H   0  0  0  0  0  0  0  0  0  0  0  0
    7.2158   -0.9557    1.1678 H   0  0  0  0  0  0  0  0  0  0  0  0
    6.7982   -2.8217    2.3940 H   0  0  0  0  0  0  0  0  0  0  0  0
    5.5333   -1.6840    2.6699 H   0  0  0  0  0  0  0  0  0  0  0  0
    5.6821   -4.1090    3.9712 H   0  0  0  0  0  0  0  0  0  0  0  0
    4.2478   -6.0795    4.3049 H   0  0  0  0  0  0  0  0  0  0  0  0
    2.7091   -6.8326    2.5061 H   0  0  0  0  0  0  0  0  0  0  0  0
    2.6275   -5.6072    0.3407 H   0  0  0  0  0  0  0  0  0  0  0  0
    2.8739   -0.4784   -1.3506 H   0  0  0  0  0  0  0  0  0  0  0  0
  1  2  1  0
  1 27  1  0
  1 28  1  0
  1 29  1  0
  2 19  1  0
  2  3  1  0
  3  4  1  0
  3 30  1  0
  3 31  1  0
  4  5  1  0
  4 32  1  0
  4 33  1  0
  5 14  1  0
  5 26  1  0
  5  6  1  6
  6  7  1  0
  6 34  1  0
  6 35  1  0
  7  8  1  0
  7 36  1  0
  7 37  1  0
  8  9  1  0
  8 13  1  0
  8 57  1  1
  9 10  1  0
  9 38  1  0
  9 39  1  0
 10 12  1  0
 10 11  1  0
 10 40  1  0
 11 12  1  0
 11 41  1  0
 11 42  1  0
 12 43  1  0
 12 44  1  0
 13 18  1  0
 13 14  1  0
 13 45  1  6
 14 15  2  0
 15 16  1  0
 15 46  1  0
 16 17  1  0
 16 47  1  0
 16 48  1  0
 17 18  1  0
 18 19  1  0
 18 49  1  6
 19 20  1  0
 19 50  1  1
 20 21  1  0
 20 51  1  0
 20 52  1  0
 21 26  2  0
 21 22  1  0
 22 23  2  0
 22 53  1  0
 23 24  1  0
 23 54  1  0
 24 25  2  0
 24 55  1  0
 25 26  1  0
 25 56  1  0
M  CHG  1   8   1
M  END
>  <i_m_ct_stereo_status>  (336) 
1

>  <s_m_source_file>  (336) 
/var/tmp/pbs.5076255.sched01/tmp2gi29psn/132an720x3a.sdf

>  <i_m_source_file_index>  (336) 
6

>  <i_lp_mmshare_version>  (336) 
48012

>  <i_f3d_flags>  (336) 
0

>  <s_epik_input>  (336) 
W2NIXTFbY0hdW2NIXVtjSF1jMmMxW0NIMl1bQ0BASF0oTihbQ0gzXSlbQ0gyXVtDSDJdMylbQ0BIXShPW0NIMl1bQ0hdNClbQ0BASF0oQz00W0NAXTIzNSlOKFtDSDJdW0NIMl01KVtDSDJdW0NIXTZbQ0gyXVtDSDJdNg==

>  <s_epik_cmdline>  (336) 
J2VwaWtfcHl0aG9uJywgJy1waHQnLCAnMi4wJywgJy1waCcsICc3LjAnLCAnLXRuJywgJzgnLCAnLW1hJywgJzIwMCcsICctaW1hZScsICc8aW5maWxlLm1hZT4nLCAnLW9tYWUnLCAnPG91dGZpbGUubWFlPic=

>  <r_epik_Ionization_Penalty>  (336) 
0.324563

>  <r_epik_Ionization_Penalty_Charging>  (336) 
0.181323

>  <r_epik_Ionization_Penalty_Neutral>  (336) 
0.143239

>  <r_epik_State_Penalty>  (336) 
1.05935

>  <r_epik_Charging_Adjusted_Penalty>  (336) 
1.24067

>  <i_epik_Tot_Q>  (336) 
1

>  <i_epik_Tot_abs_Q>  (336) 
1

>  <s_lp_Force_Field>  (336) 
OPLS3e

>  <r_lp_Energy>  (336) 
149.871

>  <b_lp_Chiralities_Consistent>  (336) 
1

>  <s_lp_Variant>  (336) 
97:0-2

>  <s_i_glide_gridfile>  (336) 
pfpi4k_grid

>  <i_i_glide_lignum>  (336) 
6

>  <i_i_glide_rotatable_bonds>  (336) 
2

>  <r_i_docking_score>  (336) 
-2.6333

>  <r_i_glide_ligand_efficiency>  (336) 
-0.101281

>  <r_i_glide_ligand_efficiency_sa>  (336) 
-0.300044

>  <r_i_glide_ligand_efficiency_ln>  (336) 
-0.618422

>  <r_i_glide_gscore>  (336) 
-2.6333

>  <r_i_glide_lipo>  (336) 
-0.575916

>  <r_i_glide_hbond>  (336) 
-0.223549

>  <r_i_glide_metal>  (336) 
-0

>  <r_i_glide_rewards>  (336) 
-1.01247

>  <r_i_glide_evdw>  (336) 
-8.84408

>  <r_i_glide_ecoul>  (336) 
-4.25324

>  <r_i_glide_erotb>  (336) 
0.308746

>  <r_i_glide_esite>  (336) 
-0.049925

>  <r_i_glide_emodel>  (336) 
-16.2862

>  <r_i_glide_energy>  (336) 
-13.0973

>  <r_i_glide_einternal>  (336) 
0.562129

>  <r_i_glide_intrahb_reward>  (336) 
-0

>  <i_i_glide_confnum>  (336) 
1

>  <i_i_glide_posenum>  (336) 
29

>  <r_i_glide_eff_state_penalty>  (336) 
0

>  <ligand_id>  (336) 
97

>  <original_smiles>  (336) 
CN1CCC23CCN(CC4CC4)C4C2=CCOC4C1Cc1ccccc13

>  <smiles>  (336) 
[H]C1=C2C34c5c([H])c([H])c([H])c([H])c5C([H])([H])C([H])(N(C([H])([H])[H])C([H])([H])C3([H])[H])C([H])(OC1([H])[H])C2([H])[N+]([H])(C([H])([H])C1([H])C([H])([H])C1([H])[H])C([H])([H])C4([H])[H]

$$$$
97:2:0
     RDKit          3D

 56 61  0  0  1  0  0  0  0  0999 V2000
    7.5009   -6.3257    1.0125 C   0  0  0  0  0  0  0  0  0  0  0  0
    6.3999   -5.4675    0.5674 N   0  0  0  0  0  0  0  0  0  0  0  0
    5.1127   -6.1119    0.8934 C   0  0  0  0  0  0  0  0  0  0  0  0
    3.7848   -5.5086    0.3587 C   0  0  0  0  0  0  0  0  0  0  0  0
    3.3464   -4.0539    0.7656 C   0  0  2  0  0  0  0  0  0  0  0  0
    2.2290   -3.6158   -0.2062 C   0  0  0  0  0  0  0  0  0  0  0  0
    2.8025   -3.3396   -1.6533 C   0  0  0  0  0  0  0  0  0  0  0  0
    4.1479   -2.6255   -1.7487 N   0  0  0  0  0  0  0  0  0  0  0  0
    4.6952   -2.6637   -3.1143 C   0  0  0  0  0  0  0  0  0  0  0  0
    4.2094   -1.5232   -4.0187 C   0  0  0  0  0  0  0  0  0  0  0  0
    3.9861   -0.1402   -3.4224 C   0  0  0  0  0  0  0  0  0  0  0  0
    2.8162   -0.9593   -3.8814 C   0  0  0  0  0  0  0  0  0  0  0  0
    5.0176   -3.2354   -0.7344 C   0  0  2  0  0  0  0  0  0  0  0  0
    4.2575   -2.9317    0.4698 C   0  0  0  0  0  0  0  0  0  0  0  0
    4.3963   -1.7281    1.0976 C   0  0  0  0  0  0  0  0  0  0  0  0
    5.5750   -0.8569    0.7293 C   0  0  0  0  0  0  0  0  0  0  0  0
    6.6885   -1.6337    0.2744 O   0  0  0  0  0  0  0  0  0  0  0  0
    6.4176   -2.9921   -0.1514 C   0  0  1  0  0  0  0  0  0  0  0  0
    6.5660   -4.0777    1.0507 C   0  0  1  0  0  0  0  0  0  0  0  0
    5.9661   -3.8420    2.5241 C   0  0  0  0  0  0  0  0  0  0  0  0
    4.4909   -4.0379    3.0536 C   0  0  0  0  0  0  0  0  0  0  0  0
    4.3673   -4.1072    4.4590 C   0  0  0  0  0  0  0  0  0  0  0  0
    3.1140   -4.2322    5.0774 C   0  0  0  0  0  0  0  0  0  0  0  0
    1.9449   -4.2827    4.3120 C   0  0  0  0  0  0  0  0  0  0  0  0
    2.0255   -4.2075    2.9200 C   0  0  0  0  0  0  0  0  0  0  0  0
    3.2810   -4.0837    2.2843 C   0  0  0  0  0  0  0  0  0  0  0  0
    7.4180   -7.3210    0.5771 H   0  0  0  0  0  0  0  0  0  0  0  0
    7.5074   -6.4400    2.0966 H   0  0  0  0  0  0  0  0  0  0  0  0
    8.4660   -5.9270    0.6975 H   0  0  0  0  0  0  0  0  0  0  0  0
    5.1384   -7.1119    0.4713 H   0  0  0  0  0  0  0  0  0  0  0  0
    5.0332   -6.2846    1.9638 H   0  0  0  0  0  0  0  0  0  0  0  0
    3.7512   -5.6601   -0.7165 H   0  0  0  0  0  0  0  0  0  0  0  0
    2.9890   -6.1653    0.7164 H   0  0  0  0  0  0  0  0  0  0  0  0
    1.4246   -4.3456   -0.2958 H   0  0  0  0  0  0  0  0  0  0  0  0
    1.8028   -2.6855    0.1732 H   0  0  0  0  0  0  0  0  0  0  0  0
    2.8928   -4.2533   -2.1594 H   0  0  0  0  0  0  0  0  0  0  0  0
    1.9756   -2.8758   -2.1352 H   0  0  0  0  0  0  0  0  0  0  0  0
    5.7915   -2.6338   -3.0999 H   0  0  0  0  0  0  0  0  0  0  0  0
    4.4468   -3.6131   -3.5821 H   0  0  0  0  0  0  0  0  0  0  0  0
    4.6258   -1.5251   -5.0032 H   0  0  0  0  0  0  0  0  0  0  0  0
    4.1256   -0.0630   -2.3433 H   0  0  0  0  0  0  0  0  0  0  0  0
    4.1913    0.7630   -3.9771 H   0  0  0  0  0  0  0  0  0  0  0  0
    2.3059   -0.6595   -4.8089 H   0  0  0  0  0  0  0  0  0  0  0  0
    2.2014   -1.1890   -3.0676 H   0  0  0  0  0  0  0  0  0  0  0  0
    5.1077   -4.2642   -1.0675 H   0  0  0  0  0  0  0  0  0  0  0  0
    3.7900   -1.4367    1.9352 H   0  0  0  0  0  0  0  0  0  0  0  0
    5.2784   -0.1492   -0.0399 H   0  0  0  0  0  0  0  0  0  0  0  0
    5.8812   -0.2733    1.6005 H   0  0  0  0  0  0  0  0  0  0  0  0
    7.1672   -3.2210   -0.9138 H   0  0  0  0  0  0  0  0  0  0  0  0
    7.6328   -3.9512    1.2416 H   0  0  0  0  0  0  0  0  0  0  0  0
    6.5324   -4.5403    3.1380 H   0  0  0  0  0  0  0  0  0  0  0  0
    6.1992   -2.8281    2.8375 H   0  0  0  0  0  0  0  0  0  0  0  0
    5.2505   -4.0598    5.0741 H   0  0  0  0  0  0  0  0  0  0  0  0
    3.0503   -4.2866    6.1538 H   0  0  0  0  0  0  0  0  0  0  0  0
    0.9803   -4.3814    4.7842 H   0  0  0  0  0  0  0  0  0  0  0  0
    1.1258   -4.2614    2.3360 H   0  0  0  0  0  0  0  0  0  0  0  0
  1  2  1  0
  1 27  1  0
  1 28  1  0
  1 29  1  0
  2 19  1  0
  2  3  1  0
  3  4  1  0
  3 30  1  0
  3 31  1  0
  4  5  1  0
  4 32  1  0
  4 33  1  0
  5 14  1  0
  5 26  1  0
  5  6  1  6
  6  7  1  0
  6 34  1  0
  6 35  1  0
  7  8  1  0
  7 36  1  0
  7 37  1  0
  8  9  1  0
  8 13  1  0
  9 10  1  0
  9 38  1  0
  9 39  1  0
 10 12  1  0
 10 11  1  0
 10 40  1  0
 11 12  1  0
 11 41  1  0
 11 42  1  0
 12 43  1  0
 12 44  1  0
 13 18  1  0
 13 14  1  0
 13 45  1  6
 14 15  2  0
 15 16  1  0
 15 46  1  0
 16 17  1  0
 16 47  1  0
 16 48  1  0
 17 18  1  0
 18 19  1  0
 18 49  1  6
 19 20  1  0
 19 50  1  1
 20 21  1  0
 20 51  1  0
 20 52  1  0
 21 26  2  0
 21 22  1  0
 22 23  2  0
 22 53  1  0
 23 24  1  0
 23 54  1  0
 24 25  2  0
 24 55  1  0
 25 26  1  0
 25 56  1  0
M  END
>  <i_m_ct_stereo_status>  (337) 
1

>  <s_m_source_file>  (337) 
/var/tmp/pbs.5076255.sched01/tmp2gi29psn/132an720x3a.sdf

>  <i_m_source_file_index>  (337) 
7

>  <i_lp_mmshare_version>  (337) 
48012

>  <i_f3d_flags>  (337) 
0

>  <s_epik_input>  (337) 
W2NIXTFbY0hdW2NIXVtjSF1jMmMxW0NIMl1bQ0BASF0oTihbQ0gzXSlbQ0gyXVtDSDJdMylbQ0BIXShPW0NIMl1bQ0hdNClbQ0BASF0oQz00W0NAXTIzNSlOKFtDSDJdW0NIMl01KVtDSDJdW0NIXTZbQ0gyXVtDSDJdNg==

>  <s_epik_cmdline>  (337) 
J2VwaWtfcHl0aG9uJywgJy1waHQnLCAnMi4wJywgJy1waCcsICc3LjAnLCAnLXRuJywgJzgnLCAnLW1hJywgJzIwMCcsICctaW1hZScsICc8aW5maWxlLm1hZT4nLCAnLW9tYWUnLCAnPG91dGZpbGUubWFlPic=

>  <r_epik_Ionization_Penalty>  (337) 
2.25195

>  <r_epik_Ionization_Penalty_Charging>  (337) 
0

>  <r_epik_Ionization_Penalty_Neutral>  (337) 
2.25195

>  <r_epik_State_Penalty>  (337) 
1.69781

>  <r_epik_Charging_Adjusted_Penalty>  (337) 
1.69781

>  <i_epik_Tot_Q>  (337) 
0

>  <i_epik_Tot_abs_Q>  (337) 
0

>  <s_lp_Force_Field>  (337) 
OPLS3e

>  <r_lp_Energy>  (337) 
152.732

>  <b_lp_Chiralities_Consistent>  (337) 
1

>  <s_lp_Variant>  (337) 
97:0-3

>  <s_i_glide_gridfile>  (337) 
pfpi4k_grid

>  <i_i_glide_lignum>  (337) 
7

>  <i_i_glide_rotatable_bonds>  (337) 
2

>  <r_i_docking_score>  (337) 
-2.86725

>  <r_i_glide_ligand_efficiency>  (337) 
-0.110279

>  <r_i_glide_ligand_efficiency_sa>  (337) 
-0.3267

>  <r_i_glide_ligand_efficiency_ln>  (337) 
-0.673364

>  <r_i_glide_gscore>  (337) 
-2.86725

>  <r_i_glide_lipo>  (337) 
-1.01599

>  <r_i_glide_hbond>  (337) 
0

>  <r_i_glide_metal>  (337) 
-0

>  <r_i_glide_rewards>  (337) 
-1.01934

>  <r_i_glide_evdw>  (337) 
-19.5156

>  <r_i_glide_ecoul>  (337) 
-1.10976

>  <r_i_glide_erotb>  (337) 
0.310327

>  <r_i_glide_esite>  (337) 
0

>  <r_i_glide_emodel>  (337) 
-18.3266

>  <r_i_glide_energy>  (337) 
-20.6254

>  <r_i_glide_einternal>  (337) 
8.70012

>  <r_i_glide_intrahb_reward>  (337) 
-0

>  <i_i_glide_confnum>  (337) 
1

>  <i_i_glide_posenum>  (337) 
16

>  <r_i_glide_eff_state_penalty>  (337) 
0

>  <ligand_id>  (337) 
97

>  <original_smiles>  (337) 
CN1CCC23CCN(CC4CC4)C4C2=CCOC4C1Cc1ccccc13

>  <smiles>  (337) 
[H]C1=C2C3([H])N(C([H])([H])C4([H])C([H])([H])C4([H])[H])C([H])([H])C([H])([H])C24c2c([H])c([H])c([H])c([H])c2C([H])([H])C([H])(N(C([H])([H])[H])C([H])([H])C4([H])[H])C3([H])OC1([H])[H]

$$$$
97:2:1
     RDKit          3D

 56 61  0  0  1  0  0  0  0  0999 V2000
    8.0809   -4.5028    1.0290 C   0  0  0  0  0  0  0  0  0  0  0  0
    6.7771   -4.0960    0.5126 N   0  0  0  0  0  0  0  0  0  0  0  0
    5.8592   -5.2554    0.4786 C   0  0  0  0  0  0  0  0  0  0  0  0
    4.4744   -5.1416   -0.2304 C   0  0  0  0  0  0  0  0  0  0  0  0
    3.3978   -4.1192    0.2977 C   0  0  2  0  0  0  0  0  0  0  0  0
    2.2932   -3.9390   -0.7851 C   0  0  0  0  0  0  0  0  0  0  0  0
    2.8557   -3.1207   -2.0389 C   0  0  0  0  0  0  0  0  0  0  0  0
    3.7963   -1.9577   -1.7709 N   0  0  0  0  0  0  0  0  0  0  0  0
    4.4892   -1.5346   -2.9865 C   0  0  0  0  0  0  0  0  0  0  0  0
    3.5817   -1.3941   -4.2046 C   0  0  0  0  0  0  0  0  0  0  0  0
    3.8127   -0.3472   -5.2660 C   0  0  0  0  0  0  0  0  0  0  0  0
    2.6607   -0.2089   -4.3397 C   0  0  0  0  0  0  0  0  0  0  0  0
    4.7145   -2.3786   -0.7011 C   0  0  2  0  0  0  0  0  0  0  0  0
    3.7543   -2.6856    0.3520 C   0  0  0  0  0  0  0  0  0  0  0  0
    3.2982   -1.7139    1.1696 C   0  0  0  0  0  0  0  0  0  0  0  0
    4.0085   -0.3778    1.1749 C   0  0  0  0  0  0  0  0  0  0  0  0
    5.3971   -0.5246    0.8484 O   0  0  0  0  0  0  0  0  0  0  0  0
    5.7944   -1.7298    0.1724 C   0  0  1  0  0  0  0  0  0  0  0  0
    6.2559   -2.8933    1.2018 C   0  0  1  0  0  0  0  0  0  0  0  0
    5.4608   -3.2225    2.5645 C   0  0  0  0  0  0  0  0  0  0  0  0
    4.1632   -4.1165    2.7494 C   0  0  0  0  0  0  0  0  0  0  0  0
    3.9213   -4.5454    4.0757 C   0  0  0  0  0  0  0  0  0  0  0  0
    2.7868   -5.3074    4.4123 C   0  0  0  0  0  0  0  0  0  0  0  0
    1.8567   -5.6658    3.4254 C   0  0  0  0  0  0  0  0  0  0  0  0
    2.0658   -5.2726    2.0932 C   0  0  0  0  0  0  0  0  0  0  0  0
    3.1915   -4.4972    1.7517 C   0  0  0  0  0  0  0  0  0  0  0  0
    8.4894   -5.3275    0.4444 H   0  0  0  0  0  0  0  0  0  0  0  0
    8.0156   -4.8308    2.0610 H   0  0  0  0  0  0  0  0  0  0  0  0
    8.8009   -3.6889    0.9751 H   0  0  0  0  0  0  0  0  0  0  0  0
    6.3748   -6.0571   -0.0518 H   0  0  0  0  0  0  0  0  0  0  0  0
    5.7371   -5.6581    1.4841 H   0  0  0  0  0  0  0  0  0  0  0  0
    4.6332   -5.0601   -1.3062 H   0  0  0  0  0  0  0  0  0  0  0  0
    4.0209   -6.1264   -0.1368 H   0  0  0  0  0  0  0  0  0  0  0  0
    1.8662   -4.8897   -1.1031 H   0  0  0  0  0  0  0  0  0  0  0  0
    1.4693   -3.3515   -0.3934 H   0  0  0  0  0  0  0  0  0  0  0  0
    3.3758   -3.8249   -2.6865 H   0  0  0  0  0  0  0  0  0  0  0  0
    1.9894   -2.7609   -2.5986 H   0  0  0  0  0  0  0  0  0  0  0  0
    4.9711   -0.5718   -2.7988 H   0  0  0  0  0  0  0  0  0  0  0  0
    5.2766   -2.2487   -3.2351 H   0  0  0  0  0  0  0  0  0  0  0  0
    3.1831   -2.3367   -4.5785 H   0  0  0  0  0  0  0  0  0  0  0  0
    4.6037    0.3844   -5.1220 H   0  0  0  0  0  0  0  0  0  0  0  0
    3.5951   -0.6306   -6.2926 H   0  0  0  0  0  0  0  0  0  0  0  0
    1.7061   -0.3548   -4.8148 H   0  0  0  0  0  0  0  0  0  0  0  0
    2.7162    0.5338   -3.5510 H   0  0  0  0  0  0  0  0  0  0  0  0
    5.2805   -3.1771   -1.1520 H   0  0  0  0  0  0  0  0  0  0  0  0
    2.5322   -1.8791    1.9115 H   0  0  0  0  0  0  0  0  0  0  0  0
    3.5214    0.2929    0.4766 H   0  0  0  0  0  0  0  0  0  0  0  0
    3.9264    0.0745    2.1656 H   0  0  0  0  0  0  0  0  0  0  0  0
    6.6423   -1.4596   -0.4561 H   0  0  0  0  0  0  0  0  0  0  0  0
    7.1240   -2.3787    1.6105 H   0  0  0  0  0  0  0  0  0  0  0  0
    6.1883   -3.7381    3.1872 H   0  0  0  0  0  0  0  0  0  0  0  0
    5.2747   -2.2828    3.0826 H   0  0  0  0  0  0  0  0  0  0  0  0
    4.6205   -4.2828    4.8534 H   0  0  0  0  0  0  0  0  0  0  0  0
    2.6336   -5.6180    5.4349 H   0  0  0  0  0  0  0  0  0  0  0  0
    0.9903   -6.2557    3.6833 H   0  0  0  0  0  0  0  0  0  0  0  0
    1.3717   -5.5735    1.3298 H   0  0  0  0  0  0  0  0  0  0  0  0
  1  2  1  0
  1 27  1  0
  1 28  1  0
  1 29  1  0
  2 19  1  0
  2  3  1  0
  3  4  1  0
  3 30  1  0
  3 31  1  0
  4  5  1  0
  4 32  1  0
  4 33  1  0
  5 14  1  0
  5 26  1  0
  5  6  1  6
  6  7  1  0
  6 34  1  0
  6 35  1  0
  7  8  1  0
  7 36  1  0
  7 37  1  0
  8  9  1  0
  8 13  1  0
  9 10  1  0
  9 38  1  0
  9 39  1  0
 10 12  1  0
 10 11  1  0
 10 40  1  0
 11 12  1  0
 11 41  1  0
 11 42  1  0
 12 43  1  0
 12 44  1  0
 13 18  1  0
 13 14  1  0
 13 45  1  6
 14 15  2  0
 15 16  1  0
 15 46  1  0
 16 17  1  0
 16 47  1  0
 16 48  1  0
 17 18  1  0
 18 19  1  0
 18 49  1  6
 19 20  1  0
 19 50  1  1
 20 21  1  0
 20 51  1  0
 20 52  1  0
 21 26  2  0
 21 22  1  0
 22 23  2  0
 22 53  1  0
 23 24  1  0
 23 54  1  0
 24 25  2  0
 24 55  1  0
 25 26  1  0
 25 56  1  0
M  END
>  <i_m_ct_stereo_status>  (338) 
1

>  <s_m_source_file>  (338) 
/var/tmp/pbs.5076255.sched01/tmp2gi29psn/132an720x3a.sdf

>  <i_m_source_file_index>  (338) 
7

>  <i_lp_mmshare_version>  (338) 
48012

>  <i_f3d_flags>  (338) 
0

>  <s_epik_input>  (338) 
W2NIXTFbY0hdW2NIXVtjSF1jMmMxW0NIMl1bQ0BASF0oTihbQ0gzXSlbQ0gyXVtDSDJdMylbQ0BIXShPW0NIMl1bQ0hdNClbQ0BASF0oQz00W0NAXTIzNSlOKFtDSDJdW0NIMl01KVtDSDJdW0NIXTZbQ0gyXVtDSDJdNg==

>  <s_epik_cmdline>  (338) 
J2VwaWtfcHl0aG9uJywgJy1waHQnLCAnMi4wJywgJy1waCcsICc3LjAnLCAnLXRuJywgJzgnLCAnLW1hJywgJzIwMCcsICctaW1hZScsICc8aW5maWxlLm1hZT4nLCAnLW9tYWUnLCAnPG91dGZpbGUubWFlPic=

>  <r_epik_Ionization_Penalty>  (338) 
2.25195

>  <r_epik_Ionization_Penalty_Charging>  (338) 
0

>  <r_epik_Ionization_Penalty_Neutral>  (338) 
2.25195

>  <r_epik_State_Penalty>  (338) 
1.69781

>  <r_epik_Charging_Adjusted_Penalty>  (338) 
1.69781

>  <i_epik_Tot_Q>  (338) 
0

>  <i_epik_Tot_abs_Q>  (338) 
0

>  <s_lp_Force_Field>  (338) 
OPLS3e

>  <r_lp_Energy>  (338) 
152.732

>  <b_lp_Chiralities_Consistent>  (338) 
1

>  <s_lp_Variant>  (338) 
97:0-3

>  <s_i_glide_gridfile>  (338) 
pfpi4k_grid

>  <i_i_glide_lignum>  (338) 
7

>  <i_i_glide_rotatable_bonds>  (338) 
2

>  <r_i_docking_score>  (338) 
-2.49116

>  <r_i_glide_ligand_efficiency>  (338) 
-0.095814

>  <r_i_glide_ligand_efficiency_sa>  (338) 
-0.283849

>  <r_i_glide_ligand_efficiency_ln>  (338) 
-0.585042

>  <r_i_glide_gscore>  (338) 
-2.49116

>  <r_i_glide_lipo>  (338) 
-0.728158

>  <r_i_glide_hbond>  (338) 
0

>  <r_i_glide_metal>  (338) 
-0

>  <r_i_glide_rewards>  (338) 
-1.061

>  <r_i_glide_evdw>  (338) 
-24.0615

>  <r_i_glide_ecoul>  (338) 
1.27164

>  <r_i_glide_erotb>  (338) 
0.310327

>  <r_i_glide_esite>  (338) 
0

>  <r_i_glide_emodel>  (338) 
-23.7033

>  <r_i_glide_energy>  (338) 
-22.7898

>  <r_i_glide_einternal>  (338) 
3.2526

>  <r_i_glide_intrahb_reward>  (338) 
-0

>  <i_i_glide_confnum>  (338) 
2

>  <i_i_glide_posenum>  (338) 
8

>  <r_i_glide_eff_state_penalty>  (338) 
0

>  <ligand_id>  (338) 
97

>  <original_smiles>  (338) 
CN1CCC23CCN(CC4CC4)C4C2=CCOC4C1Cc1ccccc13

>  <smiles>  (338) 
[H]C1=C2C3([H])N(C([H])([H])C4([H])C([H])([H])C4([H])[H])C([H])([H])C([H])([H])C24c2c([H])c([H])c([H])c([H])c2C([H])([H])C([H])(N(C([H])([H])[H])C([H])([H])C4([H])[H])C3([H])OC1([H])[H]

$$$$
97:2:2
     RDKit          3D

 56 61  0  0  1  0  0  0  0  0999 V2000
    8.1751   -3.5974    0.8754 C   0  0  0  0  0  0  0  0  0  0  0  0
    6.8210   -3.3263    0.4051 N   0  0  0  0  0  0  0  0  0  0  0  0
    6.0564   -4.5881    0.2974 C   0  0  0  0  0  0  0  0  0  0  0  0
    4.6706   -4.6156   -0.4177 C   0  0  0  0  0  0  0  0  0  0  0  0
    3.4753   -3.7763    0.1618 C   0  0  2  0  0  0  0  0  0  0  0  0
    2.3591   -3.6527   -0.9255 C   0  0  0  0  0  0  0  0  0  0  0  0
    2.8099   -2.6664   -2.1150 C   0  0  0  0  0  0  0  0  0  0  0  0
    3.6159   -1.4330   -1.7335 N   0  0  0  0  0  0  0  0  0  0  0  0
    4.2341   -0.8240   -2.9001 C   0  0  0  0  0  0  0  0  0  0  0  0
    3.2638    0.0003   -3.7251 C   0  0  0  0  0  0  0  0  0  0  0  0
    2.9323   -0.3627   -5.1397 C   0  0  0  0  0  0  0  0  0  0  0  0
    3.7375    0.8643   -4.8772 C   0  0  0  0  0  0  0  0  0  0  0  0
    4.5798   -1.8293   -0.7048 C   0  0  2  0  0  0  0  0  0  0  0  0
    3.6551   -2.3215    0.3119 C   0  0  0  0  0  0  0  0  0  0  0  0
    3.0752   -1.4760    1.1954 C   0  0  0  0  0  0  0  0  0  0  0  0
    3.6013   -0.0655    1.3017 C   0  0  0  0  0  0  0  0  0  0  0  0
    4.9952   -0.0081    0.9762 O   0  0  0  0  0  0  0  0  0  0  0  0
    5.5521   -1.0977    0.2247 C   0  0  1  0  0  0  0  0  0  0  0  0
    6.1669   -2.2450    1.1782 C   0  0  1  0  0  0  0  0  0  0  0  0
    5.4089   -2.7576    2.5048 C   0  0  0  0  0  0  0  0  0  0  0  0
    4.2349   -3.8254    2.6228 C   0  0  0  0  0  0  0  0  0  0  0  0
    4.0483   -4.3641    3.9117 C   0  0  0  0  0  0  0  0  0  0  0  0
    3.0224   -5.2871    4.1914 C   0  0  0  0  0  0  0  0  0  0  0  0
    2.1443   -5.6968    3.1759 C   0  0  0  0  0  0  0  0  0  0  0  0
    2.2975   -5.1930    1.8738 C   0  0  0  0  0  0  0  0  0  0  0  0
    3.3160   -4.2638    1.5903 C   0  0  0  0  0  0  0  0  0  0  0  0
    8.6749   -4.3294    0.2416 H   0  0  0  0  0  0  0  0  0  0  0  0
    8.1595   -4.0044    1.8741 H   0  0  0  0  0  0  0  0  0  0  0  0
    8.7858   -2.6971    0.8595 H   0  0  0  0  0  0  0  0  0  0  0  0
    6.6646   -5.2836   -0.2810 H   0  0  0  0  0  0  0  0  0  0  0  0
    5.9884   -5.0582    1.2779 H   0  0  0  0  0  0  0  0  0  0  0  0
    4.8165   -4.4513   -1.4857 H   0  0  0  0  0  0  0  0  0  0  0  0
    4.3496   -5.6550   -0.3836 H   0  0  0  0  0  0  0  0  0  0  0  0
    2.0635   -4.6310   -1.2987 H   0  0  0  0  0  0  0  0  0  0  0  0
    1.4607   -3.2206   -0.4958 H   0  0  0  0  0  0  0  0  0  0  0  0
    3.4129   -3.2591   -2.7980 H   0  0  0  0  0  0  0  0  0  0  0  0
    1.9259   -2.3634   -2.6776 H   0  0  0  0  0  0  0  0  0  0  0  0
    5.0204   -0.1409   -2.5838 H   0  0  0  0  0  0  0  0  0  0  0  0
    4.6921   -1.6021   -3.5191 H   0  0  0  0  0  0  0  0  0  0  0  0
    2.4211    0.3685   -3.1560 H   0  0  0  0  0  0  0  0  0  0  0  0
    3.4325   -1.2400   -5.5236 H   0  0  0  0  0  0  0  0  0  0  0  0
    1.8981   -0.2235   -5.4444 H   0  0  0  0  0  0  0  0  0  0  0  0
    3.2459    1.8228   -5.0644 H   0  0  0  0  0  0  0  0  0  0  0  0
    4.7845    0.8345   -5.1357 H   0  0  0  0  0  0  0  0  0  0  0  0
    5.2422   -2.5106   -1.2155 H   0  0  0  0  0  0  0  0  0  0  0  0
    2.3298   -1.7810    1.9109 H   0  0  0  0  0  0  0  0  0  0  0  0
    3.0226    0.5660    0.6351 H   0  0  0  0  0  0  0  0  0  0  0  0
    3.4615    0.3120    2.3186 H   0  0  0  0  0  0  0  0  0  0  0  0
    6.3490   -0.6627   -0.3677 H   0  0  0  0  0  0  0  0  0  0  0  0
    6.9639   -1.6496    1.6238 H   0  0  0  0  0  0  0  0  0  0  0  0
    6.1966   -3.1981    3.1101 H   0  0  0  0  0  0  0  0  0  0  0  0
    5.0947   -1.8814    3.0753 H   0  0  0  0  0  0  0  0  0  0  0  0
    4.7084   -4.0648    4.7119 H   0  0  0  0  0  0  0  0  0  0  0  0
    2.9132   -5.6822    5.1923 H   0  0  0  0  0  0  0  0  0  0  0  0
    1.3638   -6.4145    3.3907 H   0  0  0  0  0  0  0  0  0  0  0  0
    1.6432   -5.5322    1.0862 H   0  0  0  0  0  0  0  0  0  0  0  0
  1  2  1  0
  1 27  1  0
  1 28  1  0
  1 29  1  0
  2 19  1  0
  2  3  1  0
  3  4  1  0
  3 30  1  0
  3 31  1  0
  4  5  1  0
  4 32  1  0
  4 33  1  0
  5 14  1  0
  5 26  1  0
  5  6  1  6
  6  7  1  0
  6 34  1  0
  6 35  1  0
  7  8  1  0
  7 36  1  0
  7 37  1  0
  8  9  1  0
  8 13  1  0
  9 10  1  0
  9 38  1  0
  9 39  1  0
 10 12  1  0
 10 11  1  0
 10 40  1  0
 11 12  1  0
 11 41  1  0
 11 42  1  0
 12 43  1  0
 12 44  1  0
 13 18  1  0
 13 14  1  0
 13 45  1  6
 14 15  2  0
 15 16  1  0
 15 46  1  0
 16 17  1  0
 16 47  1  0
 16 48  1  0
 17 18  1  0
 18 19  1  0
 18 49  1  6
 19 20  1  0
 19 50  1  1
 20 21  1  0
 20 51  1  0
 20 52  1  0
 21 26  2  0
 21 22  1  0
 22 23  2  0
 22 53  1  0
 23 24  1  0
 23 54  1  0
 24 25  2  0
 24 55  1  0
 25 26  1  0
 25 56  1  0
M  END
>  <i_m_ct_stereo_status>  (339) 
1

>  <s_m_source_file>  (339) 
/var/tmp/pbs.5076255.sched01/tmp2gi29psn/132an720x3a.sdf

>  <i_m_source_file_index>  (339) 
7

>  <i_lp_mmshare_version>  (339) 
48012

>  <i_f3d_flags>  (339) 
0

>  <s_epik_input>  (339) 
W2NIXTFbY0hdW2NIXVtjSF1jMmMxW0NIMl1bQ0BASF0oTihbQ0gzXSlbQ0gyXVtDSDJdMylbQ0BIXShPW0NIMl1bQ0hdNClbQ0BASF0oQz00W0NAXTIzNSlOKFtDSDJdW0NIMl01KVtDSDJdW0NIXTZbQ0gyXVtDSDJdNg==

>  <s_epik_cmdline>  (339) 
J2VwaWtfcHl0aG9uJywgJy1waHQnLCAnMi4wJywgJy1waCcsICc3LjAnLCAnLXRuJywgJzgnLCAnLW1hJywgJzIwMCcsICctaW1hZScsICc8aW5maWxlLm1hZT4nLCAnLW9tYWUnLCAnPG91dGZpbGUubWFlPic=

>  <r_epik_Ionization_Penalty>  (339) 
2.25195

>  <r_epik_Ionization_Penalty_Charging>  (339) 
0

>  <r_epik_Ionization_Penalty_Neutral>  (339) 
2.25195

>  <r_epik_State_Penalty>  (339) 
1.69781

>  <r_epik_Charging_Adjusted_Penalty>  (339) 
1.69781

>  <i_epik_Tot_Q>  (339) 
0

>  <i_epik_Tot_abs_Q>  (339) 
0

>  <s_lp_Force_Field>  (339) 
OPLS3e

>  <r_lp_Energy>  (339) 
152.732

>  <b_lp_Chiralities_Consistent>  (339) 
1

>  <s_lp_Variant>  (339) 
97:0-3

>  <s_i_glide_gridfile>  (339) 
pfpi4k_grid

>  <i_i_glide_lignum>  (339) 
7

>  <i_i_glide_rotatable_bonds>  (339) 
2

>  <r_i_docking_score>  (339) 
-2.38294

>  <r_i_glide_ligand_efficiency>  (339) 
-0.0916515

>  <r_i_glide_ligand_efficiency_sa>  (339) 
-0.271517

>  <r_i_glide_ligand_efficiency_ln>  (339) 
-0.559625

>  <r_i_glide_gscore>  (339) 
-2.38294

>  <r_i_glide_lipo>  (339) 
-0.750318

>  <r_i_glide_hbond>  (339) 
-0.0991718

>  <r_i_glide_metal>  (339) 
-0

>  <r_i_glide_rewards>  (339) 
-1.01934

>  <r_i_glide_evdw>  (339) 
-21.5054

>  <r_i_glide_ecoul>  (339) 
1.67223

>  <r_i_glide_erotb>  (339) 
0.310327

>  <r_i_glide_esite>  (339) 
0

>  <r_i_glide_emodel>  (339) 
-21.5842

>  <r_i_glide_energy>  (339) 
-19.8332

>  <r_i_glide_einternal>  (339) 
1.50488

>  <r_i_glide_intrahb_reward>  (339) 
-0

>  <i_i_glide_confnum>  (339) 
2

>  <i_i_glide_posenum>  (339) 
15

>  <r_i_glide_eff_state_penalty>  (339) 
0

>  <ligand_id>  (339) 
97

>  <original_smiles>  (339) 
CN1CCC23CCN(CC4CC4)C4C2=CCOC4C1Cc1ccccc13

>  <smiles>  (339) 
[H]C1=C2C3([H])N(C([H])([H])C4([H])C([H])([H])C4([H])[H])C([H])([H])C([H])([H])C24c2c([H])c([H])c([H])c([H])c2C([H])([H])C([H])(N(C([H])([H])[H])C([H])([H])C4([H])[H])C3([H])OC1([H])[H]

$$$$
97:3:0
     RDKit          3D

 58 63  0  0  1  0  0  0  0  0999 V2000
    4.3263   -0.5239    3.5644 C   0  0  0  0  0  0  0  0  0  0  0  0
    4.6186   -1.1287    2.2429 N   0  0  1  0  0  0  0  0  0  0  0  0
    6.0791   -1.4032    2.1023 C   0  0  0  0  0  0  0  0  0  0  0  0
    6.6494   -1.7502    0.6893 C   0  0  0  0  0  0  0  0  0  0  0  0
    6.1838   -3.0655   -0.0313 C   0  0  2  0  0  0  0  0  0  0  0  0
    6.5804   -3.0163   -1.5452 C   0  0  0  0  0  0  0  0  0  0  0  0
    5.6499   -2.0245   -2.4092 C   0  0  0  0  0  0  0  0  0  0  0  0
    4.1803   -1.9262   -2.0168 N   0  0  2  0  0  0  0  0  0  0  0  0
    3.4885   -0.7733   -2.6296 C   0  0  0  0  0  0  0  0  0  0  0  0
    3.0630   -1.0136   -4.0707 C   0  0  0  0  0  0  0  0  0  0  0  0
    3.6501   -0.1840   -5.1940 C   0  0  0  0  0  0  0  0  0  0  0  0
    2.2257    0.0284   -4.7959 C   0  0  0  0  0  0  0  0  0  0  0  0
    4.1341   -1.9392   -0.5350 C   0  0  2  0  0  0  0  0  0  0  0  0
    4.7602   -3.2355   -0.3119 C   0  0  0  0  0  0  0  0  0  0  0  0
    4.0565   -4.3731   -0.4699 C   0  0  0  0  0  0  0  0  0  0  0  0
    2.5576   -4.2703   -0.5487 C   0  0  0  0  0  0  0  0  0  0  0  0
    2.1072   -3.1373    0.1852 O   0  0  0  0  0  0  0  0  0  0  0  0
    3.0008   -2.0674    0.4702 C   0  0  1  0  0  0  0  0  0  0  0  0
    3.6891   -2.2658    1.9172 C   0  0  1  0  0  0  0  0  0  0  0  0
    4.2115   -3.6976    2.4388 C   0  0  0  0  0  0  0  0  0  0  0  0
    5.5854   -4.4131    2.0971 C   0  0  0  0  0  0  0  0  0  0  0  0
    5.9509   -5.4386    2.9984 C   0  0  0  0  0  0  0  0  0  0  0  0
    7.1224   -6.1983    2.8197 C   0  0  0  0  0  0  0  0  0  0  0  0
    7.9615   -5.9602    1.7224 C   0  0  0  0  0  0  0  0  0  0  0  0
    7.6378   -4.9540    0.7994 C   0  0  0  0  0  0  0  0  0  0  0  0
    6.4691   -4.1841    0.9679 C   0  0  0  0  0  0  0  0  0  0  0  0
    4.5104   -1.2287    4.3749 H   0  0  0  0  0  0  0  0  0  0  0  0
    3.2926   -0.1877    3.6285 H   0  0  0  0  0  0  0  0  0  0  0  0
    4.9545    0.3510    3.7341 H   0  0  0  0  0  0  0  0  0  0  0  0
    6.6012   -0.4948    2.3982 H   0  0  0  0  0  0  0  0  0  0  0  0
    6.3663   -2.1346    2.8458 H   0  0  0  0  0  0  0  0  0  0  0  0
    6.6071   -0.8727    0.0423 H   0  0  0  0  0  0  0  0  0  0  0  0
    7.7209   -1.8753    0.8336 H   0  0  0  0  0  0  0  0  0  0  0  0
    7.6416   -2.7880   -1.6702 H   0  0  0  0  0  0  0  0  0  0  0  0
    6.4238   -3.9926   -1.9927 H   0  0  0  0  0  0  0  0  0  0  0  0
    6.0682   -1.0305   -2.2967 H   0  0  0  0  0  0  0  0  0  0  0  0
    5.7077   -2.2971   -3.4616 H   0  0  0  0  0  0  0  0  0  0  0  0
    2.5824   -0.6211   -2.0616 H   0  0  0  0  0  0  0  0  0  0  0  0
    4.0820    0.1427   -2.5649 H   0  0  0  0  0  0  0  0  0  0  0  0
    2.7719   -2.0440   -4.2908 H   0  0  0  0  0  0  0  0  0  0  0  0
    4.3569    0.6035   -4.9338 H   0  0  0  0  0  0  0  0  0  0  0  0
    3.8031   -0.6502   -6.1665 H   0  0  0  0  0  0  0  0  0  0  0  0
    1.4603   -0.2602   -5.5109 H   0  0  0  0  0  0  0  0  0  0  0  0
    1.9851    0.9486   -4.3015 H   0  0  0  0  0  0  0  0  0  0  0  0
    4.6134   -1.0081   -0.2635 H   0  0  0  0  0  0  0  0  0  0  0  0
    4.4883   -5.3683   -0.4209 H   0  0  0  0  0  0  0  0  0  0  0  0
    2.2127   -4.2119   -1.5821 H   0  0  0  0  0  0  0  0  0  0  0  0
    2.1049   -5.1555   -0.1010 H   0  0  0  0  0  0  0  0  0  0  0  0
    2.4302   -1.1440    0.4953 H   0  0  0  0  0  0  0  0  0  0  0  0
    2.8120   -2.1251    2.5482 H   0  0  0  0  0  0  0  0  0  0  0  0
    4.2026   -3.6262    3.5284 H   0  0  0  0  0  0  0  0  0  0  0  0
    3.4280   -4.4271    2.2306 H   0  0  0  0  0  0  0  0  0  0  0  0
    5.3228   -5.6500    3.8494 H   0  0  0  0  0  0  0  0  0  0  0  0
    7.3732   -6.9692    3.5328 H   0  0  0  0  0  0  0  0  0  0  0  0
    8.8577   -6.5481    1.5924 H   0  0  0  0  0  0  0  0  0  0  0  0
    8.2883   -4.7694   -0.0416 H   0  0  0  0  0  0  0  0  0  0  0  0
    4.3976   -0.3959    1.5806 H   0  0  0  0  0  0  0  0  0  0  0  0
    3.7089   -2.7676   -2.3296 H   0  0  0  0  0  0  0  0  0  0  0  0
  1  2  1  0
  1 27  1  0
  1 28  1  0
  1 29  1  0
  2 19  1  0
  2  3  1  0
  2 57  1  6
  3  4  1  0
  3 30  1  0
  3 31  1  0
  4  5  1  0
  4 32  1  0
  4 33  1  0
  5 14  1  0
  5 26  1  0
  5  6  1  6
  6  7  1  0
  6 34  1  0
  6 35  1  0
  7  8  1  0
  7 36  1  0
  7 37  1  0
  8  9  1  0
  8 13  1  0
  8 58  1  6
  9 10  1  0
  9 38  1  0
  9 39  1  0
 10 12  1  0
 10 11  1  0
 10 40  1  0
 11 12  1  0
 11 41  1  0
 11 42  1  0
 12 43  1  0
 12 44  1  0
 13 18  1  0
 13 14  1  0
 13 45  1  1
 14 15  2  0
 15 16  1  0
 15 46  1  0
 16 17  1  0
 16 47  1  0
 16 48  1  0
 17 18  1  0
 18 19  1  0
 18 49  1  1
 19 20  1  0
 19 50  1  1
 20 21  1  0
 20 51  1  0
 20 52  1  0
 21 26  2  0
 21 22  1  0
 22 23  2  0
 22 53  1  0
 23 24  1  0
 23 54  1  0
 24 25  2  0
 24 55  1  0
 25 26  1  0
 25 56  1  0
M  CHG  2   2   1   8   1
M  END
>  <i_m_ct_stereo_status>  (340) 
1

>  <s_m_source_file>  (340) 
/var/tmp/pbs.5076255.sched01/tmp2gi29psn/132an720x3a.sdf

>  <i_m_source_file_index>  (340) 
8

>  <i_lp_mmshare_version>  (340) 
48012

>  <i_f3d_flags>  (340) 
0

>  <s_epik_input>  (340) 
W2NIXTFbY0hdW2NIXVtjSF1jMmMxW0NIMl1bQ0BASF0oTihbQ0gzXSlbQ0gyXVtDSDJdMylbQ0BIXShPW0NIMl1bQ0hdNClbQ0BASF0oQz00W0NAXTIzNSlOKFtDSDJdW0NIMl01KVtDSDJdW0NIXTZbQ0gyXVtDSDJdNg==

>  <s_epik_cmdline>  (340) 
J2VwaWtfcHl0aG9uJywgJy1waHQnLCAnMi4wJywgJy1waCcsICc3LjAnLCAnLXRuJywgJzgnLCAnLW1hJywgJzIwMCcsICctaW1hZScsICc8aW5maWxlLm1hZT4nLCAnLW9tYWUnLCAnPG91dGZpbGUubWFlPic=

>  <r_epik_Ionization_Penalty>  (340) 
2.55937

>  <r_epik_Ionization_Penalty_Charging>  (340) 
2.55937

>  <r_epik_Ionization_Penalty_Neutral>  (340) 
0

>  <r_epik_State_Penalty>  (340) 
1.88994

>  <r_epik_Charging_Adjusted_Penalty>  (340) 
4.44931

>  <i_epik_Tot_Q>  (340) 
2

>  <i_epik_Tot_abs_Q>  (340) 
2

>  <s_lp_Force_Field>  (340) 
OPLS3e

>  <r_lp_Energy>  (340) 
159.47

>  <b_lp_Chiralities_Consistent>  (340) 
1

>  <s_lp_Variant>  (340) 
97:0-4

>  <s_i_glide_gridfile>  (340) 
pfpi4k_grid

>  <i_i_glide_lignum>  (340) 
8

>  <i_i_glide_rotatable_bonds>  (340) 
2

>  <r_i_docking_score>  (340) 
-3.40996

>  <r_i_glide_ligand_efficiency>  (340) 
-0.131152

>  <r_i_glide_ligand_efficiency_sa>  (340) 
-0.388538

>  <r_i_glide_ligand_efficiency_ln>  (340) 
-0.800818

>  <r_i_glide_gscore>  (340) 
-3.40996

>  <r_i_glide_lipo>  (340) 
-0.897148

>  <r_i_glide_hbond>  (340) 
-0.0230914

>  <r_i_glide_metal>  (340) 
-0

>  <r_i_glide_rewards>  (340) 
-1.00559

>  <r_i_glide_evdw>  (340) 
-17.7119

>  <r_i_glide_ecoul>  (340) 
-5.9064

>  <r_i_glide_erotb>  (340) 
0.307178

>  <r_i_glide_esite>  (340) 
-0.019748

>  <r_i_glide_emodel>  (340) 
-28.1674

>  <r_i_glide_energy>  (340) 
-23.6183

>  <r_i_glide_einternal>  (340) 
0.763452

>  <r_i_glide_intrahb_reward>  (340) 
-0

>  <i_i_glide_confnum>  (340) 
1

>  <i_i_glide_posenum>  (340) 
3

>  <r_i_glide_eff_state_penalty>  (340) 
0

>  <ligand_id>  (340) 
97

>  <original_smiles>  (340) 
CN1CCC23CCN(CC4CC4)C4C2=CCOC4C1Cc1ccccc13

>  <smiles>  (340) 
[H]C1=C2C34c5c([H])c([H])c([H])c([H])c5C([H])([H])C([H])(C([H])(OC1([H])[H])C2([H])[N+]([H])(C([H])([H])C1([H])C([H])([H])C1([H])[H])C([H])([H])C3([H])[H])[N+]([H])(C([H])([H])[H])C([H])([H])C4([H])[H]

$$$$
97:3:1
     RDKit          3D

 58 63  0  0  1  0  0  0  0  0999 V2000
    7.7648   -4.3319    1.2103 C   0  0  0  0  0  0  0  0  0  0  0  0
    6.4323   -4.0059    0.6467 N   0  0  1  0  0  0  0  0  0  0  0  0
    5.6137   -5.2500    0.4966 C   0  0  0  0  0  0  0  0  0  0  0  0
    4.3268   -5.1730   -0.3756 C   0  0  0  0  0  0  0  0  0  0  0  0
    3.1259   -4.2624    0.0840 C   0  0  2  0  0  0  0  0  0  0  0  0
    2.0914   -4.0657   -1.0743 C   0  0  0  0  0  0  0  0  0  0  0  0
    2.6482   -3.1146   -2.2438 C   0  0  0  0  0  0  0  0  0  0  0  0
    3.4861   -1.9072   -1.7956 N   0  0  2  0  0  0  0  0  0  0  0  0
    4.2132   -1.2021   -2.8881 C   0  0  0  0  0  0  0  0  0  0  0  0
    3.5114   -1.2568   -4.2431 C   0  0  0  0  0  0  0  0  0  0  0  0
    3.8098   -0.2452   -5.3225 C   0  0  0  0  0  0  0  0  0  0  0  0
    2.4872   -0.2222   -4.6205 C   0  0  0  0  0  0  0  0  0  0  0  0
    4.3791   -2.3716   -0.6935 C   0  0  2  0  0  0  0  0  0  0  0  0
    3.3669   -2.8226    0.2449 C   0  0  0  0  0  0  0  0  0  0  0  0
    2.7382   -1.9355    1.0446 C   0  0  0  0  0  0  0  0  0  0  0  0
    3.3094   -0.5457    1.1755 C   0  0  0  0  0  0  0  0  0  0  0  0
    4.7277   -0.5350    0.9603 O   0  0  0  0  0  0  0  0  0  0  0  0
    5.3101   -1.6716    0.3025 C   0  0  1  0  0  0  0  0  0  0  0  0
    5.7767   -2.8366    1.3443 C   0  0  1  0  0  0  0  0  0  0  0  0
    4.8748   -3.2914    2.6010 C   0  0  0  0  0  0  0  0  0  0  0  0
    3.6581   -4.3094    2.6084 C   0  0  0  0  0  0  0  0  0  0  0  0
    3.3278   -4.8203    3.8829 C   0  0  0  0  0  0  0  0  0  0  0  0
    2.2466   -5.6991    4.0706 C   0  0  0  0  0  0  0  0  0  0  0  0
    1.4610   -6.1009    2.9810 C   0  0  0  0  0  0  0  0  0  0  0  0
    1.7621   -5.6333    1.6951 C   0  0  0  0  0  0  0  0  0  0  0  0
    2.8258   -4.7309    1.4998 C   0  0  0  0  0  0  0  0  0  0  0  0
    7.6744   -4.7085    2.2289 H   0  0  0  0  0  0  0  0  0  0  0  0
    8.4264   -3.4636    1.2101 H   0  0  0  0  0  0  0  0  0  0  0  0
    8.2570   -5.1096    0.6220 H   0  0  0  0  0  0  0  0  0  0  0  0
    6.2490   -5.9663   -0.0207 H   0  0  0  0  0  0  0  0  0  0  0  0
    5.4256   -5.7310    1.4576 H   0  0  0  0  0  0  0  0  0  0  0  0
    4.6141   -5.0377   -1.4219 H   0  0  0  0  0  0  0  0  0  0  0  0
    3.9324   -6.1866   -0.3655 H   0  0  0  0  0  0  0  0  0  0  0  0
    1.7127   -5.0079   -1.4604 H   0  0  0  0  0  0  0  0  0  0  0  0
    1.2042   -3.5734   -0.7158 H   0  0  0  0  0  0  0  0  0  0  0  0
    3.2604   -3.7356   -2.8980 H   0  0  0  0  0  0  0  0  0  0  0  0
    1.7986   -2.7570   -2.8280 H   0  0  0  0  0  0  0  0  0  0  0  0
    4.3618   -0.1586   -2.5961 H   0  0  0  0  0  0  0  0  0  0  0  0
    5.2033   -1.6361   -3.0303 H   0  0  0  0  0  0  0  0  0  0  0  0
    3.3594   -2.2607   -4.6392 H   0  0  0  0  0  0  0  0  0  0  0  0
    4.5102    0.5610   -5.1136 H   0  0  0  0  0  0  0  0  0  0  0  0
    3.7793   -0.5903   -6.3538 H   0  0  0  0  0  0  0  0  0  0  0  0
    1.6017   -0.5727   -5.1309 H   0  0  0  0  0  0  0  0  0  0  0  0
    2.3084    0.5452   -3.8821 H   0  0  0  0  0  0  0  0  0  0  0  0
    5.0336   -3.0722   -1.1951 H   0  0  0  0  0  0  0  0  0  0  0  0
    1.8965   -2.1996    1.6705 H   0  0  0  0  0  0  0  0  0  0  0  0
    2.8036    0.1104    0.4791 H   0  0  0  0  0  0  0  0  0  0  0  0
    3.1078   -0.1685    2.1767 H   0  0  0  0  0  0  0  0  0  0  0  0
    6.1883   -1.3071   -0.2298 H   0  0  0  0  0  0  0  0  0  0  0  0
    6.5826   -2.3044    1.8491 H   0  0  0  0  0  0  0  0  0  0  0  0
    5.5801   -3.7061    3.3241 H   0  0  0  0  0  0  0  0  0  0  0  0
    4.5189   -2.3814    3.0821 H   0  0  0  0  0  0  0  0  0  0  0  0
    3.9151   -4.5280    4.7370 H   0  0  0  0  0  0  0  0  0  0  0  0
    2.0267   -6.0680    5.0593 H   0  0  0  0  0  0  0  0  0  0  0  0
    0.6354   -6.7766    3.1328 H   0  0  0  0  0  0  0  0  0  0  0  0
    1.1693   -5.9591    0.8540 H   0  0  0  0  0  0  0  0  0  0  0  0
    6.6363   -3.6928   -0.2953 H   0  0  0  0  0  0  0  0  0  0  0  0
    2.8089   -1.2590   -1.3986 H   0  0  0  0  0  0  0  0  0  0  0  0
  1  2  1  0
  1 27  1  0
  1 28  1  0
  1 29  1  0
  2 19  1  0
  2  3  1  0
  2 57  1  6
  3  4  1  0
  3 30  1  0
  3 31  1  0
  4  5  1  0
  4 32  1  0
  4 33  1  0
  5 14  1  0
  5 26  1  0
  5  6  1  6
  6  7  1  0
  6 34  1  0
  6 35  1  0
  7  8  1  0
  7 36  1  0
  7 37  1  0
  8  9  1  0
  8 13  1  0
  8 58  1  1
  9 10  1  0
  9 38  1  0
  9 39  1  0
 10 12  1  0
 10 11  1  0
 10 40  1  0
 11 12  1  0
 11 41  1  0
 11 42  1  0
 12 43  1  0
 12 44  1  0
 13 18  1  0
 13 14  1  0
 13 45  1  6
 14 15  2  0
 15 16  1  0
 15 46  1  0
 16 17  1  0
 16 47  1  0
 16 48  1  0
 17 18  1  0
 18 19  1  0
 18 49  1  6
 19 20  1  0
 19 50  1  1
 20 21  1  0
 20 51  1  0
 20 52  1  0
 21 26  2  0
 21 22  1  0
 22 23  2  0
 22 53  1  0
 23 24  1  0
 23 54  1  0
 24 25  2  0
 24 55  1  0
 25 26  1  0
 25 56  1  0
M  CHG  2   2   1   8   1
M  END
>  <i_m_ct_stereo_status>  (341) 
1

>  <s_m_source_file>  (341) 
/var/tmp/pbs.5076255.sched01/tmp2gi29psn/132an720x3a.sdf

>  <i_m_source_file_index>  (341) 
8

>  <i_lp_mmshare_version>  (341) 
48012

>  <i_f3d_flags>  (341) 
0

>  <s_epik_input>  (341) 
W2NIXTFbY0hdW2NIXVtjSF1jMmMxW0NIMl1bQ0BASF0oTihbQ0gzXSlbQ0gyXVtDSDJdMylbQ0BIXShPW0NIMl1bQ0hdNClbQ0BASF0oQz00W0NAXTIzNSlOKFtDSDJdW0NIMl01KVtDSDJdW0NIXTZbQ0gyXVtDSDJdNg==

>  <s_epik_cmdline>  (341) 
J2VwaWtfcHl0aG9uJywgJy1waHQnLCAnMi4wJywgJy1waCcsICc3LjAnLCAnLXRuJywgJzgnLCAnLW1hJywgJzIwMCcsICctaW1hZScsICc8aW5maWxlLm1hZT4nLCAnLW9tYWUnLCAnPG91dGZpbGUubWFlPic=

>  <r_epik_Ionization_Penalty>  (341) 
2.55937

>  <r_epik_Ionization_Penalty_Charging>  (341) 
2.55937

>  <r_epik_Ionization_Penalty_Neutral>  (341) 
0

>  <r_epik_State_Penalty>  (341) 
1.88994

>  <r_epik_Charging_Adjusted_Penalty>  (341) 
4.44931

>  <i_epik_Tot_Q>  (341) 
2

>  <i_epik_Tot_abs_Q>  (341) 
2

>  <s_lp_Force_Field>  (341) 
OPLS3e

>  <r_lp_Energy>  (341) 
159.47

>  <b_lp_Chiralities_Consistent>  (341) 
1

>  <s_lp_Variant>  (341) 
97:0-4

>  <s_i_glide_gridfile>  (341) 
pfpi4k_grid

>  <i_i_glide_lignum>  (341) 
8

>  <i_i_glide_rotatable_bonds>  (341) 
2

>  <r_i_docking_score>  (341) 
-3.06631

>  <r_i_glide_ligand_efficiency>  (341) 
-0.117935

>  <r_i_glide_ligand_efficiency_sa>  (341) 
-0.349382

>  <r_i_glide_ligand_efficiency_ln>  (341) 
-0.720112

>  <r_i_glide_gscore>  (341) 
-3.06631

>  <r_i_glide_lipo>  (341) 
-0.59217

>  <r_i_glide_hbond>  (341) 
-0.116584

>  <r_i_glide_metal>  (341) 
-0

>  <r_i_glide_rewards>  (341) 
-1.00559

>  <r_i_glide_evdw>  (341) 
-20.2547

>  <r_i_glide_ecoul>  (341) 
-3.86535

>  <r_i_glide_erotb>  (341) 
0.307178

>  <r_i_glide_esite>  (341) 
-0.0665968

>  <r_i_glide_emodel>  (341) 
-26.7464

>  <r_i_glide_energy>  (341) 
-24.1201

>  <r_i_glide_einternal>  (341) 
3.32222

>  <r_i_glide_intrahb_reward>  (341) 
-0

>  <i_i_glide_confnum>  (341) 
6

>  <i_i_glide_posenum>  (341) 
1

>  <r_i_glide_eff_state_penalty>  (341) 
0

>  <ligand_id>  (341) 
97

>  <original_smiles>  (341) 
CN1CCC23CCN(CC4CC4)C4C2=CCOC4C1Cc1ccccc13

>  <smiles>  (341) 
[H]C1=C2C34c5c([H])c([H])c([H])c([H])c5C([H])([H])C([H])(C([H])(OC1([H])[H])C2([H])[N+]([H])(C([H])([H])C1([H])C([H])([H])C1([H])[H])C([H])([H])C3([H])[H])[N+]([H])(C([H])([H])[H])C([H])([H])C4([H])[H]

$$$$
97:3:2
     RDKit          3D

 58 63  0  0  1  0  0  0  0  0999 V2000
    8.0910   -3.7961    0.9048 C   0  0  0  0  0  0  0  0  0  0  0  0
    6.7149   -3.4993    0.4384 N   0  0  1  0  0  0  0  0  0  0  0  0
    5.9303   -4.7655    0.2951 C   0  0  0  0  0  0  0  0  0  0  0  0
    4.5948   -4.7124   -0.5056 C   0  0  0  0  0  0  0  0  0  0  0  0
    3.4007   -3.8568    0.0494 C   0  0  2  0  0  0  0  0  0  0  0  0
    2.3094   -3.6733   -1.0626 C   0  0  0  0  0  0  0  0  0  0  0  0
    2.7567   -2.6378   -2.2220 C   0  0  0  0  0  0  0  0  0  0  0  0
    3.5756   -1.4261   -1.7578 N   0  0  2  0  0  0  0  0  0  0  0  0
    4.2227   -0.6790   -2.8606 C   0  0  0  0  0  0  0  0  0  0  0  0
    3.2311    0.0843   -3.7157 C   0  0  0  0  0  0  0  0  0  0  0  0
    2.9424   -0.3212   -5.1300 C   0  0  0  0  0  0  0  0  0  0  0  0
    3.6990    0.9423   -4.8762 C   0  0  0  0  0  0  0  0  0  0  0  0
    4.5395   -1.9009   -0.7309 C   0  0  2  0  0  0  0  0  0  0  0  0
    3.5955   -2.4132    0.2423 C   0  0  0  0  0  0  0  0  0  0  0  0
    2.9865   -1.5734    1.1078 C   0  0  0  0  0  0  0  0  0  0  0  0
    3.5166   -0.1700    1.2648 C   0  0  0  0  0  0  0  0  0  0  0  0
    4.9181   -0.1080    0.9687 O   0  0  0  0  0  0  0  0  0  0  0  0
    5.4967   -1.1994    0.2368 C   0  0  1  0  0  0  0  0  0  0  0  0
    6.0631   -2.3747    1.2090 C   0  0  1  0  0  0  0  0  0  0  0  0
    5.2469   -2.8889    2.4990 C   0  0  0  0  0  0  0  0  0  0  0  0
    4.0710   -3.9504    2.5456 C   0  0  0  0  0  0  0  0  0  0  0  0
    3.8388   -4.5097    3.8234 C   0  0  0  0  0  0  0  0  0  0  0  0
    2.8025   -5.4331    4.0503 C   0  0  0  0  0  0  0  0  0  0  0  0
    1.9632   -5.8263    2.9973 C   0  0  0  0  0  0  0  0  0  0  0  0
    2.1657   -5.3067    1.7098 C   0  0  0  0  0  0  0  0  0  0  0  0
    3.1915   -4.3698    1.4719 C   0  0  0  0  0  0  0  0  0  0  0  0
    8.0890   -4.2073    1.9135 H   0  0  0  0  0  0  0  0  0  0  0  0
    8.7211   -2.9073    0.8745 H   0  0  0  0  0  0  0  0  0  0  0  0
    8.5710   -4.5378    0.2681 H   0  0  0  0  0  0  0  0  0  0  0  0
    6.5551   -5.4461   -0.2750 H   0  0  0  0  0  0  0  0  0  0  0  0
    5.8159   -5.2759    1.2509 H   0  0  0  0  0  0  0  0  0  0  0  0
    4.7834   -4.5375   -1.5664 H   0  0  0  0  0  0  0  0  0  0  0  0
    4.2318   -5.7383   -0.5079 H   0  0  0  0  0  0  0  0  0  0  0  0
    1.9815   -4.6272   -1.4808 H   0  0  0  0  0  0  0  0  0  0  0  0
    1.4278   -3.2453   -0.6020 H   0  0  0  0  0  0  0  0  0  0  0  0
    3.3405   -3.1912   -2.9557 H   0  0  0  0  0  0  0  0  0  0  0  0
    1.8668   -2.2854   -2.7419 H   0  0  0  0  0  0  0  0  0  0  0  0
    4.9141    0.0555   -2.4461 H   0  0  0  0  0  0  0  0  0  0  0  0
    4.8061   -1.3531   -3.4913 H   0  0  0  0  0  0  0  0  0  0  0  0
    2.3705    0.4576   -3.1737 H   0  0  0  0  0  0  0  0  0  0  0  0
    3.4871   -1.1764   -5.5183 H   0  0  0  0  0  0  0  0  0  0  0  0
    1.9117   -0.2230   -5.4692 H   0  0  0  0  0  0  0  0  0  0  0  0
    3.1733    1.8710   -5.0923 H   0  0  0  0  0  0  0  0  0  0  0  0
    4.7490    0.9400   -5.1403 H   0  0  0  0  0  0  0  0  0  0  0  0
    5.1813   -2.5614   -1.2963 H   0  0  0  0  0  0  0  0  0  0  0  0
    2.1942   -1.8839    1.7771 H   0  0  0  0  0  0  0  0  0  0  0  0
    2.9464    0.4975    0.6219 H   0  0  0  0  0  0  0  0  0  0  0  0
    3.3647    0.1683    2.2901 H   0  0  0  0  0  0  0  0  0  0  0  0
    6.3265   -0.7825   -0.3290 H   0  0  0  0  0  0  0  0  0  0  0  0
    6.8775   -1.8231    1.6749 H   0  0  0  0  0  0  0  0  0  0  0  0
    5.9949   -3.3077    3.1695 H   0  0  0  0  0  0  0  0  0  0  0  0
    4.8934   -2.0073    3.0334 H   0  0  0  0  0  0  0  0  0  0  0  0
    4.4656   -4.2232    4.6533 H   0  0  0  0  0  0  0  0  0  0  0  0
    2.6555   -5.8398    5.0396 H   0  0  0  0  0  0  0  0  0  0  0  0
    1.1727   -6.5375    3.1781 H   0  0  0  0  0  0  0  0  0  0  0  0
    1.5305   -5.6281    0.9000 H   0  0  0  0  0  0  0  0  0  0  0  0
    6.8531   -3.1519   -0.5007 H   0  0  0  0  0  0  0  0  0  0  0  0
    2.9049   -0.8172   -1.2916 H   0  0  0  0  0  0  0  0  0  0  0  0
  1  2  1  0
  1 27  1  0
  1 28  1  0
  1 29  1  0
  2 19  1  0
  2  3  1  0
  2 57  1  6
  3  4  1  0
  3 30  1  0
  3 31  1  0
  4  5  1  0
  4 32  1  0
  4 33  1  0
  5 14  1  0
  5 26  1  0
  5  6  1  6
  6  7  1  0
  6 34  1  0
  6 35  1  0
  7  8  1  0
  7 36  1  0
  7 37  1  0
  8  9  1  0
  8 13  1  0
  8 58  1  1
  9 10  1  0
  9 38  1  0
  9 39  1  0
 10 12  1  0
 10 11  1  0
 10 40  1  0
 11 12  1  0
 11 41  1  0
 11 42  1  0
 12 43  1  0
 12 44  1  0
 13 18  1  0
 13 14  1  0
 13 45  1  6
 14 15  2  0
 15 16  1  0
 15 46  1  0
 16 17  1  0
 16 47  1  0
 16 48  1  0
 17 18  1  0
 18 19  1  0
 18 49  1  6
 19 20  1  0
 19 50  1  1
 20 21  1  0
 20 51  1  0
 20 52  1  0
 21 26  2  0
 21 22  1  0
 22 23  2  0
 22 53  1  0
 23 24  1  0
 23 54  1  0
 24 25  2  0
 24 55  1  0
 25 26  1  0
 25 56  1  0
M  CHG  2   2   1   8   1
M  END
>  <i_m_ct_stereo_status>  (342) 
1

>  <s_m_source_file>  (342) 
/var/tmp/pbs.5076255.sched01/tmp2gi29psn/132an720x3a.sdf

>  <i_m_source_file_index>  (342) 
8

>  <i_lp_mmshare_version>  (342) 
48012

>  <i_f3d_flags>  (342) 
0

>  <s_epik_input>  (342) 
W2NIXTFbY0hdW2NIXVtjSF1jMmMxW0NIMl1bQ0BASF0oTihbQ0gzXSlbQ0gyXVtDSDJdMylbQ0BIXShPW0NIMl1bQ0hdNClbQ0BASF0oQz00W0NAXTIzNSlOKFtDSDJdW0NIMl01KVtDSDJdW0NIXTZbQ0gyXVtDSDJdNg==

>  <s_epik_cmdline>  (342) 
J2VwaWtfcHl0aG9uJywgJy1waHQnLCAnMi4wJywgJy1waCcsICc3LjAnLCAnLXRuJywgJzgnLCAnLW1hJywgJzIwMCcsICctaW1hZScsICc8aW5maWxlLm1hZT4nLCAnLW9tYWUnLCAnPG91dGZpbGUubWFlPic=

>  <r_epik_Ionization_Penalty>  (342) 
2.55937

>  <r_epik_Ionization_Penalty_Charging>  (342) 
2.55937

>  <r_epik_Ionization_Penalty_Neutral>  (342) 
0

>  <r_epik_State_Penalty>  (342) 
1.88994

>  <r_epik_Charging_Adjusted_Penalty>  (342) 
4.44931

>  <i_epik_Tot_Q>  (342) 
2

>  <i_epik_Tot_abs_Q>  (342) 
2

>  <s_lp_Force_Field>  (342) 
OPLS3e

>  <r_lp_Energy>  (342) 
159.47

>  <b_lp_Chiralities_Consistent>  (342) 
1

>  <s_lp_Variant>  (342) 
97:0-4

>  <s_i_glide_gridfile>  (342) 
pfpi4k_grid

>  <i_i_glide_lignum>  (342) 
8

>  <i_i_glide_rotatable_bonds>  (342) 
2

>  <r_i_docking_score>  (342) 
-3.06219

>  <r_i_glide_ligand_efficiency>  (342) 
-0.117777

>  <r_i_glide_ligand_efficiency_sa>  (342) 
-0.348913

>  <r_i_glide_ligand_efficiency_ln>  (342) 
-0.719146

>  <r_i_glide_gscore>  (342) 
-3.06219

>  <r_i_glide_lipo>  (342) 
-0.703759

>  <r_i_glide_hbond>  (342) 
-0.117615

>  <r_i_glide_metal>  (342) 
-0

>  <r_i_glide_rewards>  (342) 
-1.00559

>  <r_i_glide_evdw>  (342) 
-20.2407

>  <r_i_glide_ecoul>  (342) 
-2.96854

>  <r_i_glide_erotb>  (342) 
0.307178

>  <r_i_glide_esite>  (342) 
-0.0850869

>  <r_i_glide_emodel>  (342) 
-27.6302

>  <r_i_glide_energy>  (342) 
-23.2092

>  <r_i_glide_einternal>  (342) 
0.211638

>  <r_i_glide_intrahb_reward>  (342) 
-0

>  <i_i_glide_confnum>  (342) 
6

>  <i_i_glide_posenum>  (342) 
26

>  <r_i_glide_eff_state_penalty>  (342) 
0

>  <ligand_id>  (342) 
97

>  <original_smiles>  (342) 
CN1CCC23CCN(CC4CC4)C4C2=CCOC4C1Cc1ccccc13

>  <smiles>  (342) 
[H]C1=C2C34c5c([H])c([H])c([H])c([H])c5C([H])([H])C([H])(C([H])(OC1([H])[H])C2([H])[N+]([H])(C([H])([H])C1([H])C([H])([H])C1([H])[H])C([H])([H])C3([H])[H])[N+]([H])(C([H])([H])[H])C([H])([H])C4([H])[H]

$$$$
98:0:0
     RDKit          3D

 27 30  0  0  1  0  0  0  0  0999 V2000
    5.7893   -4.0401   -0.0309 C   0  0  0  0  0  0  0  0  0  0  0  0
    5.2963   -2.7099    0.5771 C   0  0  1  0  0  0  0  0  0  0  0  0
    6.1335   -1.6264   -0.0956 C   0  0  0  0  0  0  0  0  0  0  0  0
    5.4391   -1.5465   -1.4512 C   0  0  1  0  0  0  0  0  0  0  0  0
    5.3504   -2.8757   -2.2630 C   0  0  2  0  0  0  0  0  0  0  0  0
    4.2029   -2.5384   -3.2368 C   0  0  0  0  0  0  0  0  0  0  0  0
    3.2810   -1.5873   -2.4358 C   0  0  0  0  0  0  0  0  0  0  0  0
    3.9874   -1.3853   -1.0738 C   0  0  1  0  0  0  0  0  0  0  0  0
    3.8477   -2.5041    0.0092 C   0  0  1  0  0  0  0  0  0  0  0  0
    3.5815   -3.8499   -0.6772 C   0  0  0  0  0  0  0  0  0  0  0  0
    4.9600   -4.0793   -1.3150 C   0  0  2  0  0  0  0  0  0  0  0  0
    5.5455   -4.8818    0.6194 H   0  0  0  0  0  0  0  0  0  0  0  0
    6.8640   -4.0793   -0.2177 H   0  0  0  0  0  0  0  0  0  0  0  0
    5.3658   -2.6919    1.6650 H   0  0  0  0  0  0  0  0  0  0  0  0
    6.0425   -0.6813    0.4430 H   0  0  0  0  0  0  0  0  0  0  0  0
    7.1945   -1.8675   -0.1632 H   0  0  0  0  0  0  0  0  0  0  0  0
    5.7930   -0.7119   -2.0580 H   0  0  0  0  0  0  0  0  0  0  0  0
    6.2834   -3.0911   -2.7872 H   0  0  0  0  0  0  0  0  0  0  0  0
    4.5922   -2.0160   -4.1096 H   0  0  0  0  0  0  0  0  0  0  0  0
    3.6796   -3.4286   -3.5911 H   0  0  0  0  0  0  0  0  0  0  0  0
    3.1989   -0.6333   -2.9567 H   0  0  0  0  0  0  0  0  0  0  0  0
    2.2615   -1.9626   -2.3294 H   0  0  0  0  0  0  0  0  0  0  0  0
    3.8087   -0.4031   -0.6367 H   0  0  0  0  0  0  0  0  0  0  0  0
    3.0979   -2.2600    0.7629 H   0  0  0  0  0  0  0  0  0  0  0  0
    3.3495   -4.6227    0.0593 H   0  0  0  0  0  0  0  0  0  0  0  0
    2.7494   -3.8583   -1.3783 H   0  0  0  0  0  0  0  0  0  0  0  0
    5.0129   -5.0414   -1.8250 H   0  0  0  0  0  0  0  0  0  0  0  0
  1 11  1  0
  1  2  1  0
  1 12  1  0
  1 13  1  0
  2  9  1  0
  2  3  1  0
  2 14  1  1
  3  4  1  0
  3 15  1  0
  3 16  1  0
  4  8  1  0
  4  5  1  0
  4 17  1  6
  5 11  1  0
  5  6  1  0
  5 18  1  6
  6  7  1  0
  6 19  1  0
  6 20  1  0
  7  8  1  0
  7 21  1  0
  7 22  1  0
  8  9  1  0
  8 23  1  1
  9 10  1  0
  9 24  1  1
 10 11  1  0
 10 25  1  0
 10 26  1  0
 11 27  1  6
M  END
>  <i_m_ct_stereo_status>  (343) 
1

>  <s_m_source_file>  (343) 
/var/tmp/pbs.5076255.sched01/tmp2gi29psn/132an720x3a.sdf

>  <i_m_source_file_index>  (343) 
9

>  <i_lp_mmshare_version>  (343) 
48012

>  <i_f3d_flags>  (343) 
0

>  <s_epik_input>  (343) 
W0NIMl0xW0NAQEhdKFtDSDJdMilbQ0BASF0oW0NIMl1bQ0gyXTMpW0NASF0oW0NIMl00KVtDQEBIXTNbQ0BASF0yW0NAQEhdMTQ=

>  <s_epik_cmdline>  (343) 
J2VwaWtfcHl0aG9uJywgJy1waHQnLCAnMi4wJywgJy1waCcsICc3LjAnLCAnLXRuJywgJzgnLCAnLW1hJywgJzIwMCcsICctaW1hZScsICc8aW5maWxlLm1hZT4nLCAnLW9tYWUnLCAnPG91dGZpbGUubWFlPic=

>  <r_lp_tautomer_probability>  (343) 
1

>  <r_epik_Ionization_Penalty>  (343) 
0

>  <r_epik_Ionization_Penalty_Charging>  (343) 
0

>  <r_epik_Ionization_Penalty_Neutral>  (343) 
0

>  <r_epik_State_Penalty>  (343) 
-0

>  <r_epik_Charging_Adjusted_Penalty>  (343) 
0

>  <i_epik_Tot_Q>  (343) 
0

>  <i_epik_Tot_abs_Q>  (343) 
0

>  <s_lp_Force_Field>  (343) 
OPLS3e

>  <r_lp_Energy>  (343) 
58.5439

>  <b_lp_Chiralities_Consistent>  (343) 
1

>  <s_lp_Variant>  (343) 
98:0-1

>  <s_i_glide_gridfile>  (343) 
pfpi4k_grid

>  <i_i_glide_lignum>  (343) 
9

>  <i_i_glide_rotatable_bonds>  (343) 
0

>  <r_i_docking_score>  (343) 
-3.49254

>  <r_i_glide_ligand_efficiency>  (343) 
-0.317504

>  <r_i_glide_ligand_efficiency_sa>  (343) 
-0.706122

>  <r_i_glide_ligand_efficiency_ln>  (343) 
-1.02785

>  <r_i_glide_gscore>  (343) 
-3.49254

>  <r_i_glide_lipo>  (343) 
-0.373052

>  <r_i_glide_hbond>  (343) 
0

>  <r_i_glide_metal>  (343) 
-0

>  <r_i_glide_rewards>  (343) 
-2.25

>  <r_i_glide_evdw>  (343) 
-17.2633

>  <r_i_glide_ecoul>  (343) 
-0.0421427

>  <r_i_glide_erotb>  (343) 
0

>  <r_i_glide_esite>  (343) 
0

>  <r_i_glide_emodel>  (343) 
-21.0131

>  <r_i_glide_energy>  (343) 
-17.3055

>  <r_i_glide_einternal>  (343) 
0

>  <r_i_glide_intrahb_reward>  (343) 
-0

>  <i_i_glide_confnum>  (343) 
2

>  <i_i_glide_posenum>  (343) 
33

>  <r_i_glide_eff_state_penalty>  (343) 
0

>  <ligand_id>  (343) 
98

>  <original_smiles>  (343) 
C1C2CC3C4CCC3C2CC14

>  <smiles>  (343) 
[H]C1([H])C2([H])C([H])([H])C3([H])C4([H])C([H])([H])C([H])([H])C3([H])C2([H])C([H])([H])C14[H]

$$$$
98:0:1
     RDKit          3D

 27 30  0  0  1  0  0  0  0  0999 V2000
    5.8860   -2.4134    1.3008 C   0  0  0  0  0  0  0  0  0  0  0  0
    6.5263   -1.9992   -0.0403 C   0  0  1  0  0  0  0  0  0  0  0  0
    6.7106   -3.2977   -0.8173 C   0  0  0  0  0  0  0  0  0  0  0  0
    5.2832   -3.5365   -1.2977 C   0  0  1  0  0  0  0  0  0  0  0  0
    4.1893   -3.6039   -0.1873 C   0  0  2  0  0  0  0  0  0  0  0  0
    2.9244   -3.3254   -1.0210 C   0  0  0  0  0  0  0  0  0  0  0  0
    3.3919   -2.3701   -2.1469 C   0  0  0  0  0  0  0  0  0  0  0  0
    4.9119   -2.2133   -1.9330 C   0  0  1  0  0  0  0  0  0  0  0  0
    5.4007   -1.2270   -0.8184 C   0  0  1  0  0  0  0  0  0  0  0  0
    4.3170   -1.0797    0.2579 C   0  0  0  0  0  0  0  0  0  0  0  0
    4.4128   -2.4735    0.8957 C   0  0  2  0  0  0  0  0  0  0  0  0
    6.0564   -1.6531    2.0656 H   0  0  0  0  0  0  0  0  0  0  0  0
    6.2557   -3.3578    1.7025 H   0  0  0  0  0  0  0  0  0  0  0  0
    7.4571   -1.4481    0.0964 H   0  0  0  0  0  0  0  0  0  0  0  0
    7.3807   -3.1527   -1.6666 H   0  0  0  0  0  0  0  0  0  0  0  0
    7.1071   -4.1209   -0.2217 H   0  0  0  0  0  0  0  0  0  0  0  0
    5.2070   -4.3729   -1.9957 H   0  0  0  0  0  0  0  0  0  0  0  0
    4.1556   -4.5862    0.2868 H   0  0  0  0  0  0  0  0  0  0  0  0
    2.5446   -4.2481   -1.4596 H   0  0  0  0  0  0  0  0  0  0  0  0
    2.1227   -2.8995   -0.4197 H   0  0  0  0  0  0  0  0  0  0  0  0
    3.1981   -2.8364   -3.1145 H   0  0  0  0  0  0  0  0  0  0  0  0
    2.8634   -1.4160   -2.1538 H   0  0  0  0  0  0  0  0  0  0  0  0
    5.4386   -2.0480   -2.8720 H   0  0  0  0  0  0  0  0  0  0  0  0
    5.7107   -0.2646   -1.2227 H   0  0  0  0  0  0  0  0  0  0  0  0
    4.5832   -0.2953    0.9699 H   0  0  0  0  0  0  0  0  0  0  0  0
    3.3253   -0.8156   -0.1050 H   0  0  0  0  0  0  0  0  0  0  0  0
    3.7450   -2.5802    1.7520 H   0  0  0  0  0  0  0  0  0  0  0  0
  1 11  1  0
  1  2  1  0
  1 12  1  0
  1 13  1  0
  2  9  1  0
  2  3  1  0
  2 14  1  1
  3  4  1  0
  3 15  1  0
  3 16  1  0
  4  8  1  0
  4  5  1  0
  4 17  1  6
  5 11  1  0
  5  6  1  0
  5 18  1  1
  6  7  1  0
  6 19  1  0
  6 20  1  0
  7  8  1  0
  7 21  1  0
  7 22  1  0
  8  9  1  0
  8 23  1  6
  9 10  1  0
  9 24  1  6
 10 11  1  0
 10 25  1  0
 10 26  1  0
 11 27  1  1
M  END
>  <i_m_ct_stereo_status>  (344) 
1

>  <s_m_source_file>  (344) 
/var/tmp/pbs.5076255.sched01/tmp2gi29psn/132an720x3a.sdf

>  <i_m_source_file_index>  (344) 
9

>  <i_lp_mmshare_version>  (344) 
48012

>  <i_f3d_flags>  (344) 
0

>  <s_epik_input>  (344) 
W0NIMl0xW0NAQEhdKFtDSDJdMilbQ0BASF0oW0NIMl1bQ0gyXTMpW0NASF0oW0NIMl00KVtDQEBIXTNbQ0BASF0yW0NAQEhdMTQ=

>  <s_epik_cmdline>  (344) 
J2VwaWtfcHl0aG9uJywgJy1waHQnLCAnMi4wJywgJy1waCcsICc3LjAnLCAnLXRuJywgJzgnLCAnLW1hJywgJzIwMCcsICctaW1hZScsICc8aW5maWxlLm1hZT4nLCAnLW9tYWUnLCAnPG91dGZpbGUubWFlPic=

>  <r_lp_tautomer_probability>  (344) 
1

>  <r_epik_Ionization_Penalty>  (344) 
0

>  <r_epik_Ionization_Penalty_Charging>  (344) 
0

>  <r_epik_Ionization_Penalty_Neutral>  (344) 
0

>  <r_epik_State_Penalty>  (344) 
-0

>  <r_epik_Charging_Adjusted_Penalty>  (344) 
0

>  <i_epik_Tot_Q>  (344) 
0

>  <i_epik_Tot_abs_Q>  (344) 
0

>  <s_lp_Force_Field>  (344) 
OPLS3e

>  <r_lp_Energy>  (344) 
58.5439

>  <b_lp_Chiralities_Consistent>  (344) 
1

>  <s_lp_Variant>  (344) 
98:0-1

>  <s_i_glide_gridfile>  (344) 
pfpi4k_grid

>  <i_i_glide_lignum>  (344) 
9

>  <i_i_glide_rotatable_bonds>  (344) 
0

>  <r_i_docking_score>  (344) 
-3.46821

>  <r_i_glide_ligand_efficiency>  (344) 
-0.315292

>  <r_i_glide_ligand_efficiency_sa>  (344) 
-0.701202

>  <r_i_glide_ligand_efficiency_ln>  (344) 
-1.02069

>  <r_i_glide_gscore>  (344) 
-3.46821

>  <r_i_glide_lipo>  (344) 
-0.370498

>  <r_i_glide_hbond>  (344) 
0

>  <r_i_glide_metal>  (344) 
-0

>  <r_i_glide_rewards>  (344) 
-2.25

>  <r_i_glide_evdw>  (344) 
-15.9836

>  <r_i_glide_ecoul>  (344) 
-0.323549

>  <r_i_glide_erotb>  (344) 
0

>  <r_i_glide_esite>  (344) 
0

>  <r_i_glide_emodel>  (344) 
-19.9893

>  <r_i_glide_energy>  (344) 
-16.3071

>  <r_i_glide_einternal>  (344) 
0

>  <r_i_glide_intrahb_reward>  (344) 
-0

>  <i_i_glide_confnum>  (344) 
1

>  <i_i_glide_posenum>  (344) 
27

>  <r_i_glide_eff_state_penalty>  (344) 
0

>  <ligand_id>  (344) 
98

>  <original_smiles>  (344) 
C1C2CC3C4CCC3C2CC14

>  <smiles>  (344) 
[H]C1([H])C2([H])C([H])([H])C3([H])C4([H])C([H])([H])C([H])([H])C3([H])C2([H])C([H])([H])C14[H]

$$$$
98:0:2
     RDKit          3D

 27 30  0  0  1  0  0  0  0  0999 V2000
    5.4452   -3.7056    0.4108 C   0  0  0  0  0  0  0  0  0  0  0  0
    6.1273   -2.3793    0.0092 C   0  0  1  0  0  0  0  0  0  0  0  0
    6.8463   -2.6833   -1.3006 C   0  0  0  0  0  0  0  0  0  0  0  0
    5.6716   -2.6495   -2.2741 C   0  0  1  0  0  0  0  0  0  0  0  0
    4.4927   -3.6159   -1.9571 C   0  0  2  0  0  0  0  0  0  0  0  0
    3.3581   -2.9611   -2.7733 C   0  0  0  0  0  0  0  0  0  0  0  0
    3.6671   -1.4451   -2.7309 C   0  0  0  0  0  0  0  0  0  0  0  0
    4.9993   -1.3284   -1.9522 C   0  0  1  0  0  0  0  0  0  0  0  0
    4.9550   -1.4111   -0.3892 C   0  0  1  0  0  0  0  0  0  0  0  0
    3.7220   -2.2150    0.0506 C   0  0  0  0  0  0  0  0  0  0  0  0
    4.1587   -3.6135   -0.4119 C   0  0  2  0  0  0  0  0  0  0  0  0
    5.2293   -3.7277    1.4798 H   0  0  0  0  0  0  0  0  0  0  0  0
    6.0294   -4.5991    0.1836 H   0  0  0  0  0  0  0  0  0  0  0  0
    6.7901   -1.9964    0.7857 H   0  0  0  0  0  0  0  0  0  0  0  0
    7.5677   -1.9063   -1.5428 H   0  0  0  0  0  0  0  0  0  0  0  0
    7.3848   -3.6310   -1.3031 H   0  0  0  0  0  0  0  0  0  0  0  0
    5.9891   -2.7255   -3.3133 H   0  0  0  0  0  0  0  0  0  0  0  0
    4.7087   -4.6292   -2.2944 H   0  0  0  0  0  0  0  0  0  0  0  0
    3.3855   -3.3152   -3.8049 H   0  0  0  0  0  0  0  0  0  0  0  0
    2.3685   -3.1973   -2.3779 H   0  0  0  0  0  0  0  0  0  0  0  0
    3.8001   -1.0756   -3.7489 H   0  0  0  0  0  0  0  0  0  0  0  0
    2.8643   -0.8511   -2.2923 H   0  0  0  0  0  0  0  0  0  0  0  0
    5.5819   -0.4705   -2.2831 H   0  0  0  0  0  0  0  0  0  0  0  0
    5.0031   -0.4292    0.0810 H   0  0  0  0  0  0  0  0  0  0  0  0
    3.5963   -2.1729    1.1338 H   0  0  0  0  0  0  0  0  0  0  0  0
    2.7746   -1.8803   -0.3646 H   0  0  0  0  0  0  0  0  0  0  0  0
    3.4314   -4.3819   -0.1475 H   0  0  0  0  0  0  0  0  0  0  0  0
  1 11  1  0
  1  2  1  0
  1 12  1  0
  1 13  1  0
  2  9  1  0
  2  3  1  0
  2 14  1  1
  3  4  1  0
  3 15  1  0
  3 16  1  0
  4  8  1  0
  4  5  1  0
  4 17  1  6
  5 11  1  0
  5  6  1  0
  5 18  1  6
  6  7  1  0
  6 19  1  0
  6 20  1  0
  7  8  1  0
  7 21  1  0
  7 22  1  0
  8  9  1  0
  8 23  1  1
  9 10  1  0
  9 24  1  1
 10 11  1  0
 10 25  1  0
 10 26  1  0
 11 27  1  6
M  END
>  <i_m_ct_stereo_status>  (345) 
1

>  <s_m_source_file>  (345) 
/var/tmp/pbs.5076255.sched01/tmp2gi29psn/132an720x3a.sdf

>  <i_m_source_file_index>  (345) 
9

>  <i_lp_mmshare_version>  (345) 
48012

>  <i_f3d_flags>  (345) 
0

>  <s_epik_input>  (345) 
W0NIMl0xW0NAQEhdKFtDSDJdMilbQ0BASF0oW0NIMl1bQ0gyXTMpW0NASF0oW0NIMl00KVtDQEBIXTNbQ0BASF0yW0NAQEhdMTQ=

>  <s_epik_cmdline>  (345) 
J2VwaWtfcHl0aG9uJywgJy1waHQnLCAnMi4wJywgJy1waCcsICc3LjAnLCAnLXRuJywgJzgnLCAnLW1hJywgJzIwMCcsICctaW1hZScsICc8aW5maWxlLm1hZT4nLCAnLW9tYWUnLCAnPG91dGZpbGUubWFlPic=

>  <r_lp_tautomer_probability>  (345) 
1

>  <r_epik_Ionization_Penalty>  (345) 
0

>  <r_epik_Ionization_Penalty_Charging>  (345) 
0

>  <r_epik_Ionization_Penalty_Neutral>  (345) 
0

>  <r_epik_State_Penalty>  (345) 
-0

>  <r_epik_Charging_Adjusted_Penalty>  (345) 
0

>  <i_epik_Tot_Q>  (345) 
0

>  <i_epik_Tot_abs_Q>  (345) 
0

>  <s_lp_Force_Field>  (345) 
OPLS3e

>  <r_lp_Energy>  (345) 
58.5439

>  <b_lp_Chiralities_Consistent>  (345) 
1

>  <s_lp_Variant>  (345) 
98:0-1

>  <s_i_glide_gridfile>  (345) 
pfpi4k_grid

>  <i_i_glide_lignum>  (345) 
9

>  <i_i_glide_rotatable_bonds>  (345) 
0

>  <r_i_docking_score>  (345) 
-3.2414

>  <r_i_glide_ligand_efficiency>  (345) 
-0.294672

>  <r_i_glide_ligand_efficiency_sa>  (345) 
-0.655346

>  <r_i_glide_ligand_efficiency_ln>  (345) 
-0.953942

>  <r_i_glide_gscore>  (345) 
-3.2414

>  <r_i_glide_lipo>  (345) 
-0.133177

>  <r_i_glide_hbond>  (345) 
0

>  <r_i_glide_metal>  (345) 
-0

>  <r_i_glide_rewards>  (345) 
-2.25

>  <r_i_glide_evdw>  (345) 
-17.6901

>  <r_i_glide_ecoul>  (345) 
0.175236

>  <r_i_glide_erotb>  (345) 
0

>  <r_i_glide_esite>  (345) 
0

>  <r_i_glide_emodel>  (345) 
-20.9564

>  <r_i_glide_energy>  (345) 
-17.5149

>  <r_i_glide_einternal>  (345) 
0

>  <r_i_glide_intrahb_reward>  (345) 
-0

>  <i_i_glide_confnum>  (345) 
1

>  <i_i_glide_posenum>  (345) 
1

>  <r_i_glide_eff_state_penalty>  (345) 
0

>  <ligand_id>  (345) 
98

>  <original_smiles>  (345) 
C1C2CC3C4CCC3C2CC14

>  <smiles>  (345) 
[H]C1([H])C2([H])C([H])([H])C3([H])C4([H])C([H])([H])C([H])([H])C3([H])C2([H])C([H])([H])C14[H]

$$$$
99:1:0
     RDKit          3D

 67 72  0  0  1  0  0  0  0  0999 V2000
    2.0723   -0.0611    6.5042 C   0  0  0  0  0  0  0  0  0  0  0  0
    1.6587   -1.5102    6.6943 C   0  0  0  0  0  0  0  0  0  0  0  0
    2.0642   -2.6081    6.0280 C   0  0  0  0  0  0  0  0  0  0  0  0
    1.4915   -3.9749    6.3317 C   0  0  0  0  0  0  0  0  0  0  0  0
    1.7070   -4.7636    5.0488 C   0  0  0  0  0  0  0  0  0  0  0  0
    3.0812   -4.2647    4.5800 C   0  0  1  0  0  0  0  0  0  0  0  0
    3.4684   -4.7360    3.1515 C   0  0  2  0  0  0  0  0  0  0  0  0
    4.9860   -4.8668    2.9295 C   0  0  0  0  0  0  0  0  0  0  0  0
    5.2779   -5.5652    1.5960 C   0  0  0  0  0  0  0  0  0  0  0  0
    4.5809   -4.9434    0.3577 C   0  0  2  0  0  0  0  0  0  0  0  0
    5.4609   -3.9793   -0.4786 C   0  0  2  0  0  0  0  0  0  0  0  0
    5.7714   -2.6839    0.1849 C   0  0  0  0  0  0  0  0  0  0  0  0
    6.7322   -2.4329    1.0498 N   0  0  0  0  0  0  0  0  0  0  0  0
    6.5794   -1.0908    1.3090 N   0  0  0  0  0  0  0  0  0  0  0  0
    5.6004   -0.5773    0.6215 N   0  0  0  0  0  0  0  0  0  0  0  0
    5.0731   -1.5899   -0.0905 N   0  0  0  0  0  0  0  0  0  0  0  0
    3.9928   -1.4315   -1.0328 C   0  0  0  0  0  0  0  0  0  0  0  0
    3.5384   -2.8187   -1.5867 C   0  0  2  0  0  0  0  0  0  0  0  0
    2.7586   -2.5739   -2.9027 C   0  0  0  0  0  0  0  0  0  0  0  0
    2.5716   -3.5835   -0.6099 C   0  0  0  0  0  0  0  0  0  0  0  0
    3.0970   -4.4886    0.5793 C   0  0  1  0  0  0  0  0  0  0  0  0
    2.2123   -5.7711    0.5134 C   0  0  0  0  0  0  0  0  0  0  0  0
    2.8212   -3.8971    2.0215 C   0  0  2  0  0  0  0  0  0  0  0  0
    3.1248   -2.4115    2.2866 C   0  0  0  0  0  0  0  0  0  0  0  0
    2.5453   -1.9448    3.6332 C   0  0  0  0  0  0  0  0  0  0  0  0
    3.0675   -2.7322    4.8672 C   0  0  1  0  0  0  0  0  0  0  0  0
    4.4722   -2.2578    5.3030 C   0  0  0  0  0  0  0  0  0  0  0  0
    4.7797   -3.7185   -1.8383 C   0  0  1  0  0  0  0  0  0  0  0  0
    5.7693   -3.1690   -2.8811 C   0  0  0  0  0  0  0  0  0  0  0  0
    1.1890    0.5495    6.3152 H   0  0  0  0  0  0  0  0  0  0  0  0
    2.7608    0.0933    5.6785 H   0  0  0  0  0  0  0  0  0  0  0  0
    2.5432    0.3124    7.4138 H   0  0  0  0  0  0  0  0  0  0  0  0
    0.9329   -1.6498    7.4825 H   0  0  0  0  0  0  0  0  0  0  0  0
    2.0697   -4.4233    7.1397 H   0  0  0  0  0  0  0  0  0  0  0  0
    0.4474   -3.9416    6.6409 H   0  0  0  0  0  0  0  0  0  0  0  0
    1.6742   -5.8440    5.2038 H   0  0  0  0  0  0  0  0  0  0  0  0
    0.9326   -4.5041    4.3241 H   0  0  0  0  0  0  0  0  0  0  0  0
    3.7898   -4.7306    5.2699 H   0  0  0  0  0  0  0  0  0  0  0  0
    3.0913   -5.7544    3.0972 H   0  0  0  0  0  0  0  0  0  0  0  0
    5.4843   -3.9028    2.9505 H   0  0  0  0  0  0  0  0  0  0  0  0
    5.4376   -5.4513    3.7338 H   0  0  0  0  0  0  0  0  0  0  0  0
    6.3555   -5.6162    1.4344 H   0  0  0  0  0  0  0  0  0  0  0  0
    4.9519   -6.6026    1.6875 H   0  0  0  0  0  0  0  0  0  0  0  0
    4.5169   -5.7954   -0.3194 H   0  0  0  0  0  0  0  0  0  0  0  0
    6.4152   -4.4704   -0.6695 H   0  0  0  0  0  0  0  0  0  0  0  0
    3.1816   -0.8715   -0.5696 H   0  0  0  0  0  0  0  0  0  0  0  0
    4.3714   -0.8022   -1.8414 H   0  0  0  0  0  0  0  0  0  0  0  0
    2.5058   -3.5202   -3.3831 H   0  0  0  0  0  0  0  0  0  0  0  0
    3.3219   -1.9729   -3.6179 H   0  0  0  0  0  0  0  0  0  0  0  0
    1.8214   -2.0471   -2.7140 H   0  0  0  0  0  0  0  0  0  0  0  0
    1.8404   -2.8832   -0.2173 H   0  0  0  0  0  0  0  0  0  0  0  0
    1.9834   -4.2277   -1.2707 H   0  0  0  0  0  0  0  0  0  0  0  0
    1.1627   -5.5505    0.7009 H   0  0  0  0  0  0  0  0  0  0  0  0
    2.5185   -6.5520    1.2087 H   0  0  0  0  0  0  0  0  0  0  0  0
    2.2455   -6.2264   -0.4700 H   0  0  0  0  0  0  0  0  0  0  0  0
    1.7465   -3.9688    2.1707 H   0  0  0  0  0  0  0  0  0  0  0  0
    4.1929   -2.2286    2.3066 H   0  0  0  0  0  0  0  0  0  0  0  0
    2.7025   -1.7836    1.5050 H   0  0  0  0  0  0  0  0  0  0  0  0
    2.7622   -0.8823    3.7418 H   0  0  0  0  0  0  0  0  0  0  0  0
    1.4579   -2.0247    3.5808 H   0  0  0  0  0  0  0  0  0  0  0  0
    5.2007   -2.3551    4.5019 H   0  0  0  0  0  0  0  0  0  0  0  0
    4.8402   -2.8366    6.1502 H   0  0  0  0  0  0  0  0  0  0  0  0
    4.4889   -1.2151    5.6071 H   0  0  0  0  0  0  0  0  0  0  0  0
    4.4512   -4.6599   -2.2401 H   0  0  0  0  0  0  0  0  0  0  0  0
    6.1957   -2.2124   -2.5946 H   0  0  0  0  0  0  0  0  0  0  0  0
    5.3043   -3.0678   -3.8602 H   0  0  0  0  0  0  0  0  0  0  0  0
    6.6086   -3.8491   -3.0038 H   0  0  0  0  0  0  0  0  0  0  0  0
  1  2  1  0
  1 30  1  0
  1 31  1  0
  1 32  1  0
  2  3  2  3
  2 33  1  0
  3 26  1  0
  3  4  1  0
  4  5  1  0
  4 34  1  0
  4 35  1  0
  5  6  1  0
  5 36  1  0
  5 37  1  0
  6 26  1  0
  6  7  1  0
  6 38  1  1
  7 23  1  0
  7  8  1  0
  7 39  1  6
  8  9  1  0
  8 40  1  0
  8 41  1  0
  9 10  1  0
  9 42  1  0
  9 43  1  0
 10 21  1  0
 10 11  1  0
 10 44  1  6
 11 28  1  0
 11 12  1  0
 11 45  1  6
 12 16  1  0
 12 13  2  0
 13 14  1  0
 14 15  2  0
 15 16  1  0
 16 17  1  0
 17 18  1  0
 17 46  1  0
 17 47  1  0
 18 19  1  6
 18 20  1  0
 18 28  1  0
 19 48  1  0
 19 49  1  0
 19 50  1  0
 20 21  1  0
 20 51  1  0
 20 52  1  0
 21 22  1  1
 21 23  1  0
 22 53  1  0
 22 54  1  0
 22 55  1  0
 23 24  1  0
 23 56  1  1
 24 25  1  0
 24 57  1  0
 24 58  1  0
 25 26  1  0
 25 59  1  0
 25 60  1  0
 26 27  1  1
 27 61  1  0
 27 62  1  0
 27 63  1  0
 28 29  1  0
 28 64  1  6
 29 65  1  0
 29 66  1  0
 29 67  1  0
M  END
>  <i_m_ct_stereo_status>  (346) 
1

>  <s_m_source_file>  (346) 
/var/tmp/pbs.5076255.sched01/tmp2gi29psn/132an720x3a.sdf

>  <i_m_source_file_index>  (346) 
11

>  <i_lp_mmshare_version>  (346) 
48012

>  <i_f3d_flags>  (346) 
0

>  <s_epik_input>  (346) 
W0NIM10vW0NIXT1DKFxbQ0gyXVtDSDJdMSlbQ0BdKFtDSDNdKShbQ0gyXVtDSDJdMilbQ0BASF0xW0NASF0oW0NIMl1bQ0gyXTMpW0NAQEhdMltDQF0oW0NIMl00KShbQ0gzXSlbQ0BIXTNbQ0BASF0oW0NAQEhdNVtDSDNdKWMobm5uNiluNltDSDJdW0NAXTQ1W0NIM10=

>  <s_epik_cmdline>  (346) 
J2VwaWtfcHl0aG9uJywgJy1waHQnLCAnMi4wJywgJy1waCcsICc3LjAnLCAnLXRuJywgJzgnLCAnLW1hJywgJzIwMCcsICctaW1hZScsICc8aW5maWxlLm1hZT4nLCAnLW9tYWUnLCAnPG91dGZpbGUubWFlPic=

>  <r_lp_tautomer_probability>  (346) 
1

>  <r_epik_Ionization_Penalty>  (346) 
2.16898e-07

>  <r_epik_Ionization_Penalty_Charging>  (346) 
0

>  <r_epik_Ionization_Penalty_Neutral>  (346) 
2.16898e-07

>  <r_epik_State_Penalty>  (346) 
-0

>  <r_epik_Charging_Adjusted_Penalty>  (346) 
0

>  <i_epik_Tot_Q>  (346) 
0

>  <i_epik_Tot_abs_Q>  (346) 
0

>  <s_lp_Force_Field>  (346) 
OPLS3e

>  <r_lp_Energy>  (346) 
69.5642

>  <b_lp_Chiralities_Consistent>  (346) 
1

>  <s_lp_Variant>  (346) 
99:0-2

>  <s_i_glide_gridfile>  (346) 
pfpi4k_grid

>  <i_i_glide_lignum>  (346) 
11

>  <i_i_glide_rotatable_bonds>  (346) 
0

>  <r_i_docking_score>  (346) 
-2.45539

>  <r_i_glide_ligand_efficiency>  (346) 
-0.0846687

>  <r_i_glide_ligand_efficiency_sa>  (346) 
-0.260129

>  <r_i_glide_ligand_efficiency_ln>  (346) 
-0.562223

>  <r_i_glide_gscore>  (346) 
-2.45539

>  <r_i_glide_lipo>  (346) 
-0.369618

>  <r_i_glide_hbond>  (346) 
0

>  <r_i_glide_metal>  (346) 
-0

>  <r_i_glide_rewards>  (346) 
-0.769408

>  <r_i_glide_evdw>  (346) 
-25.3059

>  <r_i_glide_ecoul>  (346) 
-0.308227

>  <r_i_glide_erotb>  (346) 
0

>  <r_i_glide_esite>  (346) 
-0.00483725

>  <r_i_glide_emodel>  (346) 
-29.1399

>  <r_i_glide_energy>  (346) 
-25.6141

>  <r_i_glide_einternal>  (346) 
0

>  <r_i_glide_intrahb_reward>  (346) 
-0

>  <i_i_glide_confnum>  (346) 
1

>  <i_i_glide_posenum>  (346) 
2

>  <r_i_glide_eff_state_penalty>  (346) 
0

>  <ligand_id>  (346) 
99

>  <original_smiles>  (346) 
CC=C1CCC2C3CCC4C5c6nnnn6CC(C)(CC4(C)C3CCC12C)C5C

>  <smiles>  (346) 
[H]C(=C1C([H])([H])C([H])([H])C2([H])C3([H])C([H])([H])C([H])([H])C4([H])C5([H])c6nnnn6C([H])([H])C(C([H])([H])[H])(C([H])([H])C4(C([H])([H])[H])C3([H])C([H])([H])C([H])([H])C12C([H])([H])[H])C5([H])C([H])([H])[H])C([H])([H])[H]

$$$$
99:1:1
     RDKit          3D

 67 72  0  0  1  0  0  0  0  0999 V2000
    6.0888   -2.4528    7.7506 C   0  0  0  0  0  0  0  0  0  0  0  0
    5.0187   -3.5215    7.8347 C   0  0  0  0  0  0  0  0  0  0  0  0
    4.6166   -4.4048    6.9035 C   0  0  0  0  0  0  0  0  0  0  0  0
    3.4837   -5.3712    7.1700 C   0  0  0  0  0  0  0  0  0  0  0  0
    2.9613   -5.7165    5.7875 C   0  0  0  0  0  0  0  0  0  0  0  0
    4.2485   -5.7799    4.9537 C   0  0  1  0  0  0  0  0  0  0  0  0
    4.0021   -5.8842    3.4307 C   0  0  2  0  0  0  0  0  0  0  0  0
    5.1124   -6.6259    2.6688 C   0  0  0  0  0  0  0  0  0  0  0  0
    4.6779   -6.8997    1.2330 C   0  0  0  0  0  0  0  0  0  0  0  0
    4.1716   -5.6550    0.4494 C   0  0  2  0  0  0  0  0  0  0  0  0
    5.1858   -4.9755   -0.4624 C   0  0  2  0  0  0  0  0  0  0  0  0
    6.2873   -4.3019    0.2354 C   0  0  0  0  0  0  0  0  0  0  0  0
    7.4155   -4.8374    0.6625 N   0  0  0  0  0  0  0  0  0  0  0  0
    8.1886   -3.7431    0.9224 N   0  0  0  0  0  0  0  0  0  0  0  0
    7.5242   -2.6196    0.7827 N   0  0  0  0  0  0  0  0  0  0  0  0
    6.2885   -2.9808    0.3274 N   0  0  0  0  0  0  0  0  0  0  0  0
    5.3000   -2.0439   -0.0638 C   0  0  0  0  0  0  0  0  0  0  0  0
    4.0502   -2.7855   -0.6315 C   0  0  2  0  0  0  0  0  0  0  0  0
    3.3331   -1.8153   -1.5747 C   0  0  0  0  0  0  0  0  0  0  0  0
    3.0216   -3.3107    0.4487 C   0  0  0  0  0  0  0  0  0  0  0  0
    3.2637   -4.6817    1.2305 C   0  0  1  0  0  0  0  0  0  0  0  0
    1.8830   -5.3816    1.2656 C   0  0  0  0  0  0  0  0  0  0  0  0
    3.6694   -4.5240    2.7549 C   0  0  2  0  0  0  0  0  0  0  0  0
    4.7767   -3.5217    3.1232 C   0  0  0  0  0  0  0  0  0  0  0  0
    4.8451   -3.3073    4.6446 C   0  0  0  0  0  0  0  0  0  0  0  0
    5.1158   -4.5973    5.4673 C   0  0  1  0  0  0  0  0  0  0  0  0
    6.6104   -5.0032    5.4668 C   0  0  0  0  0  0  0  0  0  0  0  0
    4.5339   -3.9666   -1.4395 C   0  0  1  0  0  0  0  0  0  0  0  0
    5.3960   -3.6479   -2.6759 C   0  0  0  0  0  0  0  0  0  0  0  0
    5.6495   -1.4830    7.9905 H   0  0  0  0  0  0  0  0  0  0  0  0
    6.5570   -2.3683    6.7714 H   0  0  0  0  0  0  0  0  0  0  0  0
    6.8681   -2.6486    8.4873 H   0  0  0  0  0  0  0  0  0  0  0  0
    4.5167   -3.5603    8.7937 H   0  0  0  0  0  0  0  0  0  0  0  0
    3.9021   -6.2542    7.6483 H   0  0  0  0  0  0  0  0  0  0  0  0
    2.7231   -4.9443    7.8294 H   0  0  0  0  0  0  0  0  0  0  0  0
    2.3903   -6.6537    5.7632 H   0  0  0  0  0  0  0  0  0  0  0  0
    2.3092   -4.9209    5.4331 H   0  0  0  0  0  0  0  0  0  0  0  0
    4.7328   -6.7089    5.2575 H   0  0  0  0  0  0  0  0  0  0  0  0
    3.1386   -6.5428    3.3519 H   0  0  0  0  0  0  0  0  0  0  0  0
    6.0422   -6.0570    2.6490 H   0  0  0  0  0  0  0  0  0  0  0  0
    5.3505   -7.5760    3.1584 H   0  0  0  0  0  0  0  0  0  0  0  0
    5.5012   -7.3654    0.6973 H   0  0  0  0  0  0  0  0  0  0  0  0
    3.8792   -7.6483    1.2484 H   0  0  0  0  0  0  0  0  0  0  0  0
    3.5399   -6.1114   -0.3014 H   0  0  0  0  0  0  0  0  0  0  0  0
    5.5997   -5.7839   -1.0516 H   0  0  0  0  0  0  0  0  0  0  0  0
    5.0306   -1.3766    0.7496 H   0  0  0  0  0  0  0  0  0  0  0  0
    5.7319   -1.4481   -0.8650 H   0  0  0  0  0  0  0  0  0  0  0  0
    2.4893   -2.3228   -2.0593 H   0  0  0  0  0  0  0  0  0  0  0  0
    3.9562   -1.3756   -2.3543 H   0  0  0  0  0  0  0  0  0  0  0  0
    2.9564   -0.9927   -0.9731 H   0  0  0  0  0  0  0  0  0  0  0  0
    2.9045   -2.5239    1.1798 H   0  0  0  0  0  0  0  0  0  0  0  0
    2.0433   -3.3590   -0.0582 H   0  0  0  0  0  0  0  0  0  0  0  0
    1.2324   -4.8044    1.9113 H   0  0  0  0  0  0  0  0  0  0  0  0
    1.8926   -6.3963    1.6531 H   0  0  0  0  0  0  0  0  0  0  0  0
    1.4552   -5.4372    0.2599 H   0  0  0  0  0  0  0  0  0  0  0  0
    2.7874   -4.1351    3.2572 H   0  0  0  0  0  0  0  0  0  0  0  0
    5.7502   -3.8706    2.8030 H   0  0  0  0  0  0  0  0  0  0  0  0
    4.5967   -2.5597    2.6477 H   0  0  0  0  0  0  0  0  0  0  0  0
    5.6102   -2.5660    4.8394 H   0  0  0  0  0  0  0  0  0  0  0  0
    3.8999   -2.8646    4.9687 H   0  0  0  0  0  0  0  0  0  0  0  0
    6.9729   -5.1643    4.4556 H   0  0  0  0  0  0  0  0  0  0  0  0
    6.7828   -5.9193    6.0283 H   0  0  0  0  0  0  0  0  0  0  0  0
    7.2478   -4.2425    5.9032 H   0  0  0  0  0  0  0  0  0  0  0  0
    3.6037   -4.3511   -1.8229 H   0  0  0  0  0  0  0  0  0  0  0  0
    6.3637   -3.1632   -2.4749 H   0  0  0  0  0  0  0  0  0  0  0  0
    4.8613   -3.0514   -3.4193 H   0  0  0  0  0  0  0  0  0  0  0  0
    5.5846   -4.5860   -3.1716 H   0  0  0  0  0  0  0  0  0  0  0  0
  1  2  1  0
  1 30  1  0
  1 31  1  0
  1 32  1  0
  2  3  2  3
  2 33  1  0
  3 26  1  0
  3  4  1  0
  4  5  1  0
  4 34  1  0
  4 35  1  0
  5  6  1  0
  5 36  1  0
  5 37  1  0
  6 26  1  0
  6  7  1  0
  6 38  1  1
  7 23  1  0
  7  8  1  0
  7 39  1  1
  8  9  1  0
  8 40  1  0
  8 41  1  0
  9 10  1  0
  9 42  1  0
  9 43  1  0
 10 21  1  0
 10 11  1  0
 10 44  1  6
 11 28  1  0
 11 12  1  0
 11 45  1  6
 12 16  1  0
 12 13  2  0
 13 14  1  0
 14 15  2  0
 15 16  1  0
 16 17  1  0
 17 18  1  0
 17 46  1  0
 17 47  1  0
 18 19  1  6
 18 20  1  0
 18 28  1  0
 19 48  1  0
 19 49  1  0
 19 50  1  0
 20 21  1  0
 20 51  1  0
 20 52  1  0
 21 22  1  1
 21 23  1  0
 22 53  1  0
 22 54  1  0
 22 55  1  0
 23 24  1  0
 23 56  1  1
 24 25  1  0
 24 57  1  0
 24 58  1  0
 25 26  1  0
 25 59  1  0
 25 60  1  0
 26 27  1  1
 27 61  1  0
 27 62  1  0
 27 63  1  0
 28 29  1  0
 28 64  1  6
 29 65  1  0
 29 66  1  0
 29 67  1  0
M  END
>  <i_m_ct_stereo_status>  (347) 
1

>  <s_m_source_file>  (347) 
/var/tmp/pbs.5076255.sched01/tmp2gi29psn/132an720x3a.sdf

>  <i_m_source_file_index>  (347) 
11

>  <i_lp_mmshare_version>  (347) 
48012

>  <i_f3d_flags>  (347) 
0

>  <s_epik_input>  (347) 
W0NIM10vW0NIXT1DKFxbQ0gyXVtDSDJdMSlbQ0BdKFtDSDNdKShbQ0gyXVtDSDJdMilbQ0BASF0xW0NASF0oW0NIMl1bQ0gyXTMpW0NAQEhdMltDQF0oW0NIMl00KShbQ0gzXSlbQ0BIXTNbQ0BASF0oW0NAQEhdNVtDSDNdKWMobm5uNiluNltDSDJdW0NAXTQ1W0NIM10=

>  <s_epik_cmdline>  (347) 
J2VwaWtfcHl0aG9uJywgJy1waHQnLCAnMi4wJywgJy1waCcsICc3LjAnLCAnLXRuJywgJzgnLCAnLW1hJywgJzIwMCcsICctaW1hZScsICc8aW5maWxlLm1hZT4nLCAnLW9tYWUnLCAnPG91dGZpbGUubWFlPic=

>  <r_lp_tautomer_probability>  (347) 
1

>  <r_epik_Ionization_Penalty>  (347) 
2.16898e-07

>  <r_epik_Ionization_Penalty_Charging>  (347) 
0

>  <r_epik_Ionization_Penalty_Neutral>  (347) 
2.16898e-07

>  <r_epik_State_Penalty>  (347) 
-0

>  <r_epik_Charging_Adjusted_Penalty>  (347) 
0

>  <i_epik_Tot_Q>  (347) 
0

>  <i_epik_Tot_abs_Q>  (347) 
0

>  <s_lp_Force_Field>  (347) 
OPLS3e

>  <r_lp_Energy>  (347) 
69.5642

>  <b_lp_Chiralities_Consistent>  (347) 
1

>  <s_lp_Variant>  (347) 
99:0-2

>  <s_i_glide_gridfile>  (347) 
pfpi4k_grid

>  <i_i_glide_lignum>  (347) 
11

>  <i_i_glide_rotatable_bonds>  (347) 
0

>  <r_i_docking_score>  (347) 
-2.21075

>  <r_i_glide_ligand_efficiency>  (347) 
-0.0762329

>  <r_i_glide_ligand_efficiency_sa>  (347) 
-0.234212

>  <r_i_glide_ligand_efficiency_ln>  (347) 
-0.506207

>  <r_i_glide_gscore>  (347) 
-2.21075

>  <r_i_glide_lipo>  (347) 
-0.367727

>  <r_i_glide_hbond>  (347) 
0

>  <r_i_glide_metal>  (347) 
-0

>  <r_i_glide_rewards>  (347) 
-0.948166

>  <r_i_glide_evdw>  (347) 
-13.8904

>  <r_i_glide_ecoul>  (347) 
-1.3356

>  <r_i_glide_erotb>  (347) 
0

>  <r_i_glide_esite>  (347) 
0

>  <r_i_glide_emodel>  (347) 
-17.9854

>  <r_i_glide_energy>  (347) 
-15.226

>  <r_i_glide_einternal>  (347) 
0

>  <r_i_glide_intrahb_reward>  (347) 
-0

>  <i_i_glide_confnum>  (347) 
2

>  <i_i_glide_posenum>  (347) 
15

>  <r_i_glide_eff_state_penalty>  (347) 
0

>  <ligand_id>  (347) 
99

>  <original_smiles>  (347) 
CC=C1CCC2C3CCC4C5c6nnnn6CC(C)(CC4(C)C3CCC12C)C5C

>  <smiles>  (347) 
[H]C(=C1C([H])([H])C([H])([H])C2([H])C3([H])C([H])([H])C([H])([H])C4([H])C5([H])c6nnnn6C([H])([H])C(C([H])([H])[H])(C([H])([H])C4(C([H])([H])[H])C3([H])C([H])([H])C([H])([H])C12C([H])([H])[H])C5([H])C([H])([H])[H])C([H])([H])[H]

$$$$
99:1:2
     RDKit          3D

 67 72  0  0  1  0  0  0  0  0999 V2000
    1.9281   -3.0732   -3.9232 C   0  0  0  0  0  0  0  0  0  0  0  0
    2.8032   -1.9146   -3.6112 C   0  0  0  0  0  0  0  0  0  0  0  0
    3.7600   -1.8937   -2.6877 C   0  0  0  0  0  0  0  0  0  0  0  0
    4.5525   -0.6605   -2.3925 C   0  0  0  0  0  0  0  0  0  0  0  0
    5.0484   -0.8613   -0.9670 C   0  0  0  0  0  0  0  0  0  0  0  0
    5.3924   -2.3529   -0.9843 C   0  0  1  0  0  0  0  0  0  0  0  0
    5.7142   -2.9360    0.3977 C   0  0  2  0  0  0  0  0  0  0  0  0
    6.6387   -4.1588    0.3059 C   0  0  0  0  0  0  0  0  0  0  0  0
    7.0990   -4.5676    1.6999 C   0  0  0  0  0  0  0  0  0  0  0  0
    5.9923   -4.7161    2.7852 C   0  0  2  0  0  0  0  0  0  0  0  0
    5.6434   -6.1551    3.1518 C   0  0  2  0  0  0  0  0  0  0  0  0
    4.9382   -6.8204    2.0549 C   0  0  0  0  0  0  0  0  0  0  0  0
    5.4897   -7.4076    1.0383 N   0  0  0  0  0  0  0  0  0  0  0  0
    4.4136   -7.9684    0.3926 N   0  0  0  0  0  0  0  0  0  0  0  0
    3.3073   -7.6600    1.0143 N   0  0  0  0  0  0  0  0  0  0  0  0
    3.6195   -6.8952    2.0498 N   0  0  0  0  0  0  0  0  0  0  0  0
    2.7015   -6.4290    3.0383 C   0  0  0  0  0  0  0  0  0  0  0  0
    3.4060   -5.5692    4.1062 C   0  0  2  0  0  0  0  0  0  0  0  0
    2.5023   -5.5434    5.3714 C   0  0  0  0  0  0  0  0  0  0  0  0
    3.5947   -4.0762    3.6578 C   0  0  0  0  0  0  0  0  0  0  0  0
    4.8216   -3.6530    2.7555 C   0  0  1  0  0  0  0  0  0  0  0  0
    5.3091   -2.3318    3.4152 C   0  0  0  0  0  0  0  0  0  0  0  0
    4.4591   -3.2183    1.2758 C   0  0  2  0  0  0  0  0  0  0  0  0
    3.5266   -4.1277    0.4585 C   0  0  0  0  0  0  0  0  0  0  0  0
    3.0831   -3.4391   -0.8309 C   0  0  0  0  0  0  0  0  0  0  0  0
    4.2486   -3.0159   -1.7818 C   0  0  1  0  0  0  0  0  0  0  0  0
    4.8580   -4.1266   -2.6606 C   0  0  0  0  0  0  0  0  0  0  0  0
    4.8015   -6.1872    4.4434 C   0  0  1  0  0  0  0  0  0  0  0  0
    4.7583   -7.6268    5.0188 C   0  0  0  0  0  0  0  0  0  0  0  0
    0.9019   -2.6619   -3.9289 H   0  0  0  0  0  0  0  0  0  0  0  0
    1.9820   -3.8940   -3.2198 H   0  0  0  0  0  0  0  0  0  0  0  0
    2.1367   -3.5078   -4.8943 H   0  0  0  0  0  0  0  0  0  0  0  0
    2.6296   -1.0180   -4.1586 H   0  0  0  0  0  0  0  0  0  0  0  0
    5.3746   -0.6876   -3.0952 H   0  0  0  0  0  0  0  0  0  0  0  0
    3.9650    0.2406   -2.5569 H   0  0  0  0  0  0  0  0  0  0  0  0
    5.9194   -0.2474   -0.7171 H   0  0  0  0  0  0  0  0  0  0  0  0
    4.2440   -0.6526   -0.2521 H   0  0  0  0  0  0  0  0  0  0  0  0
    6.2973   -2.4388   -1.5913 H   0  0  0  0  0  0  0  0  0  0  0  0
    6.3066   -2.1511    0.8595 H   0  0  0  0  0  0  0  0  0  0  0  0
    6.1772   -5.0142   -0.1681 H   0  0  0  0  0  0  0  0  0  0  0  0
    7.5272   -3.9252   -0.2885 H   0  0  0  0  0  0  0  0  0  0  0  0
    7.7357   -5.4537    1.6435 H   0  0  0  0  0  0  0  0  0  0  0  0
    7.7337   -3.7619    2.0178 H   0  0  0  0  0  0  0  0  0  0  0  0
    6.4834   -4.5715    3.7137 H   0  0  0  0  0  0  0  0  0  0  0  0
    6.5709   -6.7192    3.2945 H   0  0  0  0  0  0  0  0  0  0  0  0
    1.8872   -5.9180    2.5332 H   0  0  0  0  0  0  0  0  0  0  0  0
    2.2918   -7.3293    3.4861 H   0  0  0  0  0  0  0  0  0  0  0  0
    3.0251   -5.0357    6.1858 H   0  0  0  0  0  0  0  0  0  0  0  0
    2.2458   -6.5581    5.6986 H   0  0  0  0  0  0  0  0  0  0  0  0
    1.5703   -5.0116    5.1596 H   0  0  0  0  0  0  0  0  0  0  0  0
    2.6840   -3.7425    3.1890 H   0  0  0  0  0  0  0  0  0  0  0  0
    3.6239   -3.4856    4.5935 H   0  0  0  0  0  0  0  0  0  0  0  0
    4.5142   -1.5936    3.3904 H   0  0  0  0  0  0  0  0  0  0  0  0
    6.2140   -1.9274    2.9225 H   0  0  0  0  0  0  0  0  0  0  0  0
    5.5616   -2.5121    4.4586 H   0  0  0  0  0  0  0  0  0  0  0  0
    3.9155   -2.2746    1.3568 H   0  0  0  0  0  0  0  0  0  0  0  0
    4.0173   -5.0516    0.1706 H   0  0  0  0  0  0  0  0  0  0  0  0
    2.6457   -4.3859    1.0354 H   0  0  0  0  0  0  0  0  0  0  0  0
    2.3846   -4.1130   -1.3209 H   0  0  0  0  0  0  0  0  0  0  0  0
    2.5046   -2.5505   -0.5608 H   0  0  0  0  0  0  0  0  0  0  0  0
    5.0806   -4.9882   -2.0389 H   0  0  0  0  0  0  0  0  0  0  0  0
    5.7635   -3.8025   -3.1881 H   0  0  0  0  0  0  0  0  0  0  0  0
    4.1820   -4.4613   -3.4481 H   0  0  0  0  0  0  0  0  0  0  0  0
    5.2685   -5.5640    5.2073 H   0  0  0  0  0  0  0  0  0  0  0  0
    4.2970   -8.3399    4.3393 H   0  0  0  0  0  0  0  0  0  0  0  0
    4.2341   -7.6592    5.9648 H   0  0  0  0  0  0  0  0  0  0  0  0
    5.7806   -7.9668    5.1933 H   0  0  0  0  0  0  0  0  0  0  0  0
  1  2  1  0
  1 30  1  0
  1 31  1  0
  1 32  1  0
  2  3  2  3
  2 33  1  0
  3 26  1  0
  3  4  1  0
  4  5  1  0
  4 34  1  0
  4 35  1  0
  5  6  1  0
  5 36  1  0
  5 37  1  0
  6 26  1  0
  6  7  1  0
  6 38  1  6
  7 23  1  0
  7  8  1  0
  7 39  1  1
  8  9  1  0
  8 40  1  0
  8 41  1  0
  9 10  1  0
  9 42  1  0
  9 43  1  0
 10 21  1  0
 10 11  1  0
 10 44  1  1
 11 28  1  0
 11 12  1  0
 11 45  1  1
 12 16  1  0
 12 13  2  0
 13 14  1  0
 14 15  2  0
 15 16  1  0
 16 17  1  0
 17 18  1  0
 17 46  1  0
 17 47  1  0
 18 19  1  1
 18 20  1  0
 18 28  1  0
 19 48  1  0
 19 49  1  0
 19 50  1  0
 20 21  1  0
 20 51  1  0
 20 52  1  0
 21 22  1  1
 21 23  1  0
 22 53  1  0
 22 54  1  0
 22 55  1  0
 23 24  1  0
 23 56  1  1
 24 25  1  0
 24 57  1  0
 24 58  1  0
 25 26  1  0
 25 59  1  0
 25 60  1  0
 26 27  1  6
 27 61  1  0
 27 62  1  0
 27 63  1  0
 28 29  1  0
 28 64  1  1
 29 65  1  0
 29 66  1  0
 29 67  1  0
M  END
>  <i_m_ct_stereo_status>  (348) 
1

>  <s_m_source_file>  (348) 
/var/tmp/pbs.5076255.sched01/tmp2gi29psn/132an720x3a.sdf

>  <i_m_source_file_index>  (348) 
11

>  <i_lp_mmshare_version>  (348) 
48012

>  <i_f3d_flags>  (348) 
0

>  <s_epik_input>  (348) 
W0NIM10vW0NIXT1DKFxbQ0gyXVtDSDJdMSlbQ0BdKFtDSDNdKShbQ0gyXVtDSDJdMilbQ0BASF0xW0NASF0oW0NIMl1bQ0gyXTMpW0NAQEhdMltDQF0oW0NIMl00KShbQ0gzXSlbQ0BIXTNbQ0BASF0oW0NAQEhdNVtDSDNdKWMobm5uNiluNltDSDJdW0NAXTQ1W0NIM10=

>  <s_epik_cmdline>  (348) 
J2VwaWtfcHl0aG9uJywgJy1waHQnLCAnMi4wJywgJy1waCcsICc3LjAnLCAnLXRuJywgJzgnLCAnLW1hJywgJzIwMCcsICctaW1hZScsICc8aW5maWxlLm1hZT4nLCAnLW9tYWUnLCAnPG91dGZpbGUubWFlPic=

>  <r_lp_tautomer_probability>  (348) 
1

>  <r_epik_Ionization_Penalty>  (348) 
2.16898e-07

>  <r_epik_Ionization_Penalty_Charging>  (348) 
0

>  <r_epik_Ionization_Penalty_Neutral>  (348) 
2.16898e-07

>  <r_epik_State_Penalty>  (348) 
-0

>  <r_epik_Charging_Adjusted_Penalty>  (348) 
0

>  <i_epik_Tot_Q>  (348) 
0

>  <i_epik_Tot_abs_Q>  (348) 
0

>  <s_lp_Force_Field>  (348) 
OPLS3e

>  <r_lp_Energy>  (348) 
69.5642

>  <b_lp_Chiralities_Consistent>  (348) 
1

>  <s_lp_Variant>  (348) 
99:0-2

>  <s_i_glide_gridfile>  (348) 
pfpi4k_grid

>  <i_i_glide_lignum>  (348) 
11

>  <i_i_glide_rotatable_bonds>  (348) 
0

>  <r_i_docking_score>  (348) 
-2.07882

>  <r_i_glide_ligand_efficiency>  (348) 
-0.0716833

>  <r_i_glide_ligand_efficiency_sa>  (348) 
-0.220234

>  <r_i_glide_ligand_efficiency_ln>  (348) 
-0.475996

>  <r_i_glide_gscore>  (348) 
-2.07882

>  <r_i_glide_lipo>  (348) 
-0.776611

>  <r_i_glide_hbond>  (348) 
0

>  <r_i_glide_metal>  (348) 
-0

>  <r_i_glide_rewards>  (348) 
-0.788448

>  <r_i_glide_evdw>  (348) 
-7.69662

>  <r_i_glide_ecoul>  (348) 
-0.859513

>  <r_i_glide_erotb>  (348) 
0

>  <r_i_glide_esite>  (348) 
0

>  <r_i_glide_emodel>  (348) 
-10.2908

>  <r_i_glide_energy>  (348) 
-8.55613

>  <r_i_glide_einternal>  (348) 
0

>  <r_i_glide_intrahb_reward>  (348) 
-0

>  <i_i_glide_confnum>  (348) 
1

>  <i_i_glide_posenum>  (348) 
1

>  <r_i_glide_eff_state_penalty>  (348) 
0

>  <ligand_id>  (348) 
99

>  <original_smiles>  (348) 
CC=C1CCC2C3CCC4C5c6nnnn6CC(C)(CC4(C)C3CCC12C)C5C

>  <smiles>  (348) 
[H]C(=C1C([H])([H])C([H])([H])C2([H])C3([H])C([H])([H])C([H])([H])C4([H])C5([H])c6nnnn6C([H])([H])C(C([H])([H])[H])(C([H])([H])C4(C([H])([H])[H])C3([H])C([H])([H])C([H])([H])C12C([H])([H])[H])C5([H])C([H])([H])[H])C([H])([H])[H]

$$$$
100:0:0
     RDKit          3D

 79 83  0  0  1  0  0  0  0  0999 V2000
    0.2553   -9.2480    6.6546 C   0  0  0  0  0  0  0  0  0  0  0  0
   -0.5664   -9.0565    5.3953 C   0  0  0  0  0  0  0  0  0  0  0  0
   -0.1798   -8.8858    4.1109 C   0  0  0  0  0  0  0  0  0  0  0  0
   -1.2181   -8.6445    3.0184 C   0  0  0  0  0  0  0  0  0  0  0  0
    1.2554   -8.8888    3.6042 C   0  0  2  0  0  0  0  0  0  0  0  0
    2.0604  -10.1729    3.8612 C   0  0  1  0  0  0  0  0  0  0  0  0
    1.7271  -11.2001    2.9602 O   0  0  0  0  0  0  0  0  0  0  0  0
    3.5094   -9.7318    3.6415 C   0  0  0  0  0  0  0  0  0  0  0  0
    3.5925   -8.2523    4.1472 C   0  0  2  0  0  0  0  0  0  0  0  0
    4.2218   -8.3329    5.5661 C   0  0  0  0  0  0  0  0  0  0  0  0
    2.1295   -7.7514    4.1642 C   0  0  1  0  0  0  0  0  0  0  0  0
    2.0759   -6.4117    3.3889 C   0  0  0  0  0  0  0  0  0  0  0  0
    3.5078   -5.8150    3.4439 C   0  0  1  0  0  0  0  0  0  0  0  0
    3.6667   -5.2121    4.8701 C   0  0  0  0  0  0  0  0  0  0  0  0
    4.3054   -7.1568    3.2703 C   0  0  2  0  0  0  0  0  0  0  0  0
    4.3185   -7.6101    1.7910 C   0  0  0  0  0  0  0  0  0  0  0  0
    4.5410   -6.5213    0.7910 C   0  0  0  0  0  0  0  0  0  0  0  0
    4.3387   -5.2182    1.0081 C   0  0  0  0  0  0  0  0  0  0  0  0
    4.8533   -4.2409   -0.0672 C   0  0  1  0  0  0  0  0  0  0  0  0
    3.7413   -3.4759   -0.8294 C   0  0  0  0  0  0  0  0  0  0  0  0
    4.2977   -2.5891   -1.9665 C   0  0  0  0  0  0  0  0  0  0  0  0
    4.9872   -3.4331   -3.0651 C   0  0  0  0  0  0  0  0  0  0  0  0
    3.1523   -1.8265   -2.6553 C   0  0  0  0  0  0  0  0  0  0  0  0
    5.2799   -1.5861   -1.3283 C   0  0  0  0  0  0  0  0  0  0  0  0
    6.4158   -2.2675   -0.5544 C   0  0  0  0  0  0  0  0  0  0  0  0
    5.9773   -3.3307    0.4928 C   0  0  2  0  0  0  0  0  0  0  0  0
    7.2359   -4.1823    0.7902 C   0  0  0  0  0  0  0  0  0  0  0  0
    5.4917   -2.6774    1.8067 C   0  0  0  0  0  0  0  0  0  0  0  0
    4.9747   -3.6993    2.8589 C   0  0  0  0  0  0  0  0  0  0  0  0
    3.8469   -4.6645    2.3632 C   0  0  2  0  0  0  0  0  0  0  0  0
    2.5551   -3.8288    2.1930 C   0  0  0  0  0  0  0  0  0  0  0  0
   -0.0840  -10.1747    7.1212 H   0  0  0  0  0  0  0  0  0  0  0  0
    0.0287   -8.4499    7.3559 H   0  0  0  0  0  0  0  0  0  0  0  0
    1.3301   -9.3265    6.5085 H   0  0  0  0  0  0  0  0  0  0  0  0
   -1.6317   -9.0507    5.5613 H   0  0  0  0  0  0  0  0  0  0  0  0
   -1.1498   -7.6242    2.6225 H   0  0  0  0  0  0  0  0  0  0  0  0
   -2.2314   -8.7852    3.3986 H   0  0  0  0  0  0  0  0  0  0  0  0
   -1.0897   -9.3326    2.1786 H   0  0  0  0  0  0  0  0  0  0  0  0
    1.1975   -8.7599    2.5186 H   0  0  0  0  0  0  0  0  0  0  0  0
    1.9507  -10.5836    4.8586 H   0  0  0  0  0  0  0  0  0  0  0  0
    2.0939  -12.0126    3.2811 H   0  0  0  0  0  0  0  0  0  0  0  0
    4.1794  -10.3817    4.1965 H   0  0  0  0  0  0  0  0  0  0  0  0
    3.7949   -9.8769    2.6002 H   0  0  0  0  0  0  0  0  0  0  0  0
    4.3961   -7.3801    6.0568 H   0  0  0  0  0  0  0  0  0  0  0  0
    5.1975   -8.8155    5.5198 H   0  0  0  0  0  0  0  0  0  0  0  0
    3.6078   -8.9280    6.2404 H   0  0  0  0  0  0  0  0  0  0  0  0
    1.8415   -7.5513    5.1906 H   0  0  0  0  0  0  0  0  0  0  0  0
    1.7775   -6.5728    2.3511 H   0  0  0  0  0  0  0  0  0  0  0  0
    1.3286   -5.7539    3.8300 H   0  0  0  0  0  0  0  0  0  0  0  0
    4.7168   -5.1463    5.1627 H   0  0  0  0  0  0  0  0  0  0  0  0
    3.1424   -5.7734    5.6372 H   0  0  0  0  0  0  0  0  0  0  0  0
    3.2333   -4.2158    4.9444 H   0  0  0  0  0  0  0  0  0  0  0  0
    5.3378   -7.0060    3.5972 H   0  0  0  0  0  0  0  0  0  0  0  0
    5.1204   -8.3375    1.6508 H   0  0  0  0  0  0  0  0  0  0  0  0
    3.3734   -8.0663    1.4909 H   0  0  0  0  0  0  0  0  0  0  0  0
    4.9185   -6.8683   -0.1565 H   0  0  0  0  0  0  0  0  0  0  0  0
    5.3299   -4.8724   -0.8187 H   0  0  0  0  0  0  0  0  0  0  0  0
    3.0049   -4.1772   -1.2164 H   0  0  0  0  0  0  0  0  0  0  0  0
    3.2051   -2.8133   -0.1567 H   0  0  0  0  0  0  0  0  0  0  0  0
    5.2707   -2.8091   -3.9167 H   0  0  0  0  0  0  0  0  0  0  0  0
    4.3096   -4.2142   -3.4252 H   0  0  0  0  0  0  0  0  0  0  0  0
    5.8980   -3.9216   -2.6989 H   0  0  0  0  0  0  0  0  0  0  0  0
    3.5229   -1.1849   -3.4610 H   0  0  0  0  0  0  0  0  0  0  0  0
    2.6188   -1.1910   -1.9426 H   0  0  0  0  0  0  0  0  0  0  0  0
    2.4308   -2.5220   -3.0899 H   0  0  0  0  0  0  0  0  0  0  0  0
    5.6919   -0.9272   -2.0937 H   0  0  0  0  0  0  0  0  0  0  0  0
    4.7422   -0.9309   -0.6489 H   0  0  0  0  0  0  0  0  0  0  0  0
    7.1098   -2.7135   -1.2618 H   0  0  0  0  0  0  0  0  0  0  0  0
    6.9908   -1.4940   -0.0386 H   0  0  0  0  0  0  0  0  0  0  0  0
    8.0319   -3.5733    1.2225 H   0  0  0  0  0  0  0  0  0  0  0  0
    7.6227   -4.6340   -0.1244 H   0  0  0  0  0  0  0  0  0  0  0  0
    7.0289   -5.0017    1.4819 H   0  0  0  0  0  0  0  0  0  0  0  0
    6.3014   -2.1021    2.2530 H   0  0  0  0  0  0  0  0  0  0  0  0
    4.7185   -1.9436    1.5851 H   0  0  0  0  0  0  0  0  0  0  0  0
    5.8143   -4.2958    3.2187 H   0  0  0  0  0  0  0  0  0  0  0  0
    4.6374   -3.1101    3.7105 H   0  0  0  0  0  0  0  0  0  0  0  0
    2.0092   -3.7041    3.1243 H   0  0  0  0  0  0  0  0  0  0  0  0
    1.8874   -4.3020    1.4731 H   0  0  0  0  0  0  0  0  0  0  0  0
    2.7521   -2.8129    1.8602 H   0  0  0  0  0  0  0  0  0  0  0  0
  1  2  1  0
  1 32  1  0
  1 33  1  0
  1 34  1  0
  2  3  2  3
  2 35  1  0
  3  4  1  0
  3  5  1  0
  4 36  1  0
  4 37  1  0
  4 38  1  0
  5 11  1  0
  5  6  1  0
  5 39  1  6
  6  7  1  0
  6  8  1  0
  6 40  1  1
  7 41  1  0
  8  9  1  0
  8 42  1  0
  8 43  1  0
  9 15  1  0
  9 10  1  1
  9 11  1  0
 10 44  1  0
 10 45  1  0
 10 46  1  0
 11 12  1  0
 11 47  1  1
 12 13  1  0
 12 48  1  0
 12 49  1  0
 13 30  1  0
 13 14  1  1
 13 15  1  0
 14 50  1  0
 14 51  1  0
 14 52  1  0
 15 16  1  0
 15 53  1  1
 16 17  1  0
 16 54  1  0
 16 55  1  0
 17 18  2  0
 17 56  1  0
 18 30  1  0
 18 19  1  0
 19 26  1  0
 19 20  1  0
 19 57  1  6
 20 21  1  0
 20 58  1  0
 20 59  1  0
 21 22  1  0
 21 23  1  0
 21 24  1  0
 22 60  1  0
 22 61  1  0
 22 62  1  0
 23 63  1  0
 23 64  1  0
 23 65  1  0
 24 25  1  0
 24 66  1  0
 24 67  1  0
 25 26  1  0
 25 68  1  0
 25 69  1  0
 26 27  1  1
 26 28  1  0
 27 70  1  0
 27 71  1  0
 27 72  1  0
 28 29  1  0
 28 73  1  0
 28 74  1  0
 29 30  1  0
 29 75  1  0
 29 76  1  0
 30 31  1  6
 31 77  1  0
 31 78  1  0
 31 79  1  0
M  END
>  <i_m_ct_stereo_status>  (349) 
1

>  <s_m_source_file>  (349) 
/var/tmp/pbs.5076255.sched01/tmp2gi29psn/132an720x3a.sdf

>  <i_m_source_file_index>  (349) 
12

>  <i_lp_mmshare_version>  (349) 
48012

>  <i_f3d_flags>  (349) 
0

>  <s_epik_input>  (349) 
W0NIM10vW0NIXT1DKC9bQ0gzXSlbQ0BIXShbQ0BASF0oW09IXSlbQ0gyXTEpW0NAQEhdKFtDQEBdMTJbQ0gzXSlbQ0gyXVtDQEBdMyhbQ0gzXSlbQ0BASF0yW0NIMl1bQ0hdPUM0W0NAQEhdNVtDQEBdKFtDSDNdKShbQ0gyXVtDSDJdQyhbQ0gyXTUpKFtDSDNdKVtDSDNdKVtDSDJdW0NIMl1bQ0BdMzRbQ0gzXQ==

>  <s_epik_cmdline>  (349) 
J2VwaWtfcHl0aG9uJywgJy1waHQnLCAnMi4wJywgJy1waCcsICc3LjAnLCAnLXRuJywgJzgnLCAnLW1hJywgJzIwMCcsICctaW1hZScsICc8aW5maWxlLm1hZT4nLCAnLW9tYWUnLCAnPG91dGZpbGUubWFlPic=

>  <r_lp_tautomer_probability>  (349) 
1

>  <r_epik_Ionization_Penalty>  (349) 
9.20666e-07

>  <r_epik_Ionization_Penalty_Charging>  (349) 
0

>  <r_epik_Ionization_Penalty_Neutral>  (349) 
9.20666e-07

>  <r_epik_State_Penalty>  (349) 
-0

>  <r_epik_Charging_Adjusted_Penalty>  (349) 
0

>  <i_epik_Tot_Q>  (349) 
0

>  <i_epik_Tot_abs_Q>  (349) 
0

>  <s_lp_Force_Field>  (349) 
OPLS3e

>  <r_lp_Energy>  (349) 
65.4286

>  <b_lp_Chiralities_Consistent>  (349) 
1

>  <s_lp_Variant>  (349) 
100:0-1

>  <s_i_glide_gridfile>  (349) 
pfpi4k_grid

>  <i_i_glide_lignum>  (349) 
12

>  <i_i_glide_rotatable_bonds>  (349) 
2

>  <r_i_docking_score>  (349) 
-2.99522

>  <r_i_glide_ligand_efficiency>  (349) 
-0.0966199

>  <r_i_glide_ligand_efficiency_sa>  (349) 
-0.30352

>  <r_i_glide_ligand_efficiency_ln>  (349) 
-0.675513

>  <r_i_glide_gscore>  (349) 
-2.99522

>  <r_i_glide_lipo>  (349) 
-0.737599

>  <r_i_glide_hbond>  (349) 
0

>  <r_i_glide_metal>  (349) 
-0

>  <r_i_glide_rewards>  (349) 
-0.513399

>  <r_i_glide_evdw>  (349) 
-34.0281

>  <r_i_glide_ecoul>  (349) 
-1.01838

>  <r_i_glide_erotb>  (349) 
0.109944

>  <r_i_glide_esite>  (349) 
0

>  <r_i_glide_emodel>  (349) 
-39.6628

>  <r_i_glide_energy>  (349) 
-35.0465

>  <r_i_glide_einternal>  (349) 
2.71408

>  <r_i_glide_intrahb_reward>  (349) 
-0

>  <i_i_glide_confnum>  (349) 
3

>  <i_i_glide_posenum>  (349) 
40

>  <r_i_glide_eff_state_penalty>  (349) 
0

>  <ligand_id>  (349) 
100

>  <original_smiles>  (349) 
CC=C(C)C1C(O)CC2(C)C1CC1(C)C2CC=C2C3CC(C)(C)CCC3(C)CCC21C

>  <smiles>  (349) 
[H]OC1([H])C([H])([H])C2(C([H])([H])[H])C([H])(C([H])([H])C3(C([H])([H])[H])C2([H])C([H])([H])C([H])=C2C4([H])C([H])([H])C(C([H])([H])[H])(C([H])([H])[H])C([H])([H])C([H])([H])C4(C([H])([H])[H])C([H])([H])C([H])([H])C23C([H])([H])[H])C1([H])C(=C([H])C([H])([H])[H])C([H])([H])[H]

$$$$
100:0:1
     RDKit          3D

 79 83  0  0  1  0  0  0  0  0999 V2000
    0.5222   -9.2485    6.6960 C   0  0  0  0  0  0  0  0  0  0  0  0
   -0.3350   -9.0554    5.4642 C   0  0  0  0  0  0  0  0  0  0  0  0
    0.0283   -8.8914    4.1681 C   0  0  0  0  0  0  0  0  0  0  0  0
   -1.0399   -8.6784    3.1039 C   0  0  0  0  0  0  0  0  0  0  0  0
    1.4592   -8.8684    3.6429 C   0  0  2  0  0  0  0  0  0  0  0  0
    2.2797  -10.1464    3.8866 C   0  0  1  0  0  0  0  0  0  0  0  0
    1.9015  -11.2150    3.0567 O   0  0  0  0  0  0  0  0  0  0  0  0
    3.7241   -9.6929    3.6638 C   0  0  0  0  0  0  0  0  0  0  0  0
    3.7987   -8.2087    4.1671 C   0  0  2  0  0  0  0  0  0  0  0  0
    4.4587   -8.2835    5.5743 C   0  0  0  0  0  0  0  0  0  0  0  0
    2.3288   -7.7254    4.2046 C   0  0  1  0  0  0  0  0  0  0  0  0
    2.2461   -6.3840    3.4355 C   0  0  0  0  0  0  0  0  0  0  0  0
    3.6733   -5.7736    3.4616 C   0  0  1  0  0  0  0  0  0  0  0  0
    3.8498   -5.1706    4.8899 C   0  0  0  0  0  0  0  0  0  0  0  0
    4.4814   -7.1054    3.2744 C   0  0  2  0  0  0  0  0  0  0  0  0
    4.4796   -7.5566    1.7906 C   0  0  0  0  0  0  0  0  0  0  0  0
    4.6546   -6.4607    0.7941 C   0  0  0  0  0  0  0  0  0  0  0  0
    4.4467   -5.1590    1.0090 C   0  0  0  0  0  0  0  0  0  0  0  0
    4.9234   -4.1715   -0.0643 C   0  0  1  0  0  0  0  0  0  0  0  0
    3.7950   -3.4172   -0.8054 C   0  0  0  0  0  0  0  0  0  0  0  0
    4.3250   -2.5296   -1.9592 C   0  0  0  0  0  0  0  0  0  0  0  0
    5.0061   -3.3688   -3.0571 C   0  0  0  0  0  0  0  0  0  0  0  0
    3.1538   -1.7812   -2.6252 C   0  0  0  0  0  0  0  0  0  0  0  0
    5.2969   -1.5094   -1.3295 C   0  0  0  0  0  0  0  0  0  0  0  0
    6.4570   -2.1783   -0.5749 C   0  0  0  0  0  0  0  0  0  0  0  0
    6.0528   -3.2518    0.4756 C   0  0  2  0  0  0  0  0  0  0  0  0
    7.3264   -4.0878    0.7436 C   0  0  0  0  0  0  0  0  0  0  0  0
    5.5789   -2.6055    1.7967 C   0  0  0  0  0  0  0  0  0  0  0  0
    5.0920   -3.6345    2.8517 C   0  0  0  0  0  0  0  0  0  0  0  0
    3.9639   -4.6148    2.3840 C   0  0  2  0  0  0  0  0  0  0  0  0
    2.6615   -3.7946    2.2241 C   0  0  0  0  0  0  0  0  0  0  0  0
    0.2056  -10.1568    7.1994 H   0  0  0  0  0  0  0  0  0  0  0  0
    0.3799   -8.4175    7.3843 H   0  0  0  0  0  0  0  0  0  0  0  0
    1.5876   -9.3405    6.5070 H   0  0  0  0  0  0  0  0  0  0  0  0
   -1.3915   -9.0480    5.6688 H   0  0  0  0  0  0  0  0  0  0  0  0
   -1.0014   -7.6629    2.6986 H   0  0  0  0  0  0  0  0  0  0  0  0
   -2.0414   -8.8414    3.5067 H   0  0  0  0  0  0  0  0  0  0  0  0
   -0.9123   -9.3779    2.2730 H   0  0  0  0  0  0  0  0  0  0  0  0
    1.3952   -8.7397    2.5576 H   0  0  0  0  0  0  0  0  0  0  0  0
    2.1879  -10.5234    4.9104 H   0  0  0  0  0  0  0  0  0  0  0  0
    2.3920  -11.1826    2.2362 H   0  0  0  0  0  0  0  0  0  0  0  0
    4.4067  -10.3416    4.2098 H   0  0  0  0  0  0  0  0  0  0  0  0
    3.9945   -9.8309    2.6192 H   0  0  0  0  0  0  0  0  0  0  0  0
    4.6307   -7.3299    6.0626 H   0  0  0  0  0  0  0  0  0  0  0  0
    5.4397   -8.7543    5.5111 H   0  0  0  0  0  0  0  0  0  0  0  0
    3.8666   -8.8863    6.2612 H   0  0  0  0  0  0  0  0  0  0  0  0
    2.0563   -7.5318    5.2388 H   0  0  0  0  0  0  0  0  0  0  0  0
    1.9310   -6.5500    2.4041 H   0  0  0  0  0  0  0  0  0  0  0  0
    1.4993   -5.7347    3.8946 H   0  0  0  0  0  0  0  0  0  0  0  0
    4.9027   -5.0918    5.1660 H   0  0  0  0  0  0  0  0  0  0  0  0
    3.3466   -5.7374    5.6669 H   0  0  0  0  0  0  0  0  0  0  0  0
    3.4053   -4.1806    4.9729 H   0  0  0  0  0  0  0  0  0  0  0  0
    5.5204   -6.9475    3.5793 H   0  0  0  0  0  0  0  0  0  0  0  0
    5.2888   -8.2709    1.6369 H   0  0  0  0  0  0  0  0  0  0  0  0
    3.5421   -8.0381    1.5072 H   0  0  0  0  0  0  0  0  0  0  0  0
    5.0084   -6.7955   -0.1728 H   0  0  0  0  0  0  0  0  0  0  0  0
    5.3926   -4.7923   -0.8277 H   0  0  0  0  0  0  0  0  0  0  0  0
    3.0532   -4.1236   -1.1775 H   0  0  0  0  0  0  0  0  0  0  0  0
    3.2650   -2.7580   -0.1324 H   0  0  0  0  0  0  0  0  0  0  0  0
    5.2725   -2.7469   -3.9217 H   0  0  0  0  0  0  0  0  0  0  0  0
    4.3439   -4.1576   -3.4173 H   0  0  0  0  0  0  0  0  0  0  0  0
    5.9232   -3.8488   -2.7209 H   0  0  0  0  0  0  0  0  0  0  0  0
    3.4994   -1.1308   -3.4342 H   0  0  0  0  0  0  0  0  0  0  0  0
    2.6249   -1.1519   -1.9139 H   0  0  0  0  0  0  0  0  0  0  0  0
    2.4272   -2.4822   -3.0450 H   0  0  0  0  0  0  0  0  0  0  0  0
    5.6856   -0.8479   -2.1032 H   0  0  0  0  0  0  0  0  0  0  0  0
    4.7556   -0.8632   -0.6451 H   0  0  0  0  0  0  0  0  0  0  0  0
    7.1389   -2.6180   -1.3040 H   0  0  0  0  0  0  0  0  0  0  0  0
    7.0331   -1.4053   -0.0726 H   0  0  0  0  0  0  0  0  0  0  0  0
    8.1260   -3.4736    1.1610 H   0  0  0  0  0  0  0  0  0  0  0  0
    7.7042   -4.5315   -0.1780 H   0  0  0  0  0  0  0  0  0  0  0  0
    7.1496   -4.9120    1.4348 H   0  0  0  0  0  0  0  0  0  0  0  0
    6.3905   -2.0174    2.2262 H   0  0  0  0  0  0  0  0  0  0  0  0
    4.7944   -1.8823    1.5896 H   0  0  0  0  0  0  0  0  0  0  0  0
    5.9394   -4.2273    3.1909 H   0  0  0  0  0  0  0  0  0  0  0  0
    4.7701   -3.0537    3.7172 H   0  0  0  0  0  0  0  0  0  0  0  0
    2.1226   -3.6766    3.1644 H   0  0  0  0  0  0  0  0  0  0  0  0
    1.9867   -4.2659    1.5117 H   0  0  0  0  0  0  0  0  0  0  0  0
    2.8368   -2.7774    1.8943 H   0  0  0  0  0  0  0  0  0  0  0  0
  1  2  1  0
  1 32  1  0
  1 33  1  0
  1 34  1  0
  2  3  2  3
  2 35  1  0
  3  4  1  0
  3  5  1  0
  4 36  1  0
  4 37  1  0
  4 38  1  0
  5 11  1  0
  5  6  1  0
  5 39  1  6
  6  7  1  0
  6  8  1  0
  6 40  1  1
  7 41  1  0
  8  9  1  0
  8 42  1  0
  8 43  1  0
  9 15  1  0
  9 10  1  1
  9 11  1  0
 10 44  1  0
 10 45  1  0
 10 46  1  0
 11 12  1  0
 11 47  1  1
 12 13  1  0
 12 48  1  0
 12 49  1  0
 13 30  1  0
 13 14  1  1
 13 15  1  0
 14 50  1  0
 14 51  1  0
 14 52  1  0
 15 16  1  0
 15 53  1  1
 16 17  1  0
 16 54  1  0
 16 55  1  0
 17 18  2  0
 17 56  1  0
 18 30  1  0
 18 19  1  0
 19 26  1  0
 19 20  1  0
 19 57  1  6
 20 21  1  0
 20 58  1  0
 20 59  1  0
 21 22  1  0
 21 23  1  0
 21 24  1  0
 22 60  1  0
 22 61  1  0
 22 62  1  0
 23 63  1  0
 23 64  1  0
 23 65  1  0
 24 25  1  0
 24 66  1  0
 24 67  1  0
 25 26  1  0
 25 68  1  0
 25 69  1  0
 26 27  1  1
 26 28  1  0
 27 70  1  0
 27 71  1  0
 27 72  1  0
 28 29  1  0
 28 73  1  0
 28 74  1  0
 29 30  1  0
 29 75  1  0
 29 76  1  0
 30 31  1  6
 31 77  1  0
 31 78  1  0
 31 79  1  0
M  END
>  <i_m_ct_stereo_status>  (350) 
1

>  <s_m_source_file>  (350) 
/var/tmp/pbs.5076255.sched01/tmp2gi29psn/132an720x3a.sdf

>  <i_m_source_file_index>  (350) 
12

>  <i_lp_mmshare_version>  (350) 
48012

>  <i_f3d_flags>  (350) 
0

>  <s_epik_input>  (350) 
W0NIM10vW0NIXT1DKC9bQ0gzXSlbQ0BIXShbQ0BASF0oW09IXSlbQ0gyXTEpW0NAQEhdKFtDQEBdMTJbQ0gzXSlbQ0gyXVtDQEBdMyhbQ0gzXSlbQ0BASF0yW0NIMl1bQ0hdPUM0W0NAQEhdNVtDQEBdKFtDSDNdKShbQ0gyXVtDSDJdQyhbQ0gyXTUpKFtDSDNdKVtDSDNdKVtDSDJdW0NIMl1bQ0BdMzRbQ0gzXQ==

>  <s_epik_cmdline>  (350) 
J2VwaWtfcHl0aG9uJywgJy1waHQnLCAnMi4wJywgJy1waCcsICc3LjAnLCAnLXRuJywgJzgnLCAnLW1hJywgJzIwMCcsICctaW1hZScsICc8aW5maWxlLm1hZT4nLCAnLW9tYWUnLCAnPG91dGZpbGUubWFlPic=

>  <r_lp_tautomer_probability>  (350) 
1

>  <r_epik_Ionization_Penalty>  (350) 
9.20666e-07

>  <r_epik_Ionization_Penalty_Charging>  (350) 
0

>  <r_epik_Ionization_Penalty_Neutral>  (350) 
9.20666e-07

>  <r_epik_State_Penalty>  (350) 
-0

>  <r_epik_Charging_Adjusted_Penalty>  (350) 
0

>  <i_epik_Tot_Q>  (350) 
0

>  <i_epik_Tot_abs_Q>  (350) 
0

>  <s_lp_Force_Field>  (350) 
OPLS3e

>  <r_lp_Energy>  (350) 
65.4286

>  <b_lp_Chiralities_Consistent>  (350) 
1

>  <s_lp_Variant>  (350) 
100:0-1

>  <s_i_glide_gridfile>  (350) 
pfpi4k_grid

>  <i_i_glide_lignum>  (350) 
12

>  <i_i_glide_rotatable_bonds>  (350) 
2

>  <r_i_docking_score>  (350) 
-2.89713

>  <r_i_glide_ligand_efficiency>  (350) 
-0.0934559

>  <r_i_glide_ligand_efficiency_sa>  (350) 
-0.293581

>  <r_i_glide_ligand_efficiency_ln>  (350) 
-0.653392

>  <r_i_glide_gscore>  (350) 
-2.89713

>  <r_i_glide_lipo>  (350) 
-0.805565

>  <r_i_glide_hbond>  (350) 
0

>  <r_i_glide_metal>  (350) 
-0

>  <r_i_glide_rewards>  (350) 
-0.513399

>  <r_i_glide_evdw>  (350) 
-33.7134

>  <r_i_glide_ecoul>  (350) 
-0.0162883

>  <r_i_glide_erotb>  (350) 
0.109944

>  <r_i_glide_esite>  (350) 
0

>  <r_i_glide_emodel>  (350) 
-37.9041

>  <r_i_glide_energy>  (350) 
-33.7297

>  <r_i_glide_einternal>  (350) 
2.92125

>  <r_i_glide_intrahb_reward>  (350) 
-0

>  <i_i_glide_confnum>  (350) 
3

>  <i_i_glide_posenum>  (350) 
20

>  <r_i_glide_eff_state_penalty>  (350) 
0

>  <ligand_id>  (350) 
100

>  <original_smiles>  (350) 
CC=C(C)C1C(O)CC2(C)C1CC1(C)C2CC=C2C3CC(C)(C)CCC3(C)CCC21C

>  <smiles>  (350) 
[H]OC1([H])C([H])([H])C2(C([H])([H])[H])C([H])(C([H])([H])C3(C([H])([H])[H])C2([H])C([H])([H])C([H])=C2C4([H])C([H])([H])C(C([H])([H])[H])(C([H])([H])[H])C([H])([H])C([H])([H])C4(C([H])([H])[H])C([H])([H])C([H])([H])C23C([H])([H])[H])C1([H])C(=C([H])C([H])([H])[H])C([H])([H])[H]

$$$$
100:0:2
     RDKit          3D

 79 83  0  0  1  0  0  0  0  0999 V2000
    0.3512   -9.2823    6.7033 C   0  0  0  0  0  0  0  0  0  0  0  0
   -0.4755   -9.0555    5.4597 C   0  0  0  0  0  0  0  0  0  0  0  0
   -0.0913   -8.8666    4.1835 C   0  0  0  0  0  0  0  0  0  0  0  0
   -1.1342   -8.6046    3.1036 C   0  0  0  0  0  0  0  0  0  0  0  0
    1.3460   -8.8423    3.6824 C   0  0  2  0  0  0  0  0  0  0  0  0
    2.1639  -10.1080    3.9473 C   0  0  1  0  0  0  0  0  0  0  0  0
    1.7762  -11.1536    3.1057 O   0  0  0  0  0  0  0  0  0  0  0  0
    3.6125   -9.6692    3.7234 C   0  0  0  0  0  0  0  0  0  0  0  0
    3.6791   -8.1853    4.2154 C   0  0  2  0  0  0  0  0  0  0  0  0
    4.3154   -8.2438    5.6343 C   0  0  0  0  0  0  0  0  0  0  0  0
    2.2084   -7.7007    4.2331 C   0  0  1  0  0  0  0  0  0  0  0  0
    2.1416   -6.3695    3.4459 C   0  0  0  0  0  0  0  0  0  0  0  0
    3.5718   -5.7581    3.4832 C   0  0  1  0  0  0  0  0  0  0  0  0
    3.7265   -5.1352    4.9054 C   0  0  0  0  0  0  0  0  0  0  0  0
    4.3775   -7.0922    3.3239 C   0  0  2  0  0  0  0  0  0  0  0  0
    4.4018   -7.5603    1.8461 C   0  0  0  0  0  0  0  0  0  0  0  0
    4.6046   -6.4783    0.8415 C   0  0  0  0  0  0  0  0  0  0  0  0
    4.3932   -5.1764    1.0339 C   0  0  0  0  0  0  0  0  0  0  0  0
    4.8847   -4.2003   -0.0459 C   0  0  1  0  0  0  0  0  0  0  0  0
    3.7682   -3.4535   -0.8110 C   0  0  0  0  0  0  0  0  0  0  0  0
    4.3155   -2.5801   -1.9660 C   0  0  0  0  0  0  0  0  0  0  0  0
    5.0104   -3.4271   -3.0508 C   0  0  0  0  0  0  0  0  0  0  0  0
    3.1551   -1.8320   -2.6503 C   0  0  0  0  0  0  0  0  0  0  0  0
    5.2833   -1.5544   -1.3362 C   0  0  0  0  0  0  0  0  0  0  0  0
    6.4305   -2.2157   -0.5552 C   0  0  0  0  0  0  0  0  0  0  0  0
    6.0078   -3.2765    0.5040 C   0  0  2  0  0  0  0  0  0  0  0  0
    7.2736   -4.1118    0.8029 C   0  0  0  0  0  0  0  0  0  0  0  0
    5.5134   -2.6121    1.8097 C   0  0  0  0  0  0  0  0  0  0  0  0
    5.0113   -3.6272    2.8696 C   0  0  0  0  0  0  0  0  0  0  0  0
    3.8849   -4.6109    2.3971 C   0  0  2  0  0  0  0  0  0  0  0  0
    2.5918   -3.7891    2.2056 C   0  0  0  0  0  0  0  0  0  0  0  0
    0.0310  -10.2028    7.1739 H   0  0  0  0  0  0  0  0  0  0  0  0
    0.1777   -8.4826    7.4187 H   0  0  0  0  0  0  0  0  0  0  0  0
    1.4249   -9.3685    6.5261 H   0  0  0  0  0  0  0  0  0  0  0  0
   -1.5352   -9.0307    5.6491 H   0  0  0  0  0  0  0  0  0  0  0  0
   -1.0705   -7.5774    2.7274 H   0  0  0  0  0  0  0  0  0  0  0  0
   -2.1480   -8.7556    3.4797 H   0  0  0  0  0  0  0  0  0  0  0  0
   -1.0064   -9.2743    2.2500 H   0  0  0  0  0  0  0  0  0  0  0  0
    1.2962   -8.7339    2.5961 H   0  0  0  0  0  0  0  0  0  0  0  0
    2.0737  -10.4934    4.9755 H   0  0  0  0  0  0  0  0  0  0  0  0
    1.0171  -11.5899    3.4933 H   0  0  0  0  0  0  0  0  0  0  0  0
    4.2834  -10.3149    4.2834 H   0  0  0  0  0  0  0  0  0  0  0  0
    3.8891   -9.8292    2.6817 H   0  0  0  0  0  0  0  0  0  0  0  0
    4.4823   -7.2840    6.1128 H   0  0  0  0  0  0  0  0  0  0  0  0
    5.2966   -8.7158    5.5930 H   0  0  0  0  0  0  0  0  0  0  0  0
    3.7114   -8.8345    6.3204 H   0  0  0  0  0  0  0  0  0  0  0  0
    1.9194   -7.5019    5.2598 H   0  0  0  0  0  0  0  0  0  0  0  0
    1.8446   -6.5440    2.4093 H   0  0  0  0  0  0  0  0  0  0  0  0
    1.3897   -5.7071    3.8809 H   0  0  0  0  0  0  0  0  0  0  0  0
    4.7752   -5.0548    5.1961 H   0  0  0  0  0  0  0  0  0  0  0  0
    3.2099   -5.6921    5.6802 H   0  0  0  0  0  0  0  0  0  0  0  0
    3.2831   -4.1427    4.9688 H   0  0  0  0  0  0  0  0  0  0  0  0
    5.4112   -6.9308    3.6455 H   0  0  0  0  0  0  0  0  0  0  0  0
    5.2091   -8.2787    1.7168 H   0  0  0  0  0  0  0  0  0  0  0  0
    3.4661   -8.0384    1.5534 H   0  0  0  0  0  0  0  0  0  0  0  0
    4.9901   -6.8271   -0.1091 H   0  0  0  0  0  0  0  0  0  0  0  0
    5.3664   -4.8325   -0.7933 H   0  0  0  0  0  0  0  0  0  0  0  0
    3.0343   -4.1645   -1.1888 H   0  0  0  0  0  0  0  0  0  0  0  0
    3.2297   -2.7879   -0.1539 H   0  0  0  0  0  0  0  0  0  0  0  0
    5.2925   -2.8163   -3.9122 H   0  0  0  0  0  0  0  0  0  0  0  0
    4.3477   -4.2205   -3.4082 H   0  0  0  0  0  0  0  0  0  0  0  0
    5.9214   -3.9011   -2.6906 H   0  0  0  0  0  0  0  0  0  0  0  0
    3.5151   -1.1948   -3.4652 H   0  0  0  0  0  0  0  0  0  0  0  0
    2.6143   -1.2000   -1.9489 H   0  0  0  0  0  0  0  0  0  0  0  0
    2.4366   -2.5373   -3.0744 H   0  0  0  0  0  0  0  0  0  0  0  0
    5.6874   -0.9017   -2.1112 H   0  0  0  0  0  0  0  0  0  0  0  0
    4.7352   -0.8989   -0.6661 H   0  0  0  0  0  0  0  0  0  0  0  0
    7.1242   -2.6663   -1.2683 H   0  0  0  0  0  0  0  0  0  0  0  0
    6.9982   -1.4379   -0.0535 H   0  0  0  0  0  0  0  0  0  0  0  0
    8.0658   -3.4924    1.2249 H   0  0  0  0  0  0  0  0  0  0  0  0
    7.6627   -4.5681   -0.1069 H   0  0  0  0  0  0  0  0  0  0  0  0
    7.0808   -4.9248    1.5015 H   0  0  0  0  0  0  0  0  0  0  0  0
    6.3185   -2.0207    2.2462 H   0  0  0  0  0  0  0  0  0  0  0  0
    4.7337   -1.8907    1.5811 H   0  0  0  0  0  0  0  0  0  0  0  0
    5.8509   -4.2152    3.2340 H   0  0  0  0  0  0  0  0  0  0  0  0
    4.6721   -3.0351    3.7202 H   0  0  0  0  0  0  0  0  0  0  0  0
    2.0406   -3.6602    3.1369 H   0  0  0  0  0  0  0  0  0  0  0  0
    1.9282   -4.2714    1.4918 H   0  0  0  0  0  0  0  0  0  0  0  0
    2.7748   -2.7780    1.8654 H   0  0  0  0  0  0  0  0  0  0  0  0
  1  2  1  0
  1 32  1  0
  1 33  1  0
  1 34  1  0
  2  3  2  3
  2 35  1  0
  3  4  1  0
  3  5  1  0
  4 36  1  0
  4 37  1  0
  4 38  1  0
  5 11  1  0
  5  6  1  0
  5 39  1  6
  6  7  1  0
  6  8  1  0
  6 40  1  1
  7 41  1  0
  8  9  1  0
  8 42  1  0
  8 43  1  0
  9 15  1  0
  9 10  1  1
  9 11  1  0
 10 44  1  0
 10 45  1  0
 10 46  1  0
 11 12  1  0
 11 47  1  1
 12 13  1  0
 12 48  1  0
 12 49  1  0
 13 30  1  0
 13 14  1  1
 13 15  1  0
 14 50  1  0
 14 51  1  0
 14 52  1  0
 15 16  1  0
 15 53  1  1
 16 17  1  0
 16 54  1  0
 16 55  1  0
 17 18  2  0
 17 56  1  0
 18 30  1  0
 18 19  1  0
 19 26  1  0
 19 20  1  0
 19 57  1  6
 20 21  1  0
 20 58  1  0
 20 59  1  0
 21 22  1  0
 21 23  1  0
 21 24  1  0
 22 60  1  0
 22 61  1  0
 22 62  1  0
 23 63  1  0
 23 64  1  0
 23 65  1  0
 24 25  1  0
 24 66  1  0
 24 67  1  0
 25 26  1  0
 25 68  1  0
 25 69  1  0
 26 27  1  1
 26 28  1  0
 27 70  1  0
 27 71  1  0
 27 72  1  0
 28 29  1  0
 28 73  1  0
 28 74  1  0
 29 30  1  0
 29 75  1  0
 29 76  1  0
 30 31  1  6
 31 77  1  0
 31 78  1  0
 31 79  1  0
M  END
>  <i_m_ct_stereo_status>  (351) 
1

>  <s_m_source_file>  (351) 
/var/tmp/pbs.5076255.sched01/tmp2gi29psn/132an720x3a.sdf

>  <i_m_source_file_index>  (351) 
12

>  <i_lp_mmshare_version>  (351) 
48012

>  <i_f3d_flags>  (351) 
0

>  <s_epik_input>  (351) 
W0NIM10vW0NIXT1DKC9bQ0gzXSlbQ0BIXShbQ0BASF0oW09IXSlbQ0gyXTEpW0NAQEhdKFtDQEBdMTJbQ0gzXSlbQ0gyXVtDQEBdMyhbQ0gzXSlbQ0BASF0yW0NIMl1bQ0hdPUM0W0NAQEhdNVtDQEBdKFtDSDNdKShbQ0gyXVtDSDJdQyhbQ0gyXTUpKFtDSDNdKVtDSDNdKVtDSDJdW0NIMl1bQ0BdMzRbQ0gzXQ==

>  <s_epik_cmdline>  (351) 
J2VwaWtfcHl0aG9uJywgJy1waHQnLCAnMi4wJywgJy1waCcsICc3LjAnLCAnLXRuJywgJzgnLCAnLW1hJywgJzIwMCcsICctaW1hZScsICc8aW5maWxlLm1hZT4nLCAnLW9tYWUnLCAnPG91dGZpbGUubWFlPic=

>  <r_lp_tautomer_probability>  (351) 
1

>  <r_epik_Ionization_Penalty>  (351) 
9.20666e-07

>  <r_epik_Ionization_Penalty_Charging>  (351) 
0

>  <r_epik_Ionization_Penalty_Neutral>  (351) 
9.20666e-07

>  <r_epik_State_Penalty>  (351) 
-0

>  <r_epik_Charging_Adjusted_Penalty>  (351) 
0

>  <i_epik_Tot_Q>  (351) 
0

>  <i_epik_Tot_abs_Q>  (351) 
0

>  <s_lp_Force_Field>  (351) 
OPLS3e

>  <r_lp_Energy>  (351) 
65.4286

>  <b_lp_Chiralities_Consistent>  (351) 
1

>  <s_lp_Variant>  (351) 
100:0-1

>  <s_i_glide_gridfile>  (351) 
pfpi4k_grid

>  <i_i_glide_lignum>  (351) 
12

>  <i_i_glide_rotatable_bonds>  (351) 
2

>  <r_i_docking_score>  (351) 
-2.83317

>  <r_i_glide_ligand_efficiency>  (351) 
-0.0913924

>  <r_i_glide_ligand_efficiency_sa>  (351) 
-0.287098

>  <r_i_glide_ligand_efficiency_ln>  (351) 
-0.638966

>  <r_i_glide_gscore>  (351) 
-2.83317

>  <r_i_glide_lipo>  (351) 
-0.752078

>  <r_i_glide_hbond>  (351) 
0

>  <r_i_glide_metal>  (351) 
-0

>  <r_i_glide_rewards>  (351) 
-0.513399

>  <r_i_glide_evdw>  (351) 
-34.0572

>  <r_i_glide_ecoul>  (351) 
0.168174

>  <r_i_glide_erotb>  (351) 
0.109944

>  <r_i_glide_esite>  (351) 
0

>  <r_i_glide_emodel>  (351) 
-38.0052

>  <r_i_glide_energy>  (351) 
-33.889

>  <r_i_glide_einternal>  (351) 
2.89968

>  <r_i_glide_intrahb_reward>  (351) 
-0

>  <i_i_glide_confnum>  (351) 
3

>  <i_i_glide_posenum>  (351) 
15

>  <r_i_glide_eff_state_penalty>  (351) 
0

>  <ligand_id>  (351) 
100

>  <original_smiles>  (351) 
CC=C(C)C1C(O)CC2(C)C1CC1(C)C2CC=C2C3CC(C)(C)CCC3(C)CCC21C

>  <smiles>  (351) 
[H]OC1([H])C([H])([H])C2(C([H])([H])[H])C([H])(C([H])([H])C3(C([H])([H])[H])C2([H])C([H])([H])C([H])=C2C4([H])C([H])([H])C(C([H])([H])[H])(C([H])([H])[H])C([H])([H])C([H])([H])C4(C([H])([H])[H])C([H])([H])C([H])([H])C23C([H])([H])[H])C1([H])C(=C([H])C([H])([H])[H])C([H])([H])[H]

$$$$
100:1:0
     RDKit          3D

 79 83  0  0  1  0  0  0  0  0999 V2000
   -2.0273   -8.6190    3.6725 C   0  0  0  0  0  0  0  0  0  0  0  0
   -0.5598   -8.6171    3.2866 C   0  0  0  0  0  0  0  0  0  0  0  0
    0.4940   -8.8974    4.0791 C   0  0  0  0  0  0  0  0  0  0  0  0
    0.3840   -9.3149    5.5530 C   0  0  0  0  0  0  0  0  0  0  0  0
    1.9109   -8.7953    3.5120 C   0  0  2  0  0  0  0  0  0  0  0  0
    2.8441   -9.9729    3.8089 C   0  0  1  0  0  0  0  0  0  0  0  0
    2.5453  -11.1321    3.0594 O   0  0  0  0  0  0  0  0  0  0  0  0
    4.2392   -9.4280    3.5167 C   0  0  0  0  0  0  0  0  0  0  0  0
    4.1972   -7.9258    3.9624 C   0  0  2  0  0  0  0  0  0  0  0  0
    4.8935   -7.8934    5.3518 C   0  0  0  0  0  0  0  0  0  0  0  0
    2.6916   -7.5714    4.0263 C   0  0  1  0  0  0  0  0  0  0  0  0
    2.4806   -6.2695    3.2124 C   0  0  0  0  0  0  0  0  0  0  0  0
    3.8543   -5.5489    3.1662 C   0  0  1  0  0  0  0  0  0  0  0  0
    4.0256   -4.8719    4.5574 C   0  0  0  0  0  0  0  0  0  0  0  0
    4.7614   -6.8173    2.9992 C   0  0  2  0  0  0  0  0  0  0  0  0
    4.7486   -7.3362    1.5413 C   0  0  0  0  0  0  0  0  0  0  0  0
    4.7960   -6.2773    0.4929 C   0  0  0  0  0  0  0  0  0  0  0  0
    4.4910   -4.9847    0.6712 C   0  0  0  0  0  0  0  0  0  0  0  0
    4.8442   -4.0142   -0.4668 C   0  0  1  0  0  0  0  0  0  0  0  0
    3.6268   -3.3838   -1.1831 C   0  0  0  0  0  0  0  0  0  0  0  0
    4.0497   -2.5259   -2.3917 C   0  0  0  0  0  0  0  0  0  0  0  0
    4.7656   -3.3614   -3.4700 C   0  0  0  0  0  0  0  0  0  0  0  0
    2.8102   -1.9009   -3.0564 C   0  0  0  0  0  0  0  0  0  0  0  0
    4.9496   -1.3961   -1.8536 C   0  0  0  0  0  0  0  0  0  0  0  0
    6.1841   -1.9259   -1.1131 C   0  0  0  0  0  0  0  0  0  0  0  0
    5.9178   -2.9874   -0.0094 C   0  0  2  0  0  0  0  0  0  0  0  0
    7.2697   -3.7016    0.2336 C   0  0  0  0  0  0  0  0  0  0  0  0
    5.4512   -2.3204    1.3024 C   0  0  0  0  0  0  0  0  0  0  0  0
    5.0867   -3.3366    2.4153 C   0  0  0  0  0  0  0  0  0  0  0  0
    4.0186   -4.4175    2.0307 C   0  0  2  0  0  0  0  0  0  0  0  0
    2.6506   -3.7048    1.8848 C   0  0  0  0  0  0  0  0  0  0  0  0
   -2.5451   -9.4510    3.1971 H   0  0  0  0  0  0  0  0  0  0  0  0
   -2.5232   -7.6943    3.3710 H   0  0  0  0  0  0  0  0  0  0  0  0
   -2.1649   -8.6931    4.7433 H   0  0  0  0  0  0  0  0  0  0  0  0
   -0.3827   -8.3582    2.2464 H   0  0  0  0  0  0  0  0  0  0  0  0
    0.8338   -8.5694    6.2039 H   0  0  0  0  0  0  0  0  0  0  0  0
    0.8717  -10.2720    5.7410 H   0  0  0  0  0  0  0  0  0  0  0  0
   -0.6358   -9.4534    5.8974 H   0  0  0  0  0  0  0  0  0  0  0  0
    1.8269   -8.7200    2.4254 H   0  0  0  0  0  0  0  0  0  0  0  0
    2.8290  -10.2311    4.8668 H   0  0  0  0  0  0  0  0  0  0  0  0
    2.9393  -11.0723    2.1996 H   0  0  0  0  0  0  0  0  0  0  0  0
    4.9750  -10.0045    4.0768 H   0  0  0  0  0  0  0  0  0  0  0  0
    4.4835   -9.6006    2.4716 H   0  0  0  0  0  0  0  0  0  0  0  0
    5.0003   -6.9096    5.7942 H   0  0  0  0  0  0  0  0  0  0  0  0
    5.9068   -8.2882    5.2787 H   0  0  0  0  0  0  0  0  0  0  0  0
    4.3624   -8.5114    6.0767 H   0  0  0  0  0  0  0  0  0  0  0  0
    2.4274   -7.3862    5.0657 H   0  0  0  0  0  0  0  0  0  0  0  0
    2.1481   -6.4988    2.1987 H   0  0  0  0  0  0  0  0  0  0  0  0
    1.6963   -5.6617    3.6679 H   0  0  0  0  0  0  0  0  0  0  0  0
    5.0769   -4.7029    4.7946 H   0  0  0  0  0  0  0  0  0  0  0  0
    3.5863   -5.4411    5.3716 H   0  0  0  0  0  0  0  0  0  0  0  0
    3.5100   -3.9143    4.6114 H   0  0  0  0  0  0  0  0  0  0  0  0
    5.7911   -6.5692    3.2648 H   0  0  0  0  0  0  0  0  0  0  0  0
    5.6124   -7.9837    1.3857 H   0  0  0  0  0  0  0  0  0  0  0  0
    3.8487   -7.9065    1.3079 H   0  0  0  0  0  0  0  0  0  0  0  0
    5.1363   -6.6149   -0.4682 H   0  0  0  0  0  0  0  0  0  0  0  0
    5.3348   -4.6295   -1.2191 H   0  0  0  0  0  0  0  0  0  0  0  0
    2.9351   -4.1589   -1.5089 H   0  0  0  0  0  0  0  0  0  0  0  0
    3.0713   -2.7293   -0.5244 H   0  0  0  0  0  0  0  0  0  0  0  0
    4.9477   -2.7170   -4.3180 H   0  0  0  0  0  0  0  0  0  0  0  0
    4.1490   -4.2111   -3.7866 H   0  0  0  0  0  0  0  0  0  0  0  0
    5.7316   -3.7567   -3.1435 H   0  0  0  0  0  0  0  0  0  0  0  0
    3.0744   -1.2541   -3.8997 H   0  0  0  0  0  0  0  0  0  0  0  0
    2.2606   -1.2899   -2.3421 H   0  0  0  0  0  0  0  0  0  0  0  0
    2.1304   -2.6705   -3.4304 H   0  0  0  0  0  0  0  0  0  0  0  0
    5.2567   -0.7365   -2.6658 H   0  0  0  0  0  0  0  0  0  0  0  0
    4.3829   -0.7618   -1.1771 H   0  0  0  0  0  0  0  0  0  0  0  0
    6.8804   -2.3280   -1.8522 H   0  0  0  0  0  0  0  0  0  0  0  0
    6.6788   -1.0805   -0.6455 H   0  0  0  0  0  0  0  0  0  0  0  0
    8.0248   -3.0064    0.6024 H   0  0  0  0  0  0  0  0  0  0  0  0
    7.6529   -4.1378   -0.6888 H   0  0  0  0  0  0  0  0  0  0  0  0
    7.1845   -4.5133    0.9542 H   0  0  0  0  0  0  0  0  0  0  0  0
    6.2340   -1.6591    1.6760 H   0  0  0  0  0  0  0  0  0  0  0  0
    4.6066   -1.6658    1.0988 H   0  0  0  0  0  0  0  0  0  0  0  0
    5.9942   -3.8457    2.7380 H   0  0  0  0  0  0  0  0  0  0  0  0
    4.7544   -2.7461    3.2678 H   0  0  0  0  0  0  0  0  0  0  0  0
    2.1389   -3.5856    2.8373 H   0  0  0  0  0  0  0  0  0  0  0  0
    1.9943   -4.2627    1.2194 H   0  0  0  0  0  0  0  0  0  0  0  0
    2.7355   -2.6943    1.5032 H   0  0  0  0  0  0  0  0  0  0  0  0
  1  2  1  0
  1 32  1  0
  1 33  1  0
  1 34  1  0
  2  3  2  3
  2 35  1  0
  3  4  1  0
  3  5  1  0
  4 36  1  0
  4 37  1  0
  4 38  1  0
  5 11  1  0
  5  6  1  0
  5 39  1  6
  6  7  1  0
  6  8  1  0
  6 40  1  1
  7 41  1  0
  8  9  1  0
  8 42  1  0
  8 43  1  0
  9 15  1  0
  9 10  1  1
  9 11  1  0
 10 44  1  0
 10 45  1  0
 10 46  1  0
 11 12  1  0
 11 47  1  1
 12 13  1  0
 12 48  1  0
 12 49  1  0
 13 30  1  0
 13 14  1  1
 13 15  1  0
 14 50  1  0
 14 51  1  0
 14 52  1  0
 15 16  1  0
 15 53  1  1
 16 17  1  0
 16 54  1  0
 16 55  1  0
 17 18  2  0
 17 56  1  0
 18 30  1  0
 18 19  1  0
 19 26  1  0
 19 20  1  0
 19 57  1  6
 20 21  1  0
 20 58  1  0
 20 59  1  0
 21 22  1  0
 21 23  1  0
 21 24  1  0
 22 60  1  0
 22 61  1  0
 22 62  1  0
 23 63  1  0
 23 64  1  0
 23 65  1  0
 24 25  1  0
 24 66  1  0
 24 67  1  0
 25 26  1  0
 25 68  1  0
 25 69  1  0
 26 27  1  1
 26 28  1  0
 27 70  1  0
 27 71  1  0
 27 72  1  0
 28 29  1  0
 28 73  1  0
 28 74  1  0
 29 30  1  0
 29 75  1  0
 29 76  1  0
 30 31  1  6
 31 77  1  0
 31 78  1  0
 31 79  1  0
M  END
>  <i_m_ct_stereo_status>  (352) 
1

>  <s_m_source_file>  (352) 
/var/tmp/pbs.5076255.sched01/tmp2gi29psn/132an720x3a.sdf

>  <i_m_source_file_index>  (352) 
13

>  <i_lp_mmshare_version>  (352) 
48012

>  <i_f3d_flags>  (352) 
0

>  <s_epik_input>  (352) 
W0NIM10vW0NIXT1DKC9bQ0gzXSlbQ0BIXShbQ0BASF0oW09IXSlbQ0gyXTEpW0NAQEhdKFtDQEBdMTJbQ0gzXSlbQ0gyXVtDQEBdMyhbQ0gzXSlbQ0BASF0yW0NIMl1bQ0hdPUM0W0NAQEhdNVtDQEBdKFtDSDNdKShbQ0gyXVtDSDJdQyhbQ0gyXTUpKFtDSDNdKVtDSDNdKVtDSDJdW0NIMl1bQ0BdMzRbQ0gzXQ==

>  <s_epik_cmdline>  (352) 
J2VwaWtfcHl0aG9uJywgJy1waHQnLCAnMi4wJywgJy1waCcsICc3LjAnLCAnLXRuJywgJzgnLCAnLW1hJywgJzIwMCcsICctaW1hZScsICc8aW5maWxlLm1hZT4nLCAnLW9tYWUnLCAnPG91dGZpbGUubWFlPic=

>  <r_lp_tautomer_probability>  (352) 
1

>  <r_epik_Ionization_Penalty>  (352) 
9.20666e-07

>  <r_epik_Ionization_Penalty_Charging>  (352) 
0

>  <r_epik_Ionization_Penalty_Neutral>  (352) 
9.20666e-07

>  <r_epik_State_Penalty>  (352) 
-0

>  <r_epik_Charging_Adjusted_Penalty>  (352) 
0

>  <i_epik_Tot_Q>  (352) 
0

>  <i_epik_Tot_abs_Q>  (352) 
0

>  <s_lp_Force_Field>  (352) 
OPLS3e

>  <r_lp_Energy>  (352) 
66.571

>  <b_lp_Chiralities_Consistent>  (352) 
1

>  <s_lp_Variant>  (352) 
100:0-2

>  <s_i_glide_gridfile>  (352) 
pfpi4k_grid

>  <i_i_glide_lignum>  (352) 
13

>  <i_i_glide_rotatable_bonds>  (352) 
2

>  <r_i_docking_score>  (352) 
-2.94479

>  <r_i_glide_ligand_efficiency>  (352) 
-0.0949933

>  <r_i_glide_ligand_efficiency_sa>  (352) 
-0.29841

>  <r_i_glide_ligand_efficiency_ln>  (352) 
-0.664141

>  <r_i_glide_gscore>  (352) 
-2.94479

>  <r_i_glide_lipo>  (352) 
-0.93658

>  <r_i_glide_hbond>  (352) 
0

>  <r_i_glide_metal>  (352) 
-0

>  <r_i_glide_rewards>  (352) 
-0.513399

>  <r_i_glide_evdw>  (352) 
-32.0133

>  <r_i_glide_ecoul>  (352) 
-0.0272641

>  <r_i_glide_erotb>  (352) 
0.109944

>  <r_i_glide_esite>  (352) 
0

>  <r_i_glide_emodel>  (352) 
-36.633

>  <r_i_glide_energy>  (352) 
-32.0406

>  <r_i_glide_einternal>  (352) 
1.27472

>  <r_i_glide_intrahb_reward>  (352) 
-0

>  <i_i_glide_confnum>  (352) 
1

>  <i_i_glide_posenum>  (352) 
30

>  <r_i_glide_eff_state_penalty>  (352) 
0

>  <ligand_id>  (352) 
100

>  <original_smiles>  (352) 
CC=C(C)C1C(O)CC2(C)C1CC1(C)C2CC=C2C3CC(C)(C)CCC3(C)CCC21C

>  <smiles>  (352) 
[H]OC1([H])C([H])([H])C2(C([H])([H])[H])C([H])(C([H])([H])C3(C([H])([H])[H])C2([H])C([H])([H])C([H])=C2C4([H])C([H])([H])C(C([H])([H])[H])(C([H])([H])[H])C([H])([H])C([H])([H])C4(C([H])([H])[H])C([H])([H])C([H])([H])C23C([H])([H])[H])C1([H])C(=C([H])C([H])([H])[H])C([H])([H])[H]

$$$$
100:1:1
     RDKit          3D

 79 83  0  0  1  0  0  0  0  0999 V2000
    2.8940   -8.0890    2.9268 C   0  0  0  0  0  0  0  0  0  0  0  0
    2.9530   -6.6969    2.3234 C   0  0  0  0  0  0  0  0  0  0  0  0
    2.5642   -5.5307    2.8830 C   0  0  0  0  0  0  0  0  0  0  0  0
    1.9654   -5.4373    4.2852 C   0  0  0  0  0  0  0  0  0  0  0  0
    2.6668   -4.1766    2.1524 C   0  0  2  0  0  0  0  0  0  0  0  0
    3.1959   -4.2141    0.7087 C   0  0  1  0  0  0  0  0  0  0  0  0
    2.2296   -4.7167   -0.2010 O   0  0  0  0  0  0  0  0  0  0  0  0
    3.5659   -2.7639    0.3987 C   0  0  0  0  0  0  0  0  0  0  0  0
    4.1189   -2.1839    1.7437 C   0  0  2  0  0  0  0  0  0  0  0  0
    5.6614   -2.2143    1.5845 C   0  0  0  0  0  0  0  0  0  0  0  0
    3.5941   -3.1492    2.8396 C   0  0  1  0  0  0  0  0  0  0  0  0
    2.9229   -2.2683    3.9302 C   0  0  0  0  0  0  0  0  0  0  0  0
    3.5277   -0.8502    3.8139 C   0  0  1  0  0  0  0  0  0  0  0  0
    4.9316   -0.9440    4.4809 C   0  0  0  0  0  0  0  0  0  0  0  0
    3.6105   -0.7799    2.2506 C   0  0  2  0  0  0  0  0  0  0  0  0
    2.2254   -0.4691    1.6472 C   0  0  0  0  0  0  0  0  0  0  0  0
    1.4196    0.5627    2.3611 C   0  0  0  0  0  0  0  0  0  0  0  0
    1.5904    0.9395    3.6333 C   0  0  0  0  0  0  0  0  0  0  0  0
    0.8208    2.1789    4.1174 C   0  0  1  0  0  0  0  0  0  0  0  0
   -0.2695    1.8988    5.1822 C   0  0  0  0  0  0  0  0  0  0  0  0
   -1.0859    3.1588    5.5430 C   0  0  0  0  0  0  0  0  0  0  0  0
   -1.8681    3.7019    4.3219 C   0  0  0  0  0  0  0  0  0  0  0  0
   -2.1091    2.8137    6.6433 C   0  0  0  0  0  0  0  0  0  0  0  0
   -0.0877    4.2019    6.0900 C   0  0  0  0  0  0  0  0  0  0  0  0
    1.0332    4.5448    5.0946 C   0  0  0  0  0  0  0  0  0  0  0  0
    1.7968    3.3312    4.4870 C   0  0  2  0  0  0  0  0  0  0  0  0
    2.4955    3.8500    3.2050 C   0  0  0  0  0  0  0  0  0  0  0  0
    2.8675    2.7888    5.4631 C   0  0  0  0  0  0  0  0  0  0  0  0
    3.6047    1.5287    4.9400 C   0  0  0  0  0  0  0  0  0  0  0  0
    2.6892    0.3240    4.5350 C   0  0  2  0  0  0  0  0  0  0  0  0
    2.0719   -0.2686    5.8311 C   0  0  0  0  0  0  0  0  0  0  0  0
    3.9054   -8.4375    3.1316 H   0  0  0  0  0  0  0  0  0  0  0  0
    2.4428   -8.7677    2.2035 H   0  0  0  0  0  0  0  0  0  0  0  0
    2.3123   -8.1621    3.8430 H   0  0  0  0  0  0  0  0  0  0  0  0
    3.3690   -6.7130    1.3262 H   0  0  0  0  0  0  0  0  0  0  0  0
    0.9295   -5.0995    4.2341 H   0  0  0  0  0  0  0  0  0  0  0  0
    2.5247   -4.7378    4.9004 H   0  0  0  0  0  0  0  0  0  0  0  0
    1.9813   -6.3767    4.8310 H   0  0  0  0  0  0  0  0  0  0  0  0
    1.6604   -3.7644    2.1105 H   0  0  0  0  0  0  0  0  0  0  0  0
    4.1102   -4.8046    0.6490 H   0  0  0  0  0  0  0  0  0  0  0  0
    2.6503   -4.9395   -1.0219 H   0  0  0  0  0  0  0  0  0  0  0  0
    4.2959   -2.7326   -0.4107 H   0  0  0  0  0  0  0  0  0  0  0  0
    2.6931   -2.2540   -0.0016 H   0  0  0  0  0  0  0  0  0  0  0  0
    6.2115   -1.7964    2.4194 H   0  0  0  0  0  0  0  0  0  0  0  0
    5.9691   -1.6341    0.7135 H   0  0  0  0  0  0  0  0  0  0  0  0
    6.0244   -3.2320    1.4387 H   0  0  0  0  0  0  0  0  0  0  0  0
    4.4408   -3.6863    3.2656 H   0  0  0  0  0  0  0  0  0  0  0  0
    1.8431   -2.2300    3.7820 H   0  0  0  0  0  0  0  0  0  0  0  0
    3.0958   -2.6783    4.9210 H   0  0  0  0  0  0  0  0  0  0  0  0
    5.6076   -0.1727    4.1109 H   0  0  0  0  0  0  0  0  0  0  0  0
    5.4125   -1.9079    4.3384 H   0  0  0  0  0  0  0  0  0  0  0  0
    4.8724   -0.8525    5.5636 H   0  0  0  0  0  0  0  0  0  0  0  0
    4.2995    0.0148    1.9541 H   0  0  0  0  0  0  0  0  0  0  0  0
    2.3714   -0.0992    0.6323 H   0  0  0  0  0  0  0  0  0  0  0  0
    1.5781   -1.3471    1.6046 H   0  0  0  0  0  0  0  0  0  0  0  0
    0.6740    1.0449    1.7458 H   0  0  0  0  0  0  0  0  0  0  0  0
    0.2727    2.5307    3.2435 H   0  0  0  0  0  0  0  0  0  0  0  0
   -0.9293    1.1025    4.8417 H   0  0  0  0  0  0  0  0  0  0  0  0
    0.1776    1.5496    6.1058 H   0  0  0  0  0  0  0  0  0  0  0  0
   -2.5198    4.5320    4.6088 H   0  0  0  0  0  0  0  0  0  0  0  0
   -2.4948    2.9202    3.8817 H   0  0  0  0  0  0  0  0  0  0  0  0
   -1.2160    4.0745    3.5285 H   0  0  0  0  0  0  0  0  0  0  0  0
   -2.6899    3.6924    6.9406 H   0  0  0  0  0  0  0  0  0  0  0  0
   -1.6209    2.4251    7.5387 H   0  0  0  0  0  0  0  0  0  0  0  0
   -2.8187    2.0596    6.2981 H   0  0  0  0  0  0  0  0  0  0  0  0
   -0.6108    5.1150    6.3784 H   0  0  0  0  0  0  0  0  0  0  0  0
    0.3636    3.8279    7.0073 H   0  0  0  0  0  0  0  0  0  0  0  0
    0.6007    5.1375    4.2896 H   0  0  0  0  0  0  0  0  0  0  0  0
    1.7427    5.2123    5.5823 H   0  0  0  0  0  0  0  0  0  0  0  0
    3.2226    4.6291    3.4358 H   0  0  0  0  0  0  0  0  0  0  0  0
    1.7709    4.2760    2.5060 H   0  0  0  0  0  0  0  0  0  0  0  0
    3.0167    3.0625    2.6631 H   0  0  0  0  0  0  0  0  0  0  0  0
    3.6056    3.5651    5.6614 H   0  0  0  0  0  0  0  0  0  0  0  0
    2.4124    2.5808    6.4300 H   0  0  0  0  0  0  0  0  0  0  0  0
    4.2173    1.8066    4.0823 H   0  0  0  0  0  0  0  0  0  0  0  0
    4.3062    1.2376    5.7208 H   0  0  0  0  0  0  0  0  0  0  0  0
    2.7354   -0.9728    6.3280 H   0  0  0  0  0  0  0  0  0  0  0  0
    1.1366   -0.7881    5.6274 H   0  0  0  0  0  0  0  0  0  0  0  0
    1.8796    0.4800    6.5916 H   0  0  0  0  0  0  0  0  0  0  0  0
  1  2  1  0
  1 32  1  0
  1 33  1  0
  1 34  1  0
  2  3  2  3
  2 35  1  0
  3  4  1  0
  3  5  1  0
  4 36  1  0
  4 37  1  0
  4 38  1  0
  5 11  1  0
  5  6  1  0
  5 39  1  6
  6  7  1  0
  6  8  1  0
  6 40  1  1
  7 41  1  0
  8  9  1  0
  8 42  1  0
  8 43  1  0
  9 15  1  0
  9 10  1  6
  9 11  1  0
 10 44  1  0
 10 45  1  0
 10 46  1  0
 11 12  1  0
 11 47  1  1
 12 13  1  0
 12 48  1  0
 12 49  1  0
 13 30  1  0
 13 14  1  1
 13 15  1  0
 14 50  1  0
 14 51  1  0
 14 52  1  0
 15 16  1  0
 15 53  1  1
 16 17  1  0
 16 54  1  0
 16 55  1  0
 17 18  2  0
 17 56  1  0
 18 30  1  0
 18 19  1  0
 19 26  1  0
 19 20  1  0
 19 57  1  6
 20 21  1  0
 20 58  1  0
 20 59  1  0
 21 22  1  0
 21 23  1  0
 21 24  1  0
 22 60  1  0
 22 61  1  0
 22 62  1  0
 23 63  1  0
 23 64  1  0
 23 65  1  0
 24 25  1  0
 24 66  1  0
 24 67  1  0
 25 26  1  0
 25 68  1  0
 25 69  1  0
 26 27  1  6
 26 28  1  0
 27 70  1  0
 27 71  1  0
 27 72  1  0
 28 29  1  0
 28 73  1  0
 28 74  1  0
 29 30  1  0
 29 75  1  0
 29 76  1  0
 30 31  1  1
 31 77  1  0
 31 78  1  0
 31 79  1  0
M  END
>  <i_m_ct_stereo_status>  (353) 
1

>  <s_m_source_file>  (353) 
/var/tmp/pbs.5076255.sched01/tmp2gi29psn/132an720x3a.sdf

>  <i_m_source_file_index>  (353) 
13

>  <i_lp_mmshare_version>  (353) 
48012

>  <i_f3d_flags>  (353) 
0

>  <s_epik_input>  (353) 
W0NIM10vW0NIXT1DKC9bQ0gzXSlbQ0BIXShbQ0BASF0oW09IXSlbQ0gyXTEpW0NAQEhdKFtDQEBdMTJbQ0gzXSlbQ0gyXVtDQEBdMyhbQ0gzXSlbQ0BASF0yW0NIMl1bQ0hdPUM0W0NAQEhdNVtDQEBdKFtDSDNdKShbQ0gyXVtDSDJdQyhbQ0gyXTUpKFtDSDNdKVtDSDNdKVtDSDJdW0NIMl1bQ0BdMzRbQ0gzXQ==

>  <s_epik_cmdline>  (353) 
J2VwaWtfcHl0aG9uJywgJy1waHQnLCAnMi4wJywgJy1waCcsICc3LjAnLCAnLXRuJywgJzgnLCAnLW1hJywgJzIwMCcsICctaW1hZScsICc8aW5maWxlLm1hZT4nLCAnLW9tYWUnLCAnPG91dGZpbGUubWFlPic=

>  <r_lp_tautomer_probability>  (353) 
1

>  <r_epik_Ionization_Penalty>  (353) 
9.20666e-07

>  <r_epik_Ionization_Penalty_Charging>  (353) 
0

>  <r_epik_Ionization_Penalty_Neutral>  (353) 
9.20666e-07

>  <r_epik_State_Penalty>  (353) 
-0

>  <r_epik_Charging_Adjusted_Penalty>  (353) 
0

>  <i_epik_Tot_Q>  (353) 
0

>  <i_epik_Tot_abs_Q>  (353) 
0

>  <s_lp_Force_Field>  (353) 
OPLS3e

>  <r_lp_Energy>  (353) 
66.571

>  <b_lp_Chiralities_Consistent>  (353) 
1

>  <s_lp_Variant>  (353) 
100:0-2

>  <s_i_glide_gridfile>  (353) 
pfpi4k_grid

>  <i_i_glide_lignum>  (353) 
13

>  <i_i_glide_rotatable_bonds>  (353) 
2

>  <r_i_docking_score>  (353) 
-2.85569

>  <r_i_glide_ligand_efficiency>  (353) 
-0.0921189

>  <r_i_glide_ligand_efficiency_sa>  (353) 
-0.28938

>  <r_i_glide_ligand_efficiency_ln>  (353) 
-0.644045

>  <r_i_glide_gscore>  (353) 
-2.85569

>  <r_i_glide_lipo>  (353) 
-0.237511

>  <r_i_glide_hbond>  (353) 
-0.32

>  <r_i_glide_metal>  (353) 
-0

>  <r_i_glide_rewards>  (353) 
-0.513399

>  <r_i_glide_evdw>  (353) 
-26.2324

>  <r_i_glide_ecoul>  (353) 
-3.88732

>  <r_i_glide_erotb>  (353) 
0.109944

>  <r_i_glide_esite>  (353) 
0

>  <r_i_glide_emodel>  (353) 
-34.9213

>  <r_i_glide_energy>  (353) 
-30.1197

>  <r_i_glide_einternal>  (353) 
0.440644

>  <r_i_glide_intrahb_reward>  (353) 
-0

>  <i_i_glide_confnum>  (353) 
4

>  <i_i_glide_posenum>  (353) 
26

>  <r_i_glide_eff_state_penalty>  (353) 
0

>  <ligand_id>  (353) 
100

>  <original_smiles>  (353) 
CC=C(C)C1C(O)CC2(C)C1CC1(C)C2CC=C2C3CC(C)(C)CCC3(C)CCC21C

>  <smiles>  (353) 
[H]OC1([H])C([H])([H])C2(C([H])([H])[H])C([H])(C([H])([H])C3(C([H])([H])[H])C2([H])C([H])([H])C([H])=C2C4([H])C([H])([H])C(C([H])([H])[H])(C([H])([H])[H])C([H])([H])C([H])([H])C4(C([H])([H])[H])C([H])([H])C([H])([H])C23C([H])([H])[H])C1([H])C(=C([H])C([H])([H])[H])C([H])([H])[H]

$$$$
100:1:2
     RDKit          3D

 79 83  0  0  1  0  0  0  0  0999 V2000
   -1.9833   -8.5904    3.8161 C   0  0  0  0  0  0  0  0  0  0  0  0
   -0.5108   -8.5875    3.4535 C   0  0  0  0  0  0  0  0  0  0  0  0
    0.5363   -8.8738    4.2530 C   0  0  0  0  0  0  0  0  0  0  0  0
    0.4139   -9.3095    5.7154 C   0  0  0  0  0  0  0  0  0  0  0  0
    1.9561   -8.7629    3.6982 C   0  0  2  0  0  0  0  0  0  0  0  0
    2.9019   -9.9169    4.0255 C   0  0  1  0  0  0  0  0  0  0  0  0
    2.6122  -11.0742    3.2804 O   0  0  0  0  0  0  0  0  0  0  0  0
    4.2884   -9.3641    3.7075 C   0  0  0  0  0  0  0  0  0  0  0  0
    4.2303   -7.8542    4.1211 C   0  0  2  0  0  0  0  0  0  0  0  0
    4.9227   -7.7845    5.5099 C   0  0  0  0  0  0  0  0  0  0  0  0
    2.7198   -7.5177    4.1771 C   0  0  1  0  0  0  0  0  0  0  0  0
    2.4983   -6.2399    3.3276 C   0  0  0  0  0  0  0  0  0  0  0  0
    3.8629   -5.5012    3.2700 C   0  0  1  0  0  0  0  0  0  0  0  0
    4.0187   -4.7916    4.6467 C   0  0  0  0  0  0  0  0  0  0  0  0
    4.7861   -6.7611    3.1364 C   0  0  2  0  0  0  0  0  0  0  0  0
    4.7885   -7.3142    1.6912 C   0  0  0  0  0  0  0  0  0  0  0  0
    4.8358   -6.2783    0.6209 C   0  0  0  0  0  0  0  0  0  0  0  0
    4.5050   -4.9851    0.7643 C   0  0  0  0  0  0  0  0  0  0  0  0
    4.8527   -4.0351   -0.3958 C   0  0  1  0  0  0  0  0  0  0  0  0
    3.6332   -3.4379   -1.1373 C   0  0  0  0  0  0  0  0  0  0  0  0
    4.0500   -2.5966   -2.3650 C   0  0  0  0  0  0  0  0  0  0  0  0
    4.7832   -3.4338   -3.4351 C   0  0  0  0  0  0  0  0  0  0  0  0
    2.7986   -2.0063   -3.0388 C   0  0  0  0  0  0  0  0  0  0  0  0
    4.9293   -1.4458   -1.8394 C   0  0  0  0  0  0  0  0  0  0  0  0
    6.1641   -1.9417   -1.0795 C   0  0  0  0  0  0  0  0  0  0  0  0
    5.9083   -2.9829    0.0464 C   0  0  2  0  0  0  0  0  0  0  0  0
    7.2686   -3.6747    0.3112 C   0  0  0  0  0  0  0  0  0  0  0  0
    5.4260   -2.2948    1.3415 C   0  0  0  0  0  0  0  0  0  0  0  0
    5.0691   -3.2907    2.4757 C   0  0  0  0  0  0  0  0  0  0  0  0
    4.0169   -4.3946    2.1080 C   0  0  2  0  0  0  0  0  0  0  0  0
    2.6401   -3.7030    1.9427 C   0  0  0  0  0  0  0  0  0  0  0  0
   -2.4813   -9.4330    3.3334 H   0  0  0  0  0  0  0  0  0  0  0  0
   -2.4740   -7.6661    3.5134 H   0  0  0  0  0  0  0  0  0  0  0  0
   -2.1474   -8.6779    4.8870 H   0  0  0  0  0  0  0  0  0  0  0  0
   -0.3224   -8.3222    2.4185 H   0  0  0  0  0  0  0  0  0  0  0  0
    0.8614   -8.5720    6.3725 H   0  0  0  0  0  0  0  0  0  0  0  0
    0.9040  -10.2655    5.8967 H   0  0  0  0  0  0  0  0  0  0  0  0
   -0.6111   -9.4449    6.0464 H   0  0  0  0  0  0  0  0  0  0  0  0
    1.8823   -8.7206    2.6111 H   0  0  0  0  0  0  0  0  0  0  0  0
    2.8945  -10.1586    5.0852 H   0  0  0  0  0  0  0  0  0  0  0  0
    1.8558  -11.5061    3.6547 H   0  0  0  0  0  0  0  0  0  0  0  0
    5.0360   -9.9203    4.2729 H   0  0  0  0  0  0  0  0  0  0  0  0
    4.5250   -9.5635    2.6634 H   0  0  0  0  0  0  0  0  0  0  0  0
    5.0140   -6.7897    5.9293 H   0  0  0  0  0  0  0  0  0  0  0  0
    5.9414   -8.1675    5.4470 H   0  0  0  0  0  0  0  0  0  0  0  0
    4.3958   -8.3934    6.2446 H   0  0  0  0  0  0  0  0  0  0  0  0
    2.4485   -7.3135    5.2108 H   0  0  0  0  0  0  0  0  0  0  0  0
    2.1733   -6.4959    2.3169 H   0  0  0  0  0  0  0  0  0  0  0  0
    1.7030   -5.6328    3.7614 H   0  0  0  0  0  0  0  0  0  0  0  0
    5.0672   -4.6028    4.8828 H   0  0  0  0  0  0  0  0  0  0  0  0
    3.5839   -5.3484    5.4717 H   0  0  0  0  0  0  0  0  0  0  0  0
    3.4905   -3.8395    4.6770 H   0  0  0  0  0  0  0  0  0  0  0  0
    5.8113   -6.4925    3.3998 H   0  0  0  0  0  0  0  0  0  0  0  0
    5.6613   -7.9552    1.5541 H   0  0  0  0  0  0  0  0  0  0  0  0
    3.8934   -7.8972    1.4654 H   0  0  0  0  0  0  0  0  0  0  0  0
    5.1993   -6.6339   -0.3230 H   0  0  0  0  0  0  0  0  0  0  0  0
    5.3555   -4.6609   -1.1310 H   0  0  0  0  0  0  0  0  0  0  0  0
    2.9538   -4.2327   -1.4395 H   0  0  0  0  0  0  0  0  0  0  0  0
    3.0654   -2.7805   -0.4904 H   0  0  0  0  0  0  0  0  0  0  0  0
    4.9629   -2.8382   -4.3241 H   0  0  0  0  0  0  0  0  0  0  0  0
    4.1781   -4.2947   -3.7238 H   0  0  0  0  0  0  0  0  0  0  0  0
    5.7443   -3.8175   -3.0865 H   0  0  0  0  0  0  0  0  0  0  0  0
    3.0586   -1.3753   -3.8956 H   0  0  0  0  0  0  0  0  0  0  0  0
    2.2355   -1.3881   -2.3371 H   0  0  0  0  0  0  0  0  0  0  0  0
    2.1335   -2.7965   -3.3987 H   0  0  0  0  0  0  0  0  0  0  0  0
    5.2313   -0.7991   -2.6627 H   0  0  0  0  0  0  0  0  0  0  0  0
    4.3503   -0.8080   -1.1787 H   0  0  0  0  0  0  0  0  0  0  0  0
    6.8714   -2.3465   -1.8033 H   0  0  0  0  0  0  0  0  0  0  0  0
    6.6460   -1.0794   -0.6308 H   0  0  0  0  0  0  0  0  0  0  0  0
    8.0121   -2.9609    0.6671 H   0  0  0  0  0  0  0  0  0  0  0  0
    7.6610   -4.1286   -0.5988 H   0  0  0  0  0  0  0  0  0  0  0  0
    7.1903   -4.4699    1.0516 H   0  0  0  0  0  0  0  0  0  0  0  0
    6.1992   -1.6170    1.7034 H   0  0  0  0  0  0  0  0  0  0  0  0
    4.5761   -1.6536    1.1198 H   0  0  0  0  0  0  0  0  0  0  0  0
    5.9812   -3.7812    2.8146 H   0  0  0  0  0  0  0  0  0  0  0  0
    4.7253   -2.6846    3.3123 H   0  0  0  0  0  0  0  0  0  0  0  0
    2.1259   -3.5697    2.8902 H   0  0  0  0  0  0  0  0  0  0  0  0
    1.9936   -4.2863    1.2902 H   0  0  0  0  0  0  0  0  0  0  0  0
    2.7142   -2.6991    1.5404 H   0  0  0  0  0  0  0  0  0  0  0  0
  1  2  1  0
  1 32  1  0
  1 33  1  0
  1 34  1  0
  2  3  2  3
  2 35  1  0
  3  4  1  0
  3  5  1  0
  4 36  1  0
  4 37  1  0
  4 38  1  0
  5 11  1  0
  5  6  1  0
  5 39  1  6
  6  7  1  0
  6  8  1  0
  6 40  1  1
  7 41  1  0
  8  9  1  0
  8 42  1  0
  8 43  1  0
  9 15  1  0
  9 10  1  1
  9 11  1  0
 10 44  1  0
 10 45  1  0
 10 46  1  0
 11 12  1  0
 11 47  1  1
 12 13  1  0
 12 48  1  0
 12 49  1  0
 13 30  1  0
 13 14  1  1
 13 15  1  0
 14 50  1  0
 14 51  1  0
 14 52  1  0
 15 16  1  0
 15 53  1  1
 16 17  1  0
 16 54  1  0
 16 55  1  0
 17 18  2  0
 17 56  1  0
 18 30  1  0
 18 19  1  0
 19 26  1  0
 19 20  1  0
 19 57  1  6
 20 21  1  0
 20 58  1  0
 20 59  1  0
 21 22  1  0
 21 23  1  0
 21 24  1  0
 22 60  1  0
 22 61  1  0
 22 62  1  0
 23 63  1  0
 23 64  1  0
 23 65  1  0
 24 25  1  0
 24 66  1  0
 24 67  1  0
 25 26  1  0
 25 68  1  0
 25 69  1  0
 26 27  1  1
 26 28  1  0
 27 70  1  0
 27 71  1  0
 27 72  1  0
 28 29  1  0
 28 73  1  0
 28 74  1  0
 29 30  1  0
 29 75  1  0
 29 76  1  0
 30 31  1  6
 31 77  1  0
 31 78  1  0
 31 79  1  0
M  END
>  <i_m_ct_stereo_status>  (354) 
1

>  <s_m_source_file>  (354) 
/var/tmp/pbs.5076255.sched01/tmp2gi29psn/132an720x3a.sdf

>  <i_m_source_file_index>  (354) 
13

>  <i_lp_mmshare_version>  (354) 
48012

>  <i_f3d_flags>  (354) 
0

>  <s_epik_input>  (354) 
W0NIM10vW0NIXT1DKC9bQ0gzXSlbQ0BIXShbQ0BASF0oW09IXSlbQ0gyXTEpW0NAQEhdKFtDQEBdMTJbQ0gzXSlbQ0gyXVtDQEBdMyhbQ0gzXSlbQ0BASF0yW0NIMl1bQ0hdPUM0W0NAQEhdNVtDQEBdKFtDSDNdKShbQ0gyXVtDSDJdQyhbQ0gyXTUpKFtDSDNdKVtDSDNdKVtDSDJdW0NIMl1bQ0BdMzRbQ0gzXQ==

>  <s_epik_cmdline>  (354) 
J2VwaWtfcHl0aG9uJywgJy1waHQnLCAnMi4wJywgJy1waCcsICc3LjAnLCAnLXRuJywgJzgnLCAnLW1hJywgJzIwMCcsICctaW1hZScsICc8aW5maWxlLm1hZT4nLCAnLW9tYWUnLCAnPG91dGZpbGUubWFlPic=

>  <r_lp_tautomer_probability>  (354) 
1

>  <r_epik_Ionization_Penalty>  (354) 
9.20666e-07

>  <r_epik_Ionization_Penalty_Charging>  (354) 
0

>  <r_epik_Ionization_Penalty_Neutral>  (354) 
9.20666e-07

>  <r_epik_State_Penalty>  (354) 
-0

>  <r_epik_Charging_Adjusted_Penalty>  (354) 
0

>  <i_epik_Tot_Q>  (354) 
0

>  <i_epik_Tot_abs_Q>  (354) 
0

>  <s_lp_Force_Field>  (354) 
OPLS3e

>  <r_lp_Energy>  (354) 
66.571

>  <b_lp_Chiralities_Consistent>  (354) 
1

>  <s_lp_Variant>  (354) 
100:0-2

>  <s_i_glide_gridfile>  (354) 
pfpi4k_grid

>  <i_i_glide_lignum>  (354) 
13

>  <i_i_glide_rotatable_bonds>  (354) 
2

>  <r_i_docking_score>  (354) 
-2.78486

>  <r_i_glide_ligand_efficiency>  (354) 
-0.0898342

>  <r_i_glide_ligand_efficiency_sa>  (354) 
-0.282204

>  <r_i_glide_ligand_efficiency_ln>  (354) 
-0.628072

>  <r_i_glide_gscore>  (354) 
-2.78486

>  <r_i_glide_lipo>  (354) 
-0.855628

>  <r_i_glide_hbond>  (354) 
0

>  <r_i_glide_metal>  (354) 
-0

>  <r_i_glide_rewards>  (354) 
-0.513399

>  <r_i_glide_evdw>  (354) 
-31.3179

>  <r_i_glide_ecoul>  (354) 
0.267441

>  <r_i_glide_erotb>  (354) 
0.109944

>  <r_i_glide_esite>  (354) 
0

>  <r_i_glide_emodel>  (354) 
-35.3633

>  <r_i_glide_energy>  (354) 
-31.0504

>  <r_i_glide_einternal>  (354) 
1.42678

>  <r_i_glide_intrahb_reward>  (354) 
-0

>  <i_i_glide_confnum>  (354) 
1

>  <i_i_glide_posenum>  (354) 
1

>  <r_i_glide_eff_state_penalty>  (354) 
0

>  <ligand_id>  (354) 
100

>  <original_smiles>  (354) 
CC=C(C)C1C(O)CC2(C)C1CC1(C)C2CC=C2C3CC(C)(C)CCC3(C)CCC21C

>  <smiles>  (354) 
[H]OC1([H])C([H])([H])C2(C([H])([H])[H])C([H])(C([H])([H])C3(C([H])([H])[H])C2([H])C([H])([H])C([H])=C2C4([H])C([H])([H])C(C([H])([H])[H])(C([H])([H])[H])C([H])([H])C([H])([H])C4(C([H])([H])[H])C([H])([H])C([H])([H])C23C([H])([H])[H])C1([H])C(=C([H])C([H])([H])[H])C([H])([H])[H]

$$$$
101:0:0
     RDKit          3D

 46 49  0  0  1  0  0  0  0  0999 V2000
    3.6588   -0.5114    3.4844 C   0  0  0  0  0  0  0  0  0  0  0  0
    3.8089   -1.6563    2.8253 C   0  0  0  0  0  0  0  0  0  0  0  0
    2.6804   -2.5181    2.4642 C   0  0  0  0  0  0  0  0  0  0  0  0
    1.5172   -2.3478    2.7604 O   0  0  0  0  0  0  0  0  0  0  0  0
    3.1941   -3.5729    1.8305 O   0  0  0  0  0  0  0  0  0  0  0  0
    4.5894   -3.5402    1.5109 C   0  0  1  0  0  0  0  0  0  0  0  0
    4.9563   -3.3585    0.0331 C   0  0  0  0  0  0  0  0  0  0  0  0
    4.1050   -3.3501   -1.0090 C   0  0  0  0  0  0  0  0  0  0  0  0
    2.6248   -3.7247   -0.9129 C   0  0  0  0  0  0  0  0  0  0  0  0
    4.6066   -3.0657   -2.4129 C   0  0  1  0  0  0  0  0  0  0  0  0
    4.0490   -1.7918   -3.0830 C   0  0  1  0  0  0  0  0  0  0  0  0
    4.5552   -0.4892   -2.5043 C   0  0  0  0  0  0  0  0  0  0  0  0
    4.0283   -1.8484   -4.5051 O   0  0  0  0  0  0  0  0  0  0  0  0
    2.7615   -1.7611   -3.8499 C   0  0  1  0  0  0  0  0  0  0  0  0
    1.8156   -2.9286   -3.9058 C   0  0  0  0  0  0  0  0  0  0  0  0
    6.1255   -3.1467   -2.5213 C   0  0  0  0  0  0  0  0  0  0  0  0
    6.7651   -2.5088   -1.4278 O   0  0  0  0  0  0  0  0  0  0  0  0
    6.4416   -3.1775   -0.2149 C   0  0  1  0  0  0  0  0  0  0  0  0
    7.1203   -2.3700    0.8874 C   0  0  0  0  0  0  0  0  0  0  0  0
    6.1814   -1.4603    1.7278 C   0  0  1  0  0  0  0  0  0  0  0  0
    5.6896   -0.2968    0.8678 C   0  0  0  0  0  0  0  0  0  0  0  0
    5.0721   -2.3497    2.3770 C   0  0  1  0  0  0  0  0  0  0  0  0
    4.5149    0.0931    3.7668 H   0  0  0  0  0  0  0  0  0  0  0  0
    2.6770   -0.1543    3.7667 H   0  0  0  0  0  0  0  0  0  0  0  0
    5.0486   -4.4719    1.8583 H   0  0  0  0  0  0  0  0  0  0  0  0
    2.2051   -4.1220   -1.7834 H   0  0  0  0  0  0  0  0  0  0  0  0
    2.0525   -2.8498   -0.5414 H   0  0  0  0  0  0  0  0  0  0  0  0
    2.5248   -4.4979   -0.1217 H   0  0  0  0  0  0  0  0  0  0  0  0
    4.2752   -3.9032   -3.0291 H   0  0  0  0  0  0  0  0  0  0  0  0
    3.9791   -0.2759   -1.6088 H   0  0  0  0  0  0  0  0  0  0  0  0
    4.3984    0.3246   -3.2245 H   0  0  0  0  0  0  0  0  0  0  0  0
    5.6261   -0.5293   -2.2834 H   0  0  0  0  0  0  0  0  0  0  0  0
    2.2846   -0.7725   -3.8786 H   0  0  0  0  0  0  0  0  0  0  0  0
    1.1843   -2.9353   -3.0391 H   0  0  0  0  0  0  0  0  0  0  0  0
    2.3683   -3.8721   -3.9726 H   0  0  0  0  0  0  0  0  0  0  0  0
    1.1162   -2.8598   -4.7440 H   0  0  0  0  0  0  0  0  0  0  0  0
    6.3684   -4.2053   -2.5210 H   0  0  0  0  0  0  0  0  0  0  0  0
    6.4812   -2.7649   -3.4773 H   0  0  0  0  0  0  0  0  0  0  0  0
    6.9092   -4.1696   -0.2380 H   0  0  0  0  0  0  0  0  0  0  0  0
    7.4800   -3.1401    1.5874 H   0  0  0  0  0  0  0  0  0  0  0  0
    8.0115   -1.8206    0.5221 H   0  0  0  0  0  0  0  0  0  0  0  0
    6.7532   -1.0348    2.5490 H   0  0  0  0  0  0  0  0  0  0  0  0
    5.1245   -0.6978    0.0469 H   0  0  0  0  0  0  0  0  0  0  0  0
    6.5611    0.2119    0.4512 H   0  0  0  0  0  0  0  0  0  0  0  0
    5.0788    0.4163    1.4209 H   0  0  0  0  0  0  0  0  0  0  0  0
    5.4866   -2.7990    3.2935 H   0  0  0  0  0  0  0  0  0  0  0  0
  1  2  2  0
  1 23  1  0
  1 24  1  0
  2 22  1  0
  2  3  1  0
  3  4  2  0
  3  5  1  0
  5  6  1  0
  6 22  1  0
  6  7  1  0
  6 25  1  1
  7 18  1  0
  7  8  2  0
  8  9  1  0
  8 10  1  0
  9 26  1  0
  9 27  1  0
  9 28  1  0
 10 11  1  0
 10 16  1  0
 10 29  1  6
 11 14  1  0
 11 12  1  6
 11 13  1  0
 12 30  1  0
 12 31  1  0
 12 32  1  0
 13 14  1  0
 14 15  1  0
 14 33  1  6
 15 34  1  0
 15 35  1  0
 15 36  1  0
 16 17  1  0
 16 37  1  0
 16 38  1  0
 17 18  1  0
 18 19  1  0
 18 39  1  6
 19 20  1  0
 19 40  1  0
 19 41  1  0
 20 21  1  0
 20 22  1  0
 20 42  1  1
 21 43  1  0
 21 44  1  0
 21 45  1  0
 22 46  1  1
M  END
>  <i_m_ct_stereo_status>  (355) 
1

>  <s_m_source_file>  (355) 
/var/tmp/pbs.5076255.sched01/tmp2gi29psn/132an720x3a.sdf

>  <i_m_source_file_index>  (355) 
14

>  <i_lp_mmshare_version>  (355) 
48012

>  <i_f3d_flags>  (355) 
0

>  <s_epik_input>  (355) 
Tz1DKE8xKUMoPVtDSDJdKVtDQEBIXTJbQ0BIXShbQ0gzXSlbQ0gyXVtDQEBIXShDPTNbQ0BIXTEyKU9bQ0gyXVtDQEBIXShDM1tDSDNdKVtDQEBdNChbQ0gzXSlPW0NASF00W0NIM10=

>  <s_epik_cmdline>  (355) 
J2VwaWtfcHl0aG9uJywgJy1waHQnLCAnMi4wJywgJy1waCcsICc3LjAnLCAnLXRuJywgJzgnLCAnLW1hJywgJzIwMCcsICctaW1hZScsICc8aW5maWxlLm1hZT4nLCAnLW9tYWUnLCAnPG91dGZpbGUubWFlPic=

>  <r_lp_tautomer_probability>  (355) 
1

>  <r_epik_Ionization_Penalty>  (355) 
4.84187e-12

>  <r_epik_Ionization_Penalty_Charging>  (355) 
0

>  <r_epik_Ionization_Penalty_Neutral>  (355) 
4.84187e-12

>  <r_epik_State_Penalty>  (355) 
-0

>  <r_epik_Charging_Adjusted_Penalty>  (355) 
0

>  <i_epik_Tot_Q>  (355) 
0

>  <i_epik_Tot_abs_Q>  (355) 
0

>  <s_epik_Chemistry_Notes>  (355) 
This compound has an ester and may undergo hydrolysis at high or low pH.

>  <s_lp_Force_Field>  (355) 
OPLS3e

>  <r_lp_Energy>  (355) 
26.4062

>  <b_lp_Chiralities_Consistent>  (355) 
1

>  <s_lp_Variant>  (355) 
101:0-1

>  <s_i_glide_gridfile>  (355) 
pfpi4k_grid

>  <i_i_glide_lignum>  (355) 
14

>  <i_i_glide_rotatable_bonds>  (355) 
1

>  <r_i_docking_score>  (355) 
-4.04406

>  <r_i_glide_ligand_efficiency>  (355) 
-0.183821

>  <r_i_glide_ligand_efficiency_sa>  (355) 
-0.515074

>  <r_i_glide_ligand_efficiency_ln>  (355) 
-0.988516

>  <r_i_glide_gscore>  (355) 
-4.04406

>  <r_i_glide_lipo>  (355) 
-1.19107

>  <r_i_glide_hbond>  (355) 
-0.430911

>  <r_i_glide_metal>  (355) 
-0

>  <r_i_glide_rewards>  (355) 
-1.33377

>  <r_i_glide_evdw>  (355) 
-16.2263

>  <r_i_glide_ecoul>  (355) 
-3.14666

>  <r_i_glide_erotb>  (355) 
0.199048

>  <r_i_glide_esite>  (355) 
-0.00404693

>  <r_i_glide_emodel>  (355) 
-21.1794

>  <r_i_glide_energy>  (355) 
-19.373

>  <r_i_glide_einternal>  (355) 
0.624218

>  <r_i_glide_intrahb_reward>  (355) 
-0

>  <i_i_glide_confnum>  (355) 
1

>  <i_i_glide_posenum>  (355) 
3

>  <r_i_glide_eff_state_penalty>  (355) 
0

>  <ligand_id>  (355) 
101

>  <original_smiles>  (355) 
C=C1C(=O)OC2C3=C(C)C(C4(C)OC4C)COC3CC(C)C12

>  <smiles>  (355) 
[H]C([H])=C1C(=O)OC2([H])C3=C(C([H])([H])[H])C([H])(C4(C([H])([H])[H])OC4([H])C([H])([H])[H])C([H])([H])OC3([H])C([H])([H])C([H])(C([H])([H])[H])C12[H]

$$$$
101:0:1
     RDKit          3D

 46 49  0  0  1  0  0  0  0  0999 V2000
    1.3213   -2.2180    3.8249 C   0  0  0  0  0  0  0  0  0  0  0  0
    2.4212   -2.8735    3.4276 C   0  0  0  0  0  0  0  0  0  0  0  0
    2.4095   -4.2652    2.9832 C   0  0  0  0  0  0  0  0  0  0  0  0
    1.4384   -5.0243    2.9644 O   0  0  0  0  0  0  0  0  0  0  0  0
    3.6479   -4.5978    2.6249 O   0  0  0  0  0  0  0  0  0  0  0  0
    4.5920   -3.5243    2.6386 C   0  0  1  0  0  0  0  0  0  0  0  0
    5.0870   -3.0871    1.2564 C   0  0  0  0  0  0  0  0  0  0  0  0
    4.8062   -3.6718    0.0681 C   0  0  0  0  0  0  0  0  0  0  0  0
    4.0691   -4.9872   -0.1032 C   0  0  0  0  0  0  0  0  0  0  0  0
    5.3235   -3.0986   -1.2414 C   0  0  1  0  0  0  0  0  0  0  0  0
    4.2222   -2.6101   -2.2451 C   0  0  1  0  0  0  0  0  0  0  0  0
    3.0656   -1.9248   -1.6595 C   0  0  0  0  0  0  0  0  0  0  0  0
    4.7465   -1.9532   -3.4226 O   0  0  0  0  0  0  0  0  0  0  0  0
    4.0950   -3.1857   -3.6460 C   0  0  1  0  0  0  0  0  0  0  0  0
    4.9954   -4.2693   -4.1571 C   0  0  0  0  0  0  0  0  0  0  0  0
    6.4102   -2.0480   -0.9929 C   0  0  0  0  0  0  0  0  0  0  0  0
    6.0314   -1.1684    0.0577 O   0  0  0  0  0  0  0  0  0  0  0  0
    5.9793   -1.8456    1.3089 C   0  0  1  0  0  0  0  0  0  0  0  0
    5.5642   -0.8442    2.4098 C   0  0  0  0  0  0  0  0  0  0  0  0
    4.0859   -0.9149    2.8591 C   0  0  1  0  0  0  0  0  0  0  0  0
    3.1618   -0.4274    1.7440 C   0  0  0  0  0  0  0  0  0  0  0  0
    3.8444   -2.3750    3.3712 C   0  0  1  0  0  0  0  0  0  0  0  0
    1.3703   -1.1871    4.1442 H   0  0  0  0  0  0  0  0  0  0  0  0
    0.3540   -2.7036    3.8294 H   0  0  0  0  0  0  0  0  0  0  0  0
    5.4776   -3.8239    3.2094 H   0  0  0  0  0  0  0  0  0  0  0  0
    4.2631   -5.3761   -1.1014 H   0  0  0  0  0  0  0  0  0  0  0  0
    2.9922   -4.8681    0.0419 H   0  0  0  0  0  0  0  0  0  0  0  0
    4.4439   -5.7541    0.5772 H   0  0  0  0  0  0  0  0  0  0  0  0
    5.8802   -3.9501   -1.6381 H   0  0  0  0  0  0  0  0  0  0  0  0
    2.4356   -2.6745   -1.1427 H   0  0  0  0  0  0  0  0  0  0  0  0
    2.4802   -1.4679   -2.4732 H   0  0  0  0  0  0  0  0  0  0  0  0
    3.4456   -1.1351   -1.0418 H   0  0  0  0  0  0  0  0  0  0  0  0
    3.1070   -3.1364   -4.0952 H   0  0  0  0  0  0  0  0  0  0  0  0
    4.6068   -5.2294   -3.8390 H   0  0  0  0  0  0  0  0  0  0  0  0
    5.9782   -4.0801   -3.7121 H   0  0  0  0  0  0  0  0  0  0  0  0
    5.0879   -4.2567   -5.2480 H   0  0  0  0  0  0  0  0  0  0  0  0
    7.3542   -2.5465   -0.7433 H   0  0  0  0  0  0  0  0  0  0  0  0
    6.5842   -1.4884   -1.9098 H   0  0  0  0  0  0  0  0  0  0  0  0
    6.9942   -2.2002    1.5164 H   0  0  0  0  0  0  0  0  0  0  0  0
    6.1948   -1.0598    3.2739 H   0  0  0  0  0  0  0  0  0  0  0  0
    5.8338    0.1561    2.0887 H   0  0  0  0  0  0  0  0  0  0  0  0
    3.9694   -0.2396    3.7207 H   0  0  0  0  0  0  0  0  0  0  0  0
    3.2772   -1.1533    0.9721 H   0  0  0  0  0  0  0  0  0  0  0  0
    3.4542    0.5592    1.4064 H   0  0  0  0  0  0  0  0  0  0  0  0
    2.1174   -0.3850    2.0170 H   0  0  0  0  0  0  0  0  0  0  0  0
    4.2029   -2.4171    4.3994 H   0  0  0  0  0  0  0  0  0  0  0  0
  1  2  2  0
  1 23  1  0
  1 24  1  0
  2 22  1  0
  2  3  1  0
  3  4  2  0
  3  5  1  0
  5  6  1  0
  6 22  1  0
  6  7  1  0
  6 25  1  1
  7 18  1  0
  7  8  2  0
  8  9  1  0
  8 10  1  0
  9 26  1  0
  9 27  1  0
  9 28  1  0
 10 11  1  0
 10 16  1  0
 10 29  1  6
 11 14  1  0
 11 12  1  1
 11 13  1  0
 12 30  1  0
 12 31  1  0
 12 32  1  0
 13 14  1  0
 14 15  1  0
 14 33  1  6
 15 34  1  0
 15 35  1  0
 15 36  1  0
 16 17  1  0
 16 37  1  0
 16 38  1  0
 17 18  1  0
 18 19  1  0
 18 39  1  1
 19 20  1  0
 19 40  1  0
 19 41  1  0
 20 21  1  0
 20 22  1  0
 20 42  1  1
 21 43  1  0
 21 44  1  0
 21 45  1  0
 22 46  1  1
M  END
>  <i_m_ct_stereo_status>  (356) 
1

>  <s_m_source_file>  (356) 
/var/tmp/pbs.5076255.sched01/tmp2gi29psn/132an720x3a.sdf

>  <i_m_source_file_index>  (356) 
14

>  <i_lp_mmshare_version>  (356) 
48012

>  <i_f3d_flags>  (356) 
0

>  <s_epik_input>  (356) 
Tz1DKE8xKUMoPVtDSDJdKVtDQEBIXTJbQ0BIXShbQ0gzXSlbQ0gyXVtDQEBIXShDPTNbQ0BIXTEyKU9bQ0gyXVtDQEBIXShDM1tDSDNdKVtDQEBdNChbQ0gzXSlPW0NASF00W0NIM10=

>  <s_epik_cmdline>  (356) 
J2VwaWtfcHl0aG9uJywgJy1waHQnLCAnMi4wJywgJy1waCcsICc3LjAnLCAnLXRuJywgJzgnLCAnLW1hJywgJzIwMCcsICctaW1hZScsICc8aW5maWxlLm1hZT4nLCAnLW9tYWUnLCAnPG91dGZpbGUubWFlPic=

>  <r_lp_tautomer_probability>  (356) 
1

>  <r_epik_Ionization_Penalty>  (356) 
4.84187e-12

>  <r_epik_Ionization_Penalty_Charging>  (356) 
0

>  <r_epik_Ionization_Penalty_Neutral>  (356) 
4.84187e-12

>  <r_epik_State_Penalty>  (356) 
-0

>  <r_epik_Charging_Adjusted_Penalty>  (356) 
0

>  <i_epik_Tot_Q>  (356) 
0

>  <i_epik_Tot_abs_Q>  (356) 
0

>  <s_epik_Chemistry_Notes>  (356) 
This compound has an ester and may undergo hydrolysis at high or low pH.

>  <s_lp_Force_Field>  (356) 
OPLS3e

>  <r_lp_Energy>  (356) 
26.4062

>  <b_lp_Chiralities_Consistent>  (356) 
1

>  <s_lp_Variant>  (356) 
101:0-1

>  <s_i_glide_gridfile>  (356) 
pfpi4k_grid

>  <i_i_glide_lignum>  (356) 
14

>  <i_i_glide_rotatable_bonds>  (356) 
1

>  <r_i_docking_score>  (356) 
-2.84423

>  <r_i_glide_ligand_efficiency>  (356) 
-0.129283

>  <r_i_glide_ligand_efficiency_sa>  (356) 
-0.362256

>  <r_i_glide_ligand_efficiency_ln>  (356) 
-0.695232

>  <r_i_glide_gscore>  (356) 
-2.84423

>  <r_i_glide_lipo>  (356) 
-0.657657

>  <r_i_glide_hbond>  (356) 
0

>  <r_i_glide_metal>  (356) 
-0

>  <r_i_glide_rewards>  (356) 
-1.33377

>  <r_i_glide_evdw>  (356) 
-17.8466

>  <r_i_glide_ecoul>  (356) 
-1.04348

>  <r_i_glide_erotb>  (356) 
0.199048

>  <r_i_glide_esite>  (356) 
-0.0029976

>  <r_i_glide_emodel>  (356) 
-20.5515

>  <r_i_glide_energy>  (356) 
-18.8901

>  <r_i_glide_einternal>  (356) 
1.2489

>  <r_i_glide_intrahb_reward>  (356) 
-0

>  <i_i_glide_confnum>  (356) 
3

>  <i_i_glide_posenum>  (356) 
35

>  <r_i_glide_eff_state_penalty>  (356) 
0

>  <ligand_id>  (356) 
101

>  <original_smiles>  (356) 
C=C1C(=O)OC2C3=C(C)C(C4(C)OC4C)COC3CC(C)C12

>  <smiles>  (356) 
[H]C([H])=C1C(=O)OC2([H])C3=C(C([H])([H])[H])C([H])(C4(C([H])([H])[H])OC4([H])C([H])([H])[H])C([H])([H])OC3([H])C([H])([H])C([H])(C([H])([H])[H])C12[H]

$$$$
101:0:2
     RDKit          3D

 46 49  0  0  1  0  0  0  0  0999 V2000
    3.1013   -4.0918    4.7603 C   0  0  0  0  0  0  0  0  0  0  0  0
    3.2661   -4.7415    3.6009 C   0  0  0  0  0  0  0  0  0  0  0  0
    2.1681   -5.2138    2.7743 C   0  0  0  0  0  0  0  0  0  0  0  0
    0.9796   -5.1666    3.0572 O   0  0  0  0  0  0  0  0  0  0  0  0
    2.6751   -5.7610    1.6678 O   0  0  0  0  0  0  0  0  0  0  0  0
    4.0910   -5.6546    1.5255 C   0  0  1  0  0  0  0  0  0  0  0  0
    4.5617   -4.7354    0.4069 C   0  0  0  0  0  0  0  0  0  0  0  0
    3.7947   -4.0985   -0.5195 C   0  0  0  0  0  0  0  0  0  0  0  0
    2.3015   -4.2567   -0.6860 C   0  0  0  0  0  0  0  0  0  0  0  0
    4.3994   -3.1890   -1.5744 C   0  0  1  0  0  0  0  0  0  0  0  0
    3.9205   -1.7464   -1.5154 C   0  0  1  0  0  0  0  0  0  0  0  0
    3.8891   -1.1158   -0.1246 C   0  0  0  0  0  0  0  0  0  0  0  0
    4.5467   -0.8864   -2.5001 O   0  0  0  0  0  0  0  0  0  0  0  0
    3.1341   -1.1135   -2.6639 C   0  0  1  0  0  0  0  0  0  0  0  0
    2.7806   -1.8387   -3.9308 C   0  0  0  0  0  0  0  0  0  0  0  0
    5.9353   -3.3012   -1.5964 C   0  0  0  0  0  0  0  0  0  0  0  0
    6.4646   -3.3627   -0.2819 O   0  0  0  0  0  0  0  0  0  0  0  0
    6.0729   -4.5498    0.3876 C   0  0  1  0  0  0  0  0  0  0  0  0
    6.6891   -4.5415    1.7978 C   0  0  0  0  0  0  0  0  0  0  0  0
    5.7060   -4.1564    2.9427 C   0  0  1  0  0  0  0  0  0  0  0  0
    5.2775   -2.6665    2.7993 C   0  0  0  0  0  0  0  0  0  0  0  0
    4.5389   -5.1710    2.9235 C   0  0  1  0  0  0  0  0  0  0  0  0
    3.9403   -3.7581    5.3565 H   0  0  0  0  0  0  0  0  0  0  0  0
    2.1107   -3.8763    5.1368 H   0  0  0  0  0  0  0  0  0  0  0  0
    4.5082   -6.6554    1.3420 H   0  0  0  0  0  0  0  0  0  0  0  0
    1.9266   -3.8768   -1.6428 H   0  0  0  0  0  0  0  0  0  0  0  0
    1.8357   -3.7479    0.1461 H   0  0  0  0  0  0  0  0  0  0  0  0
    2.0414   -5.3143   -0.6876 H   0  0  0  0  0  0  0  0  0  0  0  0
    4.0730   -3.6404   -2.5055 H   0  0  0  0  0  0  0  0  0  0  0  0
    3.0568   -1.5356    0.4491 H   0  0  0  0  0  0  0  0  0  0  0  0
    3.7099   -0.0394   -0.1616 H   0  0  0  0  0  0  0  0  0  0  0  0
    4.8281   -1.2721    0.3849 H   0  0  0  0  0  0  0  0  0  0  0  0
    2.4713   -0.3060   -2.3714 H   0  0  0  0  0  0  0  0  0  0  0  0
    1.8427   -2.3538   -3.7417 H   0  0  0  0  0  0  0  0  0  0  0  0
    3.5413   -2.5769   -4.2105 H   0  0  0  0  0  0  0  0  0  0  0  0
    2.5922   -1.1008   -4.7212 H   0  0  0  0  0  0  0  0  0  0  0  0
    6.1769   -4.2117   -2.1305 H   0  0  0  0  0  0  0  0  0  0  0  0
    6.3717   -2.4918   -2.1773 H   0  0  0  0  0  0  0  0  0  0  0  0
    6.4848   -5.4048   -0.1557 H   0  0  0  0  0  0  0  0  0  0  0  0
    7.0539   -5.5467    1.9917 H   0  0  0  0  0  0  0  0  0  0  0  0
    7.5822   -3.9011    1.7449 H   0  0  0  0  0  0  0  0  0  0  0  0
    6.2131   -4.3111    3.9043 H   0  0  0  0  0  0  0  0  0  0  0  0
    4.6717   -2.5536    1.9247 H   0  0  0  0  0  0  0  0  0  0  0  0
    6.1708   -2.0190    2.7444 H   0  0  0  0  0  0  0  0  0  0  0  0
    4.7386   -2.3097    3.6995 H   0  0  0  0  0  0  0  0  0  0  0  0
    4.8742   -6.0407    3.4726 H   0  0  0  0  0  0  0  0  0  0  0  0
  1  2  2  0
  1 23  1  0
  1 24  1  0
  2 22  1  0
  2  3  1  0
  3  4  2  0
  3  5  1  0
  5  6  1  0
  6 22  1  0
  6  7  1  0
  6 25  1  6
  7 18  1  0
  7  8  2  0
  8  9  1  0
  8 10  1  0
  9 26  1  0
  9 27  1  0
  9 28  1  0
 10 11  1  0
 10 16  1  0
 10 29  1  6
 11 14  1  0
 11 12  1  1
 11 13  1  0
 12 30  1  0
 12 31  1  0
 12 32  1  0
 13 14  1  0
 14 15  1  0
 14 33  1  1
 15 34  1  0
 15 35  1  0
 15 36  1  0
 16 17  1  0
 16 37  1  0
 16 38  1  0
 17 18  1  0
 18 19  1  0
 18 39  1  6
 19 20  1  0
 19 40  1  0
 19 41  1  0
 20 21  1  0
 20 22  1  0
 20 42  1  1
 21 43  1  0
 21 44  1  0
 21 45  1  0
 22 46  1  1
M  END
>  <i_m_ct_stereo_status>  (357) 
1

>  <s_m_source_file>  (357) 
/var/tmp/pbs.5076255.sched01/tmp2gi29psn/132an720x3a.sdf

>  <i_m_source_file_index>  (357) 
14

>  <i_lp_mmshare_version>  (357) 
48012

>  <i_f3d_flags>  (357) 
0

>  <s_epik_input>  (357) 
Tz1DKE8xKUMoPVtDSDJdKVtDQEBIXTJbQ0BIXShbQ0gzXSlbQ0gyXVtDQEBIXShDPTNbQ0BIXTEyKU9bQ0gyXVtDQEBIXShDM1tDSDNdKVtDQEBdNChbQ0gzXSlPW0NASF00W0NIM10=

>  <s_epik_cmdline>  (357) 
J2VwaWtfcHl0aG9uJywgJy1waHQnLCAnMi4wJywgJy1waCcsICc3LjAnLCAnLXRuJywgJzgnLCAnLW1hJywgJzIwMCcsICctaW1hZScsICc8aW5maWxlLm1hZT4nLCAnLW9tYWUnLCAnPG91dGZpbGUubWFlPic=

>  <r_lp_tautomer_probability>  (357) 
1

>  <r_epik_Ionization_Penalty>  (357) 
4.84187e-12

>  <r_epik_Ionization_Penalty_Charging>  (357) 
0

>  <r_epik_Ionization_Penalty_Neutral>  (357) 
4.84187e-12

>  <r_epik_State_Penalty>  (357) 
-0

>  <r_epik_Charging_Adjusted_Penalty>  (357) 
0

>  <i_epik_Tot_Q>  (357) 
0

>  <i_epik_Tot_abs_Q>  (357) 
0

>  <s_epik_Chemistry_Notes>  (357) 
This compound has an ester and may undergo hydrolysis at high or low pH.

>  <s_lp_Force_Field>  (357) 
OPLS3e

>  <r_lp_Energy>  (357) 
26.4062

>  <b_lp_Chiralities_Consistent>  (357) 
1

>  <s_lp_Variant>  (357) 
101:0-1

>  <s_i_glide_gridfile>  (357) 
pfpi4k_grid

>  <i_i_glide_lignum>  (357) 
14

>  <i_i_glide_rotatable_bonds>  (357) 
1

>  <r_i_docking_score>  (357) 
-2.7063

>  <r_i_glide_ligand_efficiency>  (357) 
-0.123014

>  <r_i_glide_ligand_efficiency_sa>  (357) 
-0.344689

>  <r_i_glide_ligand_efficiency_ln>  (357) 
-0.661518

>  <r_i_glide_gscore>  (357) 
-2.7063

>  <r_i_glide_lipo>  (357) 
-0.559778

>  <r_i_glide_hbond>  (357) 
0

>  <r_i_glide_metal>  (357) 
-0

>  <r_i_glide_rewards>  (357) 
-1.33377

>  <r_i_glide_evdw>  (357) 
-16.6209

>  <r_i_glide_ecoul>  (357) 
-1.14602

>  <r_i_glide_erotb>  (357) 
0.199048

>  <r_i_glide_esite>  (357) 
-0.00885472

>  <r_i_glide_emodel>  (357) 
-19.9999

>  <r_i_glide_energy>  (357) 
-17.7669

>  <r_i_glide_einternal>  (357) 
0.922714

>  <r_i_glide_intrahb_reward>  (357) 
-0

>  <i_i_glide_confnum>  (357) 
1

>  <i_i_glide_posenum>  (357) 
12

>  <r_i_glide_eff_state_penalty>  (357) 
0

>  <ligand_id>  (357) 
101

>  <original_smiles>  (357) 
C=C1C(=O)OC2C3=C(C)C(C4(C)OC4C)COC3CC(C)C12

>  <smiles>  (357) 
[H]C([H])=C1C(=O)OC2([H])C3=C(C([H])([H])[H])C([H])(C4(C([H])([H])[H])OC4([H])C([H])([H])[H])C([H])([H])OC3([H])C([H])([H])C([H])(C([H])([H])[H])C12[H]

$$$$
102:0:0
     RDKit          3D

 23 25  0  0  1  0  0  0  0  0999 V2000
    1.3895    3.7838    3.1411 C   0  0  0  0  0  0  0  0  0  0  0  0
    0.5154    2.8390    3.8278 N   0  0  0  0  0  0  0  0  0  0  0  0
    0.2067    1.5812    3.3881 C   0  0  0  0  0  0  0  0  0  0  0  0
   -0.5820    0.9565    4.1980 N   0  0  0  0  0  0  0  0  0  0  0  0
   -0.7994    1.8639    5.2149 N   0  0  0  0  0  0  0  0  0  0  0  0
   -1.5774    1.6348    6.3009 C   0  0  0  0  0  0  0  0  0  0  0  0
   -2.1832    0.5770    6.5083 O   0  0  0  0  0  0  0  0  0  0  0  0
   -1.6529    2.7874    7.2702 C   0  0  0  0  0  0  0  0  0  0  0  0
   -2.4228    2.7068    8.4542 C   0  0  0  0  0  0  0  0  0  0  0  0
   -2.4766    3.7990    9.3418 C   0  0  0  0  0  0  0  0  0  0  0  0
   -1.7530    4.9709    9.0504 C   0  0  0  0  0  0  0  0  0  0  0  0
   -0.9788    5.0533    7.8749 C   0  0  0  0  0  0  0  0  0  0  0  0
   -0.9240    3.9719    6.9730 C   0  0  0  0  0  0  0  0  0  0  0  0
   -0.1491    4.0984    5.8027 N   0  0  0  0  0  0  0  0  0  0  0  0
   -0.1227    3.0708    5.0139 C   0  0  0  0  0  0  0  0  0  0  0  0
    1.7759    3.3742    2.2063 H   0  0  0  0  0  0  0  0  0  0  0  0
    2.2407    4.0581    3.7641 H   0  0  0  0  0  0  0  0  0  0  0  0
    0.8495    4.6985    2.8951 H   0  0  0  0  0  0  0  0  0  0  0  0
    0.6246    1.2200    2.4449 H   0  0  0  0  0  0  0  0  0  0  0  0
   -2.9703    1.8091    8.6934 H   0  0  0  0  0  0  0  0  0  0  0  0
   -3.0607    3.7330   10.2468 H   0  0  0  0  0  0  0  0  0  0  0  0
   -1.7875    5.8071    9.7324 H   0  0  0  0  0  0  0  0  0  0  0  0
   -0.4253    5.9577    7.6639 H   0  0  0  0  0  0  0  0  0  0  0  0
  1  2  1  0
  1 16  1  0
  1 17  1  0
  1 18  1  0
  2 15  1  0
  2  3  1  0
  3  4  2  0
  3 19  1  0
  4  5  1  0
  5 15  1  0
  5  6  1  0
  6  7  2  0
  6  8  1  0
  8 13  2  0
  8  9  1  0
  9 10  2  0
  9 20  1  0
 10 11  1  0
 10 21  1  0
 11 12  2  0
 11 22  1  0
 12 13  1  0
 12 23  1  0
 13 14  1  0
 14 15  2  0
M  END
>  <i_m_ct_stereo_status>  (358) 
1

>  <s_m_source_file>  (358) 
/var/tmp/pbs.5076255.sched01/tmp2gi29psn/132an720x3a.sdf

>  <i_m_source_file_index>  (358) 
15

>  <i_lp_mmshare_version>  (358) 
48012

>  <i_f3d_flags>  (358) 
0

>  <s_epik_input>  (358) 
bjFbY0hdbihbQ0gzXSljKG4xMiluYzNjKGMyPU8pW2NIXVtjSF1bY0hdW2NIXTM=

>  <s_epik_cmdline>  (358) 
J2VwaWtfcHl0aG9uJywgJy1waHQnLCAnMi4wJywgJy1waCcsICc3LjAnLCAnLXRuJywgJzgnLCAnLW1hJywgJzIwMCcsICctaW1hZScsICc8aW5maWxlLm1hZT4nLCAnLW9tYWUnLCAnPG91dGZpbGUubWFlPic=

>  <r_epik_Ionization_Penalty>  (358) 
0.327839

>  <r_epik_Ionization_Penalty_Charging>  (358) 
3.28896e-14

>  <r_epik_Ionization_Penalty_Neutral>  (358) 
0.327839

>  <r_epik_State_Penalty>  (358) 
0.322755

>  <r_epik_Charging_Adjusted_Penalty>  (358) 
0.322755

>  <i_epik_Tot_Q>  (358) 
0

>  <i_epik_Tot_abs_Q>  (358) 
0

>  <s_lp_Force_Field>  (358) 
OPLS3e

>  <r_lp_Energy>  (358) 
28.7449

>  <b_lp_Chiralities_Consistent>  (358) 
1

>  <s_lp_Variant>  (358) 
102:0-1

>  <s_i_glide_gridfile>  (358) 
pfpi4k_grid

>  <i_i_glide_lignum>  (358) 
15

>  <i_i_glide_rotatable_bonds>  (358) 
0

>  <r_i_docking_score>  (358) 
-3.94761

>  <r_i_glide_ligand_efficiency>  (358) 
-0.263174

>  <r_i_glide_ligand_efficiency_sa>  (358) 
-0.649043

>  <r_i_glide_ligand_efficiency_ln>  (358) 
-1.06461

>  <r_i_glide_gscore>  (358) 
-3.94761

>  <r_i_glide_lipo>  (358) 
-0.0508118

>  <r_i_glide_hbond>  (358) 
-0.16

>  <r_i_glide_metal>  (358) 
-0

>  <r_i_glide_rewards>  (358) 
-2.04411

>  <r_i_glide_evdw>  (358) 
-15.549

>  <r_i_glide_ecoul>  (358) 
-5.40172

>  <r_i_glide_erotb>  (358) 
0

>  <r_i_glide_esite>  (358) 
-0.104979

>  <r_i_glide_emodel>  (358) 
-27.3671

>  <r_i_glide_energy>  (358) 
-20.9507

>  <r_i_glide_einternal>  (358) 
0

>  <r_i_glide_intrahb_reward>  (358) 
-0

>  <i_i_glide_confnum>  (358) 
2

>  <i_i_glide_posenum>  (358) 
25

>  <r_i_glide_eff_state_penalty>  (358) 
0

>  <ligand_id>  (358) 
102

>  <original_smiles>  (358) 
Cn1cnn2c(=O)c3ccccc3nc12

>  <smiles>  (358) 
[H]c1c([H])c([H])c2c(=O)n3nc([H])n(C([H])([H])[H])c3nc2c1[H]

$$$$
102:0:1
     RDKit          3D

 23 25  0  0  1  0  0  0  0  0999 V2000
   -1.3478    2.3367   10.9027 C   0  0  0  0  0  0  0  0  0  0  0  0
   -1.7472    2.8300    9.5907 N   0  0  0  0  0  0  0  0  0  0  0  0
   -2.4184    3.9966    9.3610 C   0  0  0  0  0  0  0  0  0  0  0  0
   -2.6282    4.1959    8.1008 N   0  0  0  0  0  0  0  0  0  0  0  0
   -2.0662    3.0984    7.4891 N   0  0  0  0  0  0  0  0  0  0  0  0
   -2.0573    2.8801    6.1519 C   0  0  0  0  0  0  0  0  0  0  0  0
   -2.5573    3.6422    5.3227 O   0  0  0  0  0  0  0  0  0  0  0  0
   -1.3803    1.6034    5.7317 C   0  0  0  0  0  0  0  0  0  0  0  0
   -1.2855    1.2354    4.3720 C   0  0  0  0  0  0  0  0  0  0  0  0
   -0.6382    0.0394    4.0128 C   0  0  0  0  0  0  0  0  0  0  0  0
   -0.0905   -0.7917    5.0076 C   0  0  0  0  0  0  0  0  0  0  0  0
   -0.1831   -0.4273    6.3655 C   0  0  0  0  0  0  0  0  0  0  0  0
   -0.8274    0.7674    6.7407 C   0  0  0  0  0  0  0  0  0  0  0  0
   -0.9090    1.0918    8.1085 N   0  0  0  0  0  0  0  0  0  0  0  0
   -1.4959    2.2090    8.4019 C   0  0  0  0  0  0  0  0  0  0  0  0
   -1.6628    3.0174   11.6936 H   0  0  0  0  0  0  0  0  0  0  0  0
   -0.2654    2.2271   10.9675 H   0  0  0  0  0  0  0  0  0  0  0  0
   -1.7892    1.3631   11.1124 H   0  0  0  0  0  0  0  0  0  0  0  0
   -2.7097    4.6344   10.1984 H   0  0  0  0  0  0  0  0  0  0  0  0
   -1.7027    1.8652    3.5995 H   0  0  0  0  0  0  0  0  0  0  0  0
   -0.5599   -0.2354    2.9743 H   0  0  0  0  0  0  0  0  0  0  0  0
    0.4086   -1.7060    4.7292 H   0  0  0  0  0  0  0  0  0  0  0  0
    0.2534   -1.0659    7.1205 H   0  0  0  0  0  0  0  0  0  0  0  0
  1  2  1  0
  1 16  1  0
  1 17  1  0
  1 18  1  0
  2 15  1  0
  2  3  1  0
  3  4  2  0
  3 19  1  0
  4  5  1  0
  5 15  1  0
  5  6  1  0
  6  7  2  0
  6  8  1  0
  8 13  2  0
  8  9  1  0
  9 10  2  0
  9 20  1  0
 10 11  1  0
 10 21  1  0
 11 12  2  0
 11 22  1  0
 12 13  1  0
 12 23  1  0
 13 14  1  0
 14 15  2  0
M  END
>  <i_m_ct_stereo_status>  (359) 
1

>  <s_m_source_file>  (359) 
/var/tmp/pbs.5076255.sched01/tmp2gi29psn/132an720x3a.sdf

>  <i_m_source_file_index>  (359) 
15

>  <i_lp_mmshare_version>  (359) 
48012

>  <i_f3d_flags>  (359) 
0

>  <s_epik_input>  (359) 
bjFbY0hdbihbQ0gzXSljKG4xMiluYzNjKGMyPU8pW2NIXVtjSF1bY0hdW2NIXTM=

>  <s_epik_cmdline>  (359) 
J2VwaWtfcHl0aG9uJywgJy1waHQnLCAnMi4wJywgJy1waCcsICc3LjAnLCAnLXRuJywgJzgnLCAnLW1hJywgJzIwMCcsICctaW1hZScsICc8aW5maWxlLm1hZT4nLCAnLW9tYWUnLCAnPG91dGZpbGUubWFlPic=

>  <r_epik_Ionization_Penalty>  (359) 
0.327839

>  <r_epik_Ionization_Penalty_Charging>  (359) 
3.28896e-14

>  <r_epik_Ionization_Penalty_Neutral>  (359) 
0.327839

>  <r_epik_State_Penalty>  (359) 
0.322755

>  <r_epik_Charging_Adjusted_Penalty>  (359) 
0.322755

>  <i_epik_Tot_Q>  (359) 
0

>  <i_epik_Tot_abs_Q>  (359) 
0

>  <s_lp_Force_Field>  (359) 
OPLS3e

>  <r_lp_Energy>  (359) 
28.7449

>  <b_lp_Chiralities_Consistent>  (359) 
1

>  <s_lp_Variant>  (359) 
102:0-1

>  <s_i_glide_gridfile>  (359) 
pfpi4k_grid

>  <i_i_glide_lignum>  (359) 
15

>  <i_i_glide_rotatable_bonds>  (359) 
0

>  <r_i_docking_score>  (359) 
-3.81065

>  <r_i_glide_ligand_efficiency>  (359) 
-0.254043

>  <r_i_glide_ligand_efficiency_sa>  (359) 
-0.626525

>  <r_i_glide_ligand_efficiency_ln>  (359) 
-1.02767

>  <r_i_glide_gscore>  (359) 
-3.81065

>  <r_i_glide_lipo>  (359) 
-0.0746739

>  <r_i_glide_hbond>  (359) 
-0.00841248

>  <r_i_glide_metal>  (359) 
-0

>  <r_i_glide_rewards>  (359) 
-2.1254

>  <r_i_glide_evdw>  (359) 
-16.1937

>  <r_i_glide_ecoul>  (359) 
-4.7855

>  <r_i_glide_erotb>  (359) 
0

>  <r_i_glide_esite>  (359) 
-0.0746557

>  <r_i_glide_emodel>  (359) 
-27.172

>  <r_i_glide_energy>  (359) 
-20.9792

>  <r_i_glide_einternal>  (359) 
0

>  <r_i_glide_intrahb_reward>  (359) 
-0

>  <i_i_glide_confnum>  (359) 
2

>  <i_i_glide_posenum>  (359) 
8

>  <r_i_glide_eff_state_penalty>  (359) 
0

>  <ligand_id>  (359) 
102

>  <original_smiles>  (359) 
Cn1cnn2c(=O)c3ccccc3nc12

>  <smiles>  (359) 
[H]c1c([H])c([H])c2c(=O)n3nc([H])n(C([H])([H])[H])c3nc2c1[H]

$$$$
102:0:2
     RDKit          3D

 23 25  0  0  1  0  0  0  0  0999 V2000
    1.5994   -0.5241    3.1205 C   0  0  0  0  0  0  0  0  0  0  0  0
    0.5281    0.4596    3.1802 N   0  0  0  0  0  0  0  0  0  0  0  0
   -0.0476    1.0652    2.0992 C   0  0  0  0  0  0  0  0  0  0  0  0
   -0.9909    1.8778    2.4447 N   0  0  0  0  0  0  0  0  0  0  0  0
   -1.0104    1.8103    3.8153 N   0  0  0  0  0  0  0  0  0  0  0  0
   -1.8349    2.5332    4.6060 C   0  0  0  0  0  0  0  0  0  0  0  0
   -2.6581    3.3481    4.1891 O   0  0  0  0  0  0  0  0  0  0  0  0
   -1.6799    2.2654    6.0782 C   0  0  0  0  0  0  0  0  0  0  0  0
   -2.4811    2.9298    7.0344 C   0  0  0  0  0  0  0  0  0  0  0  0
   -2.3031    2.6689    8.4056 C   0  0  0  0  0  0  0  0  0  0  0  0
   -1.3237    1.7474    8.8205 C   0  0  0  0  0  0  0  0  0  0  0  0
   -0.5265    1.0785    7.8685 C   0  0  0  0  0  0  0  0  0  0  0  0
   -0.6969    1.3262    6.4930 C   0  0  0  0  0  0  0  0  0  0  0  0
    0.1177    0.6369    5.5737 N   0  0  0  0  0  0  0  0  0  0  0  0
   -0.0680    0.9125    4.3215 C   0  0  0  0  0  0  0  0  0  0  0  0
    1.9045   -0.7307    2.0916 H   0  0  0  0  0  0  0  0  0  0  0  0
    1.2844   -1.4653    3.5717 H   0  0  0  0  0  0  0  0  0  0  0  0
    2.4749   -0.1701    3.6654 H   0  0  0  0  0  0  0  0  0  0  0  0
    0.3033    0.8315    1.0924 H   0  0  0  0  0  0  0  0  0  0  0  0
   -3.2276    3.6417    6.7173 H   0  0  0  0  0  0  0  0  0  0  0  0
   -2.9098    3.1778    9.1385 H   0  0  0  0  0  0  0  0  0  0  0  0
   -1.1824    1.5532    9.8725 H   0  0  0  0  0  0  0  0  0  0  0  0
    0.2263    0.3763    8.1982 H   0  0  0  0  0  0  0  0  0  0  0  0
  1  2  1  0
  1 16  1  0
  1 17  1  0
  1 18  1  0
  2 15  1  0
  2  3  1  0
  3  4  2  0
  3 19  1  0
  4  5  1  0
  5 15  1  0
  5  6  1  0
  6  7  2  0
  6  8  1  0
  8 13  2  0
  8  9  1  0
  9 10  2  0
  9 20  1  0
 10 11  1  0
 10 21  1  0
 11 12  2  0
 11 22  1  0
 12 13  1  0
 12 23  1  0
 13 14  1  0
 14 15  2  0
M  END
>  <i_m_ct_stereo_status>  (360) 
1

>  <s_m_source_file>  (360) 
/var/tmp/pbs.5076255.sched01/tmp2gi29psn/132an720x3a.sdf

>  <i_m_source_file_index>  (360) 
15

>  <i_lp_mmshare_version>  (360) 
48012

>  <i_f3d_flags>  (360) 
0

>  <s_epik_input>  (360) 
bjFbY0hdbihbQ0gzXSljKG4xMiluYzNjKGMyPU8pW2NIXVtjSF1bY0hdW2NIXTM=

>  <s_epik_cmdline>  (360) 
J2VwaWtfcHl0aG9uJywgJy1waHQnLCAnMi4wJywgJy1waCcsICc3LjAnLCAnLXRuJywgJzgnLCAnLW1hJywgJzIwMCcsICctaW1hZScsICc8aW5maWxlLm1hZT4nLCAnLW9tYWUnLCAnPG91dGZpbGUubWFlPic=

>  <r_epik_Ionization_Penalty>  (360) 
0.327839

>  <r_epik_Ionization_Penalty_Charging>  (360) 
3.28896e-14

>  <r_epik_Ionization_Penalty_Neutral>  (360) 
0.327839

>  <r_epik_State_Penalty>  (360) 
0.322755

>  <r_epik_Charging_Adjusted_Penalty>  (360) 
0.322755

>  <i_epik_Tot_Q>  (360) 
0

>  <i_epik_Tot_abs_Q>  (360) 
0

>  <s_lp_Force_Field>  (360) 
OPLS3e

>  <r_lp_Energy>  (360) 
28.7449

>  <b_lp_Chiralities_Consistent>  (360) 
1

>  <s_lp_Variant>  (360) 
102:0-1

>  <s_i_glide_gridfile>  (360) 
pfpi4k_grid

>  <i_i_glide_lignum>  (360) 
15

>  <i_i_glide_rotatable_bonds>  (360) 
0

>  <r_i_docking_score>  (360) 
-3.69913

>  <r_i_glide_ligand_efficiency>  (360) 
-0.246608

>  <r_i_glide_ligand_efficiency_sa>  (360) 
-0.608189

>  <r_i_glide_ligand_efficiency_ln>  (360) 
-0.997593

>  <r_i_glide_gscore>  (360) 
-3.69913

>  <r_i_glide_lipo>  (360) 
-0.144415

>  <r_i_glide_hbond>  (360) 
0

>  <r_i_glide_metal>  (360) 
-0

>  <r_i_glide_rewards>  (360) 
-2.04411

>  <r_i_glide_evdw>  (360) 
-18.3529

>  <r_i_glide_ecoul>  (360) 
-3.01825

>  <r_i_glide_erotb>  (360) 
0

>  <r_i_glide_esite>  (360) 
-0.140215

>  <r_i_glide_emodel>  (360) 
-27.377

>  <r_i_glide_energy>  (360) 
-21.3712

>  <r_i_glide_einternal>  (360) 
0

>  <r_i_glide_intrahb_reward>  (360) 
-0

>  <i_i_glide_confnum>  (360) 
1

>  <i_i_glide_posenum>  (360) 
27

>  <r_i_glide_eff_state_penalty>  (360) 
0

>  <ligand_id>  (360) 
102

>  <original_smiles>  (360) 
Cn1cnn2c(=O)c3ccccc3nc12

>  <smiles>  (360) 
[H]c1c([H])c([H])c2c(=O)n3nc([H])n(C([H])([H])[H])c3nc2c1[H]

$$$$
102:1:0
     RDKit          3D

 24 26  0  0  1  0  0  0  0  0999 V2000
    4.0815   -6.3175    0.2208 C   0  0  0  0  0  0  0  0  0  0  0  0
    4.6941   -4.9935    0.2529 N   0  0  0  0  0  0  0  0  0  0  0  0
    5.6121   -4.6004    1.2385 C   0  0  0  0  0  0  0  0  0  0  0  0
    6.0280   -3.3536    1.0526 N   0  0  0  0  0  0  0  0  0  0  0  0
    5.3677   -2.9563   -0.0319 N   0  0  0  0  0  0  0  0  0  0  0  0
    5.4226   -1.6859   -0.7007 C   0  0  0  0  0  0  0  0  0  0  0  0
    6.1758   -0.8224   -0.2565 O   0  0  0  0  0  0  0  0  0  0  0  0
    4.5836   -1.5034   -1.9407 C   0  0  0  0  0  0  0  0  0  0  0  0
    4.6012   -0.2986   -2.6562 C   0  0  0  0  0  0  0  0  0  0  0  0
    3.8149   -0.1269   -3.8044 C   0  0  0  0  0  0  0  0  0  0  0  0
    3.0141   -1.1882   -4.2475 C   0  0  0  0  0  0  0  0  0  0  0  0
    2.9834   -2.4135   -3.5482 C   0  0  0  0  0  0  0  0  0  0  0  0
    3.7710   -2.5641   -2.3891 C   0  0  0  0  0  0  0  0  0  0  0  0
    3.7806   -3.7500   -1.6544 N   0  0  0  0  0  0  0  0  0  0  0  0
    4.5710   -3.9166   -0.5281 C   0  0  0  0  0  0  0  0  0  0  0  0
    4.4495   -6.9066    1.0579 H   0  0  0  0  0  0  0  0  0  0  0  0
    4.3411   -6.8093   -0.7173 H   0  0  0  0  0  0  0  0  0  0  0  0
    2.9986   -6.2118    0.2922 H   0  0  0  0  0  0  0  0  0  0  0  0
    5.9415   -5.2303    2.0518 H   0  0  0  0  0  0  0  0  0  0  0  0
    5.2081    0.5155   -2.3307 H   0  0  0  0  0  0  0  0  0  0  0  0
    3.8163    0.8178   -4.3261 H   0  0  0  0  0  0  0  0  0  0  0  0
    2.4028   -1.0280   -5.1138 H   0  0  0  0  0  0  0  0  0  0  0  0
    2.3450   -3.2179   -3.8915 H   0  0  0  0  0  0  0  0  0  0  0  0
    3.2373   -4.5325   -1.9934 H   0  0  0  0  0  0  0  0  0  0  0  0
  1  2  1  0
  1 16  1  0
  1 17  1  0
  1 18  1  0
  2 15  2  0
  2  3  1  0
  3  4  2  0
  3 19  1  0
  4  5  1  0
  5 15  1  0
  5  6  1  0
  6  7  2  0
  6  8  1  0
  8 13  2  0
  8  9  1  0
  9 10  2  0
  9 20  1  0
 10 11  1  0
 10 21  1  0
 11 12  2  0
 11 22  1  0
 12 13  1  0
 12 23  1  0
 13 14  1  0
 14 15  1  0
 14 24  1  0
M  CHG  1   2   1
M  END
>  <i_m_ct_stereo_status>  (361) 
1

>  <s_m_source_file>  (361) 
/var/tmp/pbs.5076255.sched01/tmp2gi29psn/132an720x3a.sdf

>  <i_m_source_file_index>  (361) 
16

>  <i_lp_mmshare_version>  (361) 
48012

>  <i_f3d_flags>  (361) 
0

>  <s_epik_input>  (361) 
bjFbY0hdbihbQ0gzXSljKG4xMiluYzNjKGMyPU8pW2NIXVtjSF1bY0hdW2NIXTM=

>  <s_epik_cmdline>  (361) 
J2VwaWtfcHl0aG9uJywgJy1waHQnLCAnMi4wJywgJy1waCcsICc3LjAnLCAnLXRuJywgJzgnLCAnLW1hJywgJzIwMCcsICctaW1hZScsICc8aW5maWxlLm1hZT4nLCAnLW9tYWUnLCAnPG91dGZpbGUubWFlPic=

>  <r_epik_Ionization_Penalty>  (361) 
0.507026

>  <r_epik_Ionization_Penalty_Charging>  (361) 
0.507024

>  <r_epik_Ionization_Penalty_Neutral>  (361) 
2.15021e-06

>  <r_epik_State_Penalty>  (361) 
0.513966

>  <r_epik_Charging_Adjusted_Penalty>  (361) 
1.02099

>  <i_epik_Tot_Q>  (361) 
1

>  <i_epik_Tot_abs_Q>  (361) 
1

>  <s_lp_Force_Field>  (361) 
OPLS3e

>  <r_lp_Energy>  (361) 
21.053

>  <b_lp_Chiralities_Consistent>  (361) 
1

>  <s_lp_Variant>  (361) 
102:0-2

>  <s_i_glide_gridfile>  (361) 
pfpi4k_grid

>  <i_i_glide_lignum>  (361) 
16

>  <i_i_glide_rotatable_bonds>  (361) 
0

>  <r_i_docking_score>  (361) 
-4.68575

>  <r_i_glide_ligand_efficiency>  (361) 
-0.312383

>  <r_i_glide_ligand_efficiency_sa>  (361) 
-0.770403

>  <r_i_glide_ligand_efficiency_ln>  (361) 
-1.26367

>  <r_i_glide_gscore>  (361) 
-4.68575

>  <r_i_glide_lipo>  (361) 
-0.554399

>  <r_i_glide_hbond>  (361) 
-0.361458

>  <r_i_glide_metal>  (361) 
-0

>  <r_i_glide_rewards>  (361) 
-2.2383

>  <r_i_glide_evdw>  (361) 
-12.9641

>  <r_i_glide_ecoul>  (361) 
-5.74217

>  <r_i_glide_erotb>  (361) 
0

>  <r_i_glide_esite>  (361) 
-0.0220577

>  <r_i_glide_emodel>  (361) 
-25.8378

>  <r_i_glide_energy>  (361) 
-18.7063

>  <r_i_glide_einternal>  (361) 
0

>  <r_i_glide_intrahb_reward>  (361) 
-0

>  <i_i_glide_confnum>  (361) 
2

>  <i_i_glide_posenum>  (361) 
8

>  <r_i_glide_eff_state_penalty>  (361) 
0

>  <ligand_id>  (361) 
102

>  <original_smiles>  (361) 
Cn1cnn2c(=O)c3ccccc3nc12

>  <smiles>  (361) 
[H]c1c([H])c([H])c2c(c1[H])c(=O)n1nc([H])[n+](C([H])([H])[H])c1n2[H]

$$$$
102:1:1
     RDKit          3D

 24 26  0  0  1  0  0  0  0  0999 V2000
    3.5724   -1.3949    0.0912 C   0  0  0  0  0  0  0  0  0  0  0  0
    3.6316   -0.6967    1.3739 N   0  0  0  0  0  0  0  0  0  0  0  0
    4.7859   -0.6800    2.1723 C   0  0  0  0  0  0  0  0  0  0  0  0
    4.5909    0.0049    3.2951 N   0  0  0  0  0  0  0  0  0  0  0  0
    3.3357    0.4280    3.2001 N   0  0  0  0  0  0  0  0  0  0  0  0
    2.5913    1.2244    4.1395 C   0  0  0  0  0  0  0  0  0  0  0  0
    3.1419    1.5906    5.1779 O   0  0  0  0  0  0  0  0  0  0  0  0
    1.1633    1.5470    3.7971 C   0  0  0  0  0  0  0  0  0  0  0  0
    0.3712    2.3180    4.6747 C   0  0  0  0  0  0  0  0  0  0  0  0
   -0.9621    2.6157    4.3390 C   0  0  0  0  0  0  0  0  0  0  0  0
   -1.5068    2.1421    3.1281 C   0  0  0  0  0  0  0  0  0  0  0  0
   -0.7234    1.3627    2.2502 C   0  0  0  0  0  0  0  0  0  0  0  0
    0.6132    1.0686    2.5790 C   0  0  0  0  0  0  0  0  0  0  0  0
    1.4208    0.3036    1.7242 N   0  0  0  0  0  0  0  0  0  0  0  0
    2.7395    0.0179    2.0665 C   0  0  0  0  0  0  0  0  0  0  0  0
    4.5325   -1.8646   -0.1214 H   0  0  0  0  0  0  0  0  0  0  0  0
    3.3337   -0.6748   -0.6910 H   0  0  0  0  0  0  0  0  0  0  0  0
    2.7914   -2.1552    0.1355 H   0  0  0  0  0  0  0  0  0  0  0  0
    5.7211   -1.1642    1.9173 H   0  0  0  0  0  0  0  0  0  0  0  0
    0.7869    2.6851    5.6040 H   0  0  0  0  0  0  0  0  0  0  0  0
   -1.5623    3.2093    5.0103 H   0  0  0  0  0  0  0  0  0  0  0  0
   -2.5276    2.3718    2.8705 H   0  0  0  0  0  0  0  0  0  0  0  0
   -1.1475    1.0102    1.3193 H   0  0  0  0  0  0  0  0  0  0  0  0
    1.0421   -0.0373    0.8384 H   0  0  0  0  0  0  0  0  0  0  0  0
  1  2  1  0
  1 16  1  0
  1 17  1  0
  1 18  1  0
  2 15  2  0
  2  3  1  0
  3  4  2  0
  3 19  1  0
  4  5  1  0
  5 15  1  0
  5  6  1  0
  6  7  2  0
  6  8  1  0
  8 13  2  0
  8  9  1  0
  9 10  2  0
  9 20  1  0
 10 11  1  0
 10 21  1  0
 11 12  2  0
 11 22  1  0
 12 13  1  0
 12 23  1  0
 13 14  1  0
 14 15  1  0
 14 24  1  0
M  CHG  1   2   1
M  END
>  <i_m_ct_stereo_status>  (362) 
1

>  <s_m_source_file>  (362) 
/var/tmp/pbs.5076255.sched01/tmp2gi29psn/132an720x3a.sdf

>  <i_m_source_file_index>  (362) 
16

>  <i_lp_mmshare_version>  (362) 
48012

>  <i_f3d_flags>  (362) 
0

>  <s_epik_input>  (362) 
bjFbY0hdbihbQ0gzXSljKG4xMiluYzNjKGMyPU8pW2NIXVtjSF1bY0hdW2NIXTM=

>  <s_epik_cmdline>  (362) 
J2VwaWtfcHl0aG9uJywgJy1waHQnLCAnMi4wJywgJy1waCcsICc3LjAnLCAnLXRuJywgJzgnLCAnLW1hJywgJzIwMCcsICctaW1hZScsICc8aW5maWxlLm1hZT4nLCAnLW9tYWUnLCAnPG91dGZpbGUubWFlPic=

>  <r_epik_Ionization_Penalty>  (362) 
0.507026

>  <r_epik_Ionization_Penalty_Charging>  (362) 
0.507024

>  <r_epik_Ionization_Penalty_Neutral>  (362) 
2.15021e-06

>  <r_epik_State_Penalty>  (362) 
0.513966

>  <r_epik_Charging_Adjusted_Penalty>  (362) 
1.02099

>  <i_epik_Tot_Q>  (362) 
1

>  <i_epik_Tot_abs_Q>  (362) 
1

>  <s_lp_Force_Field>  (362) 
OPLS3e

>  <r_lp_Energy>  (362) 
21.053

>  <b_lp_Chiralities_Consistent>  (362) 
1

>  <s_lp_Variant>  (362) 
102:0-2

>  <s_i_glide_gridfile>  (362) 
pfpi4k_grid

>  <i_i_glide_lignum>  (362) 
16

>  <i_i_glide_rotatable_bonds>  (362) 
0

>  <r_i_docking_score>  (362) 
-3.89241

>  <r_i_glide_ligand_efficiency>  (362) 
-0.259494

>  <r_i_glide_ligand_efficiency_sa>  (362) 
-0.639967

>  <r_i_glide_ligand_efficiency_ln>  (362) 
-1.04972

>  <r_i_glide_gscore>  (362) 
-3.89241

>  <r_i_glide_lipo>  (362) 
0

>  <r_i_glide_hbond>  (362) 
-0.16

>  <r_i_glide_metal>  (362) 
-0

>  <r_i_glide_rewards>  (362) 
-2.18388

>  <r_i_glide_evdw>  (362) 
-15.9346

>  <r_i_glide_ecoul>  (362) 
-4.34139

>  <r_i_glide_erotb>  (362) 
0

>  <r_i_glide_esite>  (362) 
-0.10059

>  <r_i_glide_emodel>  (362) 
-26.2047

>  <r_i_glide_energy>  (362) 
-20.276

>  <r_i_glide_einternal>  (362) 
0

>  <r_i_glide_intrahb_reward>  (362) 
-0

>  <i_i_glide_confnum>  (362) 
1

>  <i_i_glide_posenum>  (362) 
16

>  <r_i_glide_eff_state_penalty>  (362) 
0

>  <ligand_id>  (362) 
102

>  <original_smiles>  (362) 
Cn1cnn2c(=O)c3ccccc3nc12

>  <smiles>  (362) 
[H]c1c([H])c([H])c2c(c1[H])c(=O)n1nc([H])[n+](C([H])([H])[H])c1n2[H]

$$$$
102:1:2
     RDKit          3D

 24 26  0  0  1  0  0  0  0  0999 V2000
    2.9029   -0.2796    1.3037 C   0  0  0  0  0  0  0  0  0  0  0  0
    1.9665   -0.6508    2.3620 N   0  0  0  0  0  0  0  0  0  0  0  0
    1.8349   -1.9695    2.8245 C   0  0  0  0  0  0  0  0  0  0  0  0
    0.9256   -2.0571    3.7920 N   0  0  0  0  0  0  0  0  0  0  0  0
    0.4857   -0.8126    3.9356 N   0  0  0  0  0  0  0  0  0  0  0  0
   -0.5157   -0.3183    4.8473 C   0  0  0  0  0  0  0  0  0  0  0  0
   -1.0766   -1.1037    5.6131 O   0  0  0  0  0  0  0  0  0  0  0  0
   -0.8229    1.1515    4.8047 C   0  0  0  0  0  0  0  0  0  0  0  0
   -1.7839    1.7069    5.6730 C   0  0  0  0  0  0  0  0  0  0  0  0
   -2.0708    3.0824    5.6154 C   0  0  0  0  0  0  0  0  0  0  0  0
   -1.3855    3.9010    4.6979 C   0  0  0  0  0  0  0  0  0  0  0  0
   -0.4203    3.3600    3.8268 C   0  0  0  0  0  0  0  0  0  0  0  0
   -0.1379    1.9820    3.8820 C   0  0  0  0  0  0  0  0  0  0  0  0
    0.8185    1.4078    3.0389 N   0  0  0  0  0  0  0  0  0  0  0  0
    1.0898    0.0431    3.0931 C   0  0  0  0  0  0  0  0  0  0  0  0
    3.4450   -1.1608    0.9583 H   0  0  0  0  0  0  0  0  0  0  0  0
    3.6069    0.4604    1.6906 H   0  0  0  0  0  0  0  0  0  0  0  0
    2.3359    0.1432    0.4805 H   0  0  0  0  0  0  0  0  0  0  0  0
    2.4022   -2.8116    2.4480 H   0  0  0  0  0  0  0  0  0  0  0  0
   -2.3149    1.0811    6.3750 H   0  0  0  0  0  0  0  0  0  0  0  0
   -2.8128    3.5022    6.2763 H   0  0  0  0  0  0  0  0  0  0  0  0
   -1.6008    4.9491    4.6602 H   0  0  0  0  0  0  0  0  0  0  0  0
    0.0957    4.0015    3.1229 H   0  0  0  0  0  0  0  0  0  0  0  0
    1.2957    1.9967    2.3702 H   0  0  0  0  0  0  0  0  0  0  0  0
  1  2  1  0
  1 16  1  0
  1 17  1  0
  1 18  1  0
  2 15  2  0
  2  3  1  0
  3  4  2  0
  3 19  1  0
  4  5  1  0
  5 15  1  0
  5  6  1  0
  6  7  2  0
  6  8  1  0
  8 13  2  0
  8  9  1  0
  9 10  2  0
  9 20  1  0
 10 11  1  0
 10 21  1  0
 11 12  2  0
 11 22  1  0
 12 13  1  0
 12 23  1  0
 13 14  1  0
 14 15  1  0
 14 24  1  0
M  CHG  1   2   1
M  END
>  <i_m_ct_stereo_status>  (363) 
1

>  <s_m_source_file>  (363) 
/var/tmp/pbs.5076255.sched01/tmp2gi29psn/132an720x3a.sdf

>  <i_m_source_file_index>  (363) 
16

>  <i_lp_mmshare_version>  (363) 
48012

>  <i_f3d_flags>  (363) 
0

>  <s_epik_input>  (363) 
bjFbY0hdbihbQ0gzXSljKG4xMiluYzNjKGMyPU8pW2NIXVtjSF1bY0hdW2NIXTM=

>  <s_epik_cmdline>  (363) 
J2VwaWtfcHl0aG9uJywgJy1waHQnLCAnMi4wJywgJy1waCcsICc3LjAnLCAnLXRuJywgJzgnLCAnLW1hJywgJzIwMCcsICctaW1hZScsICc8aW5maWxlLm1hZT4nLCAnLW9tYWUnLCAnPG91dGZpbGUubWFlPic=

>  <r_epik_Ionization_Penalty>  (363) 
0.507026

>  <r_epik_Ionization_Penalty_Charging>  (363) 
0.507024

>  <r_epik_Ionization_Penalty_Neutral>  (363) 
2.15021e-06

>  <r_epik_State_Penalty>  (363) 
0.513966

>  <r_epik_Charging_Adjusted_Penalty>  (363) 
1.02099

>  <i_epik_Tot_Q>  (363) 
1

>  <i_epik_Tot_abs_Q>  (363) 
1

>  <s_lp_Force_Field>  (363) 
OPLS3e

>  <r_lp_Energy>  (363) 
21.053

>  <b_lp_Chiralities_Consistent>  (363) 
1

>  <s_lp_Variant>  (363) 
102:0-2

>  <s_i_glide_gridfile>  (363) 
pfpi4k_grid

>  <i_i_glide_lignum>  (363) 
16

>  <i_i_glide_rotatable_bonds>  (363) 
0

>  <r_i_docking_score>  (363) 
-3.49117

>  <r_i_glide_ligand_efficiency>  (363) 
-0.232744

>  <r_i_glide_ligand_efficiency_sa>  (363) 
-0.573997

>  <r_i_glide_ligand_efficiency_ln>  (363) 
-0.94151

>  <r_i_glide_gscore>  (363) 
-3.49117

>  <r_i_glide_lipo>  (363) 
-0.0159993

>  <r_i_glide_hbond>  (363) 
0

>  <r_i_glide_metal>  (363) 
-0

>  <r_i_glide_rewards>  (363) 
-2.03724

>  <r_i_glide_evdw>  (363) 
-16.3683

>  <r_i_glide_ecoul>  (363) 
-3.45305

>  <r_i_glide_erotb>  (363) 
0

>  <r_i_glide_esite>  (363) 
-0.101552

>  <r_i_glide_emodel>  (363) 
-25.1401

>  <r_i_glide_energy>  (363) 
-19.8214

>  <r_i_glide_einternal>  (363) 
0

>  <r_i_glide_intrahb_reward>  (363) 
-0

>  <i_i_glide_confnum>  (363) 
2

>  <i_i_glide_posenum>  (363) 
40

>  <r_i_glide_eff_state_penalty>  (363) 
0

>  <ligand_id>  (363) 
102

>  <original_smiles>  (363) 
Cn1cnn2c(=O)c3ccccc3nc12

>  <smiles>  (363) 
[H]c1c([H])c([H])c2c(c1[H])c(=O)n1nc([H])[n+](C([H])([H])[H])c1n2[H]

$$$$
103:0:0
     RDKit          3D

 50 56  0  0  1  0  0  0  0  0999 V2000
    3.7912   -0.6363   -4.5138 C   0  0  0  0  0  0  0  0  0  0  0  0
    4.1370   -2.0143   -4.2921 O   0  0  0  0  0  0  0  0  0  0  0  0
    3.1905   -2.8064   -3.5603 C   0  0  0  0  0  0  0  0  0  0  0  0
    3.3321   -2.6937   -2.0222 C   0  0  2  0  0  0  0  0  0  0  0  0
    3.5386   -1.2404   -1.5708 C   0  0  0  0  0  0  0  0  0  0  0  0
    4.6991   -0.9812   -0.9034 C   0  0  0  0  0  0  0  0  0  0  0  0
    5.9774   -1.7228   -1.5009 C   0  0  2  0  0  0  0  0  0  0  0  0
    6.6931   -3.4051   -1.0246 C   0  0  2  0  0  0  0  0  0  0  0  0
    5.8528   -3.1308   -1.8157 C   0  0  2  0  0  0  0  0  0  0  0  0
    6.8656   -2.2457   -0.5056 C   0  0  2  0  0  0  0  0  0  0  0  0
    6.8494   -2.7323    0.9931 C   0  0  1  0  0  0  0  0  0  0  0  0
    6.0349   -1.6362    1.9335 C   0  0  0  0  0  0  0  0  0  0  0  0
    4.9294   -0.8601    0.7920 C   0  0  2  0  0  0  0  0  0  0  0  0
    4.4296   -2.0749    0.5557 C   0  0  1  0  0  0  0  0  0  0  0  0
    3.5588   -1.9632    1.7096 O   0  0  0  0  0  0  0  0  0  0  0  0
    2.1934   -1.8438    1.3483 C   0  0  0  0  0  0  0  0  0  0  0  0
    5.9164   -1.2694   -0.3032 C   0  0  2  0  0  0  0  0  0  0  0  0
    4.6511   -3.5742    0.1434 C   0  0  1  0  0  0  0  0  0  0  0  0
    3.7468   -4.4628    0.7807 O   0  0  0  0  0  0  0  0  0  0  0  0
    4.4431   -3.6551   -1.3894 C   0  0  1  0  0  0  0  0  0  0  0  0
    6.1329   -3.8801    0.3520 C   0  0  1  0  0  0  0  0  0  0  0  0
    6.5750   -5.2988    0.7585 C   0  0  0  0  0  0  0  0  0  0  0  0
    6.3127   -5.4790    2.1388 O   0  0  0  0  0  0  0  0  0  0  0  0
    6.7259   -6.7431    2.6171 C   0  0  0  0  0  0  0  0  0  0  0  0
    4.5308   -0.1787   -5.1693 H   0  0  0  0  0  0  0  0  0  0  0  0
    3.8452    0.0249   -3.6533 H   0  0  0  0  0  0  0  0  0  0  0  0
    2.7826   -0.5344   -4.9193 H   0  0  0  0  0  0  0  0  0  0  0  0
    2.1711   -2.5864   -3.8831 H   0  0  0  0  0  0  0  0  0  0  0  0
    3.3184   -3.8541   -3.8517 H   0  0  0  0  0  0  0  0  0  0  0  0
    2.3852   -3.0347   -1.5987 H   0  0  0  0  0  0  0  0  0  0  0  0
    2.6266   -0.8042   -1.1670 H   0  0  0  0  0  0  0  0  0  0  0  0
    6.4034   -1.0743   -2.3032 H   0  0  0  0  0  0  0  0  0  0  0  0
    7.6251   -3.8371   -1.5265 H   0  0  0  0  0  0  0  0  0  0  0  0
    6.2177   -3.4602   -2.8188 H   0  0  0  0  0  0  0  0  0  0  0  0
    7.9396   -1.8000   -0.6779 H   0  0  0  0  0  0  0  0  0  0  0  0
    7.8203   -3.0619    1.3488 H   0  0  0  0  0  0  0  0  0  0  0  0
    5.5622   -2.0937    2.7940 H   0  0  0  0  0  0  0  0  0  0  0  0
    6.7178   -0.8709    2.2847 H   0  0  0  0  0  0  0  0  0  0  0  0
    4.2842   -0.0684    1.1822 H   0  0  0  0  0  0  0  0  0  0  0  0
    1.5949   -1.9364    2.2482 H   0  0  0  0  0  0  0  0  0  0  0  0
    1.8814   -2.6223    0.6546 H   0  0  0  0  0  0  0  0  0  0  0  0
    1.9845   -0.8704    0.9037 H   0  0  0  0  0  0  0  0  0  0  0  0
    6.6444   -0.3705   -0.1284 H   0  0  0  0  0  0  0  0  0  0  0  0
    3.9206   -5.3237    0.4573 H   0  0  0  0  0  0  0  0  0  0  0  0
    4.3320   -4.6777   -1.7387 H   0  0  0  0  0  0  0  0  0  0  0  0
    6.0405   -6.0370    0.1598 H   0  0  0  0  0  0  0  0  0  0  0  0
    7.6411   -5.4312    0.5576 H   0  0  0  0  0  0  0  0  0  0  0  0
    6.4960   -6.8118    3.6792 H   0  0  0  0  0  0  0  0  0  0  0  0
    7.8005   -6.8847    2.4973 H   0  0  0  0  0  0  0  0  0  0  0  0
    6.2037   -7.5525    2.1064 H   0  0  0  0  0  0  0  0  0  0  0  0
  1  2  1  0
  1 25  1  0
  1 26  1  0
  1 27  1  0
  2  3  1  0
  3  4  1  0
  3 28  1  0
  3 29  1  0
  4 20  1  0
  4  5  1  0
  4 30  1  1
  5  6  2  0
  5 31  1  0
  6 13  1  0
  6  7  1  0
  7 17  1  0
  7  8  1  0
  7 32  1  6
  8 21  1  0
  8  9  1  0
  8 33  1  6
  9 20  1  0
  9 10  1  0
  9 34  1  6
 10 17  1  0
 10 11  1  0
 10 35  1  6
 11 21  1  0
 11 12  1  0
 11 36  1  1
 12 13  1  0
 12 37  1  0
 12 38  1  0
 13 14  1  0
 13 39  1  1
 14 15  1  1
 14 17  1  0
 14 18  1  0
 15 16  1  0
 16 40  1  0
 16 41  1  0
 16 42  1  0
 17 43  1  6
 18 19  1  1
 18 20  1  0
 18 21  1  0
 19 44  1  0
 20 45  1  1
 21 22  1  1
 22 23  1  0
 22 46  1  0
 22 47  1  0
 23 24  1  0
 24 48  1  0
 24 49  1  0
 24 50  1  0
M  END
>  <i_m_ct_stereo_status>  (364) 
1

>  <s_m_source_file>  (364) 
/var/tmp/pbs.5076255.sched01/tmp2gi29psn/132an720x3a.sdf

>  <i_m_source_file_index>  (364) 
17

>  <i_lp_mmshare_version>  (364) 
48012

>  <i_f3d_flags>  (364) 
0

>  <s_epik_input>  (364) 
W0NIM11PW0NIMl1bQ0BIXShbQ0hdPTEpW0NAQEhdMltDQEBdMyhbT0hdKVtDQF00KFtDSDJdT1tDSDNdKVtDQEhdKFtDSDJdNSlbQ0BIXShbQ0hdNjcpW0NASF0yW0NASF00W0NASF02QzFbQ0BIXTVbQ0BAXTM3T1tDSDNd

>  <s_epik_cmdline>  (364) 
J2VwaWtfcHl0aG9uJywgJy1waHQnLCAnMi4wJywgJy1waCcsICc3LjAnLCAnLXRuJywgJzgnLCAnLW1hJywgJzIwMCcsICctaW1hZScsICc8aW5maWxlLm1hZT4nLCAnLW9tYWUnLCAnPG91dGZpbGUubWFlPic=

>  <r_lp_tautomer_probability>  (364) 
1

>  <r_epik_Ionization_Penalty>  (364) 
4.93814e-08

>  <r_epik_Ionization_Penalty_Charging>  (364) 
0

>  <r_epik_Ionization_Penalty_Neutral>  (364) 
4.93814e-08

>  <r_epik_State_Penalty>  (364) 
-0

>  <r_epik_Charging_Adjusted_Penalty>  (364) 
0

>  <i_epik_Tot_Q>  (364) 
0

>  <i_epik_Tot_abs_Q>  (364) 
0

>  <s_lp_Force_Field>  (364) 
OPLS3e

>  <r_lp_Energy>  (364) 
928.655

>  <b_lp_Chiralities_Consistent>  (364) 
1

>  <s_lp_Variant>  (364) 
103:0-1

>  <s_i_glide_gridfile>  (364) 
pfpi4k_grid

>  <i_i_glide_lignum>  (364) 
17

>  <i_i_glide_rotatable_bonds>  (364) 
6

>  <r_i_docking_score>  (364) 
-3.86713

>  <r_i_glide_ligand_efficiency>  (364) 
-0.16113

>  <r_i_glide_ligand_efficiency_sa>  (364) 
-0.46478

>  <r_i_glide_ligand_efficiency_ln>  (364) 
-0.925581

>  <r_i_glide_gscore>  (364) 
-3.86713

>  <r_i_glide_lipo>  (364) 
-1.2317

>  <r_i_glide_hbond>  (364) 
-0.32

>  <r_i_glide_metal>  (364) 
-0

>  <r_i_glide_rewards>  (364) 
-1.15624

>  <r_i_glide_evdw>  (364) 
-18.2371

>  <r_i_glide_ecoul>  (364) 
-3.94583

>  <r_i_glide_erotb>  (364) 
0.344542

>  <r_i_glide_esite>  (364) 
0

>  <r_i_glide_emodel>  (364) 
-26.0408

>  <r_i_glide_energy>  (364) 
-22.1829

>  <r_i_glide_einternal>  (364) 
2.53747

>  <r_i_glide_intrahb_reward>  (364) 
-0

>  <i_i_glide_confnum>  (364) 
2

>  <i_i_glide_posenum>  (364) 
19

>  <r_i_glide_eff_state_penalty>  (364) 
0

>  <ligand_id>  (364) 
103

>  <original_smiles>  (364) 
COCC1C=C2C3C4C5C6C7CC2C(OC)(C36)C(O)(C15)C74COC

>  <smiles>  (364) 
[H]OC12C3([H])C([H])(C([H])([H])OC([H])([H])[H])C([H])=C4C5([H])C6([H])C7([H])C3([H])C5([H])C1(C([H])([H])OC([H])([H])[H])C7([H])C([H])([H])C4([H])C62OC([H])([H])[H]

$$$$
103:0:1
     RDKit          3D

 50 56  0  0  1  0  0  0  0  0999 V2000
    3.0890    0.1698   -4.5377 C   0  0  0  0  0  0  0  0  0  0  0  0
    3.9234   -0.9758   -4.5795 O   0  0  0  0  0  0  0  0  0  0  0  0
    3.4330   -2.0793   -3.8257 C   0  0  0  0  0  0  0  0  0  0  0  0
    3.6159   -1.8892   -2.3070 C   0  0  2  0  0  0  0  0  0  0  0  0
    4.9647   -1.1734   -1.9575 C   0  0  0  0  0  0  0  0  0  0  0  0
    5.7886   -1.8780   -1.1270 C   0  0  0  0  0  0  0  0  0  0  0  0
    5.9104   -3.4391   -1.4815 C   0  0  1  0  0  0  0  0  0  0  0  0
    4.8848   -4.8876   -0.8061 C   0  0  2  0  0  0  0  0  0  0  0  0
    4.6506   -4.1521   -1.7224 C   0  0  2  0  0  0  0  0  0  0  0  0
    5.8898   -4.3167   -0.3251 C   0  0  2  0  0  0  0  0  0  0  0  0
    5.4092   -4.3506    1.1672 C   0  0  1  0  0  0  0  0  0  0  0  0
    5.7685   -2.9312    1.9231 C   0  0  0  0  0  0  0  0  0  0  0  0
    5.8752   -1.7498    0.6068 C   0  0  2  0  0  0  0  0  0  0  0  0
    4.6002   -2.0549    0.2921 C   0  0  1  0  0  0  0  0  0  0  0  0
    4.1103   -1.1996    1.3602 O   0  0  0  0  0  0  0  0  0  0  0  0
    3.4465   -0.0345    0.9029 C   0  0  0  0  0  0  0  0  0  0  0  0
    6.1523   -2.9587   -0.3017 C   0  0  2  0  0  0  0  0  0  0  0  0
    3.5142   -3.1668    0.0600 C   0  0  1  0  0  0  0  0  0  0  0  0
    2.2425   -2.8700    0.6114 O   0  0  0  0  0  0  0  0  0  0  0  0
    3.3953   -3.2511   -1.4848 C   0  0  1  0  0  0  0  0  0  0  0  0
    4.0931   -4.5201    0.4910 C   0  0  1  0  0  0  0  0  0  0  0  0
    3.1579   -5.6282    1.0429 C   0  0  0  0  0  0  0  0  0  0  0  0
    2.5624   -5.2999    2.3032 O   0  0  0  0  0  0  0  0  0  0  0  0
    3.4372   -5.3199    3.4228 C   0  0  0  0  0  0  0  0  0  0  0  0
    3.5395    0.9830   -5.1067 H   0  0  0  0  0  0  0  0  0  0  0  0
    2.9656    0.5238   -3.5179 H   0  0  0  0  0  0  0  0  0  0  0  0
    2.1067   -0.0399   -4.9621 H   0  0  0  0  0  0  0  0  0  0  0  0
    2.3804   -2.2648   -4.0486 H   0  0  0  0  0  0  0  0  0  0  0  0
    3.9826   -2.9589   -4.1645 H   0  0  0  0  0  0  0  0  0  0  0  0
    2.8334   -1.2161   -1.9519 H   0  0  0  0  0  0  0  0  0  0  0  0
    4.7350   -0.1576   -1.6534 H   0  0  0  0  0  0  0  0  0  0  0  0
    6.7984   -3.5877   -2.1541 H   0  0  0  0  0  0  0  0  0  0  0  0
    4.8017   -5.9455   -1.1820 H   0  0  0  0  0  0  0  0  0  0  0  0
    4.6421   -4.7255   -2.6769 H   0  0  0  0  0  0  0  0  0  0  0  0
    6.8810   -4.9400   -0.3034 H   0  0  0  0  0  0  0  0  0  0  0  0
    5.7791   -5.2491    1.6779 H   0  0  0  0  0  0  0  0  0  0  0  0
    5.0848   -2.6870    2.7542 H   0  0  0  0  0  0  0  0  0  0  0  0
    6.7547   -3.0527    2.3490 H   0  0  0  0  0  0  0  0  0  0  0  0
    6.1261   -0.7328    0.9228 H   0  0  0  0  0  0  0  0  0  0  0  0
    3.0163    0.5032    1.7485 H   0  0  0  0  0  0  0  0  0  0  0  0
    2.6402   -0.2889    0.2189 H   0  0  0  0  0  0  0  0  0  0  0  0
    4.1568    0.6219    0.4025 H   0  0  0  0  0  0  0  0  0  0  0  0
    7.2924   -3.0456   -0.0260 H   0  0  0  0  0  0  0  0  0  0  0  0
    1.9674   -2.0483    0.2262 H   0  0  0  0  0  0  0  0  0  0  0  0
    2.4845   -3.7781   -1.7787 H   0  0  0  0  0  0  0  0  0  0  0  0
    2.3653   -5.7840    0.3085 H   0  0  0  0  0  0  0  0  0  0  0  0
    3.6915   -6.5815    1.1101 H   0  0  0  0  0  0  0  0  0  0  0  0
    2.8860   -5.0677    4.3290 H   0  0  0  0  0  0  0  0  0  0  0  0
    4.2315   -4.5823    3.3467 H   0  0  0  0  0  0  0  0  0  0  0  0
    3.8965   -6.3010    3.5354 H   0  0  0  0  0  0  0  0  0  0  0  0
  1  2  1  0
  1 25  1  0
  1 26  1  0
  1 27  1  0
  2  3  1  0
  3  4  1  0
  3 28  1  0
  3 29  1  0
  4 20  1  0
  4  5  1  0
  4 30  1  1
  5  6  2  0
  5 31  1  0
  6 13  1  0
  6  7  1  0
  7 17  1  0
  7  8  1  0
  7 32  1  6
  8 21  1  0
  8  9  1  0
  8 33  1  6
  9 20  1  0
  9 10  1  0
  9 34  1  6
 10 17  1  0
 10 11  1  0
 10 35  1  6
 11 21  1  0
 11 12  1  0
 11 36  1  1
 12 13  1  0
 12 37  1  0
 12 38  1  0
 13 14  1  0
 13 39  1  6
 14 15  1  1
 14 17  1  0
 14 18  1  0
 15 16  1  0
 16 40  1  0
 16 41  1  0
 16 42  1  0
 17 43  1  6
 18 19  1  1
 18 20  1  0
 18 21  1  0
 19 44  1  0
 20 45  1  1
 21 22  1  1
 22 23  1  0
 22 46  1  0
 22 47  1  0
 23 24  1  0
 24 48  1  0
 24 49  1  0
 24 50  1  0
M  END
>  <i_m_ct_stereo_status>  (365) 
1

>  <s_m_source_file>  (365) 
/var/tmp/pbs.5076255.sched01/tmp2gi29psn/132an720x3a.sdf

>  <i_m_source_file_index>  (365) 
17

>  <i_lp_mmshare_version>  (365) 
48012

>  <i_f3d_flags>  (365) 
0

>  <s_epik_input>  (365) 
W0NIM11PW0NIMl1bQ0BIXShbQ0hdPTEpW0NAQEhdMltDQEBdMyhbT0hdKVtDQF00KFtDSDJdT1tDSDNdKVtDQEhdKFtDSDJdNSlbQ0BIXShbQ0hdNjcpW0NASF0yW0NASF00W0NASF02QzFbQ0BIXTVbQ0BAXTM3T1tDSDNd

>  <s_epik_cmdline>  (365) 
J2VwaWtfcHl0aG9uJywgJy1waHQnLCAnMi4wJywgJy1waCcsICc3LjAnLCAnLXRuJywgJzgnLCAnLW1hJywgJzIwMCcsICctaW1hZScsICc8aW5maWxlLm1hZT4nLCAnLW9tYWUnLCAnPG91dGZpbGUubWFlPic=

>  <r_lp_tautomer_probability>  (365) 
1

>  <r_epik_Ionization_Penalty>  (365) 
4.93814e-08

>  <r_epik_Ionization_Penalty_Charging>  (365) 
0

>  <r_epik_Ionization_Penalty_Neutral>  (365) 
4.93814e-08

>  <r_epik_State_Penalty>  (365) 
-0

>  <r_epik_Charging_Adjusted_Penalty>  (365) 
0

>  <i_epik_Tot_Q>  (365) 
0

>  <i_epik_Tot_abs_Q>  (365) 
0

>  <s_lp_Force_Field>  (365) 
OPLS3e

>  <r_lp_Energy>  (365) 
928.655

>  <b_lp_Chiralities_Consistent>  (365) 
1

>  <s_lp_Variant>  (365) 
103:0-1

>  <s_i_glide_gridfile>  (365) 
pfpi4k_grid

>  <i_i_glide_lignum>  (365) 
17

>  <i_i_glide_rotatable_bonds>  (365) 
6

>  <r_i_docking_score>  (365) 
-3.60197

>  <r_i_glide_ligand_efficiency>  (365) 
-0.150082

>  <r_i_glide_ligand_efficiency_sa>  (365) 
-0.432912

>  <r_i_glide_ligand_efficiency_ln>  (365) 
-0.862118

>  <r_i_glide_gscore>  (365) 
-3.60197

>  <r_i_glide_lipo>  (365) 
-0.667729

>  <r_i_glide_hbond>  (365) 
-0.227935

>  <r_i_glide_metal>  (365) 
-0

>  <r_i_glide_rewards>  (365) 
-1.15624

>  <r_i_glide_evdw>  (365) 
-20.1402

>  <r_i_glide_ecoul>  (365) 
-5.22826

>  <r_i_glide_erotb>  (365) 
0.241179

>  <r_i_glide_esite>  (365) 
0

>  <r_i_glide_emodel>  (365) 
-29.9849

>  <r_i_glide_energy>  (365) 
-25.3685

>  <r_i_glide_einternal>  (365) 
3.23793

>  <r_i_glide_intrahb_reward>  (365) 
-0

>  <i_i_glide_confnum>  (365) 
3

>  <i_i_glide_posenum>  (365) 
37

>  <r_i_glide_eff_state_penalty>  (365) 
0

>  <ligand_id>  (365) 
103

>  <original_smiles>  (365) 
COCC1C=C2C3C4C5C6C7CC2C(OC)(C36)C(O)(C15)C74COC

>  <smiles>  (365) 
[H]OC12C3([H])C([H])(C([H])([H])OC([H])([H])[H])C([H])=C4C5([H])C6([H])C7([H])C3([H])C5([H])C1(C([H])([H])OC([H])([H])[H])C7([H])C([H])([H])C4([H])C62OC([H])([H])[H]

$$$$
103:0:2
     RDKit          3D

 50 56  0  0  1  0  0  0  0  0999 V2000
    3.0665    0.2777   -4.5657 C   0  0  0  0  0  0  0  0  0  0  0  0
    4.1023   -0.6931   -4.5850 O   0  0  0  0  0  0  0  0  0  0  0  0
    3.7559   -1.9213   -3.9514 C   0  0  0  0  0  0  0  0  0  0  0  0
    3.8031   -1.8450   -2.4117 C   0  0  2  0  0  0  0  0  0  0  0  0
    5.0903   -1.1455   -1.9009 C   0  0  0  0  0  0  0  0  0  0  0  0
    5.8664   -1.8918   -1.0390 C   0  0  0  0  0  0  0  0  0  0  0  0
    6.0602   -3.4118   -1.4963 C   0  0  1  0  0  0  0  0  0  0  0  0
    5.0180   -4.9149   -1.0236 C   0  0  2  0  0  0  0  0  0  0  0  0
    4.8448   -4.1158   -1.8856 C   0  0  2  0  0  0  0  0  0  0  0  0
    5.9339   -4.3615   -0.3918 C   0  0  2  0  0  0  0  0  0  0  0  0
    5.3269   -4.5078    1.0533 C   0  0  1  0  0  0  0  0  0  0  0  0
    5.6292   -3.1475    1.9109 C   0  0  0  0  0  0  0  0  0  0  0  0
    5.8007   -1.8799    0.6954 C   0  0  2  0  0  0  0  0  0  0  0  0
    4.5684   -2.1776    0.2558 C   0  0  1  0  0  0  0  0  0  0  0  0
    3.9847   -1.3926    1.3241 O   0  0  0  0  0  0  0  0  0  0  0  0
    3.3756   -0.1893    0.8793 C   0  0  0  0  0  0  0  0  0  0  0  0
    6.1801   -3.0094   -0.2695 C   0  0  2  0  0  0  0  0  0  0  0  0
    3.5346   -3.2822   -0.1692 C   0  0  1  0  0  0  0  0  0  0  0  0
    2.2174   -3.0383    0.2492 O   0  0  0  0  0  0  0  0  0  0  0  0
    3.5576   -3.2581   -1.7146 C   0  0  1  0  0  0  0  0  0  0  0  0
    4.0990   -4.6508    0.2131 C   0  0  1  0  0  0  0  0  0  0  0  0
    3.1432   -5.8076    0.5755 C   0  0  0  0  0  0  0  0  0  0  0  0
    2.4922   -5.5292    1.8081 O   0  0  0  0  0  0  0  0  0  0  0  0
    1.6493   -6.5780    2.2462 C   0  0  0  0  0  0  0  0  0  0  0  0
    3.4023    1.2064   -5.0286 H   0  0  0  0  0  0  0  0  0  0  0  0
    2.7732    0.5139   -3.5470 H   0  0  0  0  0  0  0  0  0  0  0  0
    2.1866   -0.0704   -5.1072 H   0  0  0  0  0  0  0  0  0  0  0  0
    2.7715   -2.2489   -4.2894 H   0  0  0  0  0  0  0  0  0  0  0  0
    4.4659   -2.6686   -4.3078 H   0  0  0  0  0  0  0  0  0  0  0  0
    2.9760   -1.2126   -2.0862 H   0  0  0  0  0  0  0  0  0  0  0  0
    4.8263   -0.1559   -1.5772 H   0  0  0  0  0  0  0  0  0  0  0  0
    7.0068   -3.5014   -2.0913 H   0  0  0  0  0  0  0  0  0  0  0  0
    5.0150   -5.9340   -1.4847 H   0  0  0  0  0  0  0  0  0  0  0  0
    4.9250   -4.6441   -2.8695 H   0  0  0  0  0  0  0  0  0  0  0  0
    6.9439   -4.9518   -0.3171 H   0  0  0  0  0  0  0  0  0  0  0  0
    5.6292   -5.4315    1.5442 H   0  0  0  0  0  0  0  0  0  0  0  0
    4.8731   -2.9953    2.6917 H   0  0  0  0  0  0  0  0  0  0  0  0
    6.5877   -3.2726    2.4175 H   0  0  0  0  0  0  0  0  0  0  0  0
    6.0188   -0.8784    1.0837 H   0  0  0  0  0  0  0  0  0  0  0  0
    2.8656    0.2826    1.7147 H   0  0  0  0  0  0  0  0  0  0  0  0
    2.6350   -0.3828    0.1047 H   0  0  0  0  0  0  0  0  0  0  0  0
    4.1116    0.5194    0.4907 H   0  0  0  0  0  0  0  0  0  0  0  0
    7.2967   -3.0716    0.0774 H   0  0  0  0  0  0  0  0  0  0  0  0
    1.9547   -2.1745   -0.0490 H   0  0  0  0  0  0  0  0  0  0  0  0
    2.6899   -3.7756   -2.1293 H   0  0  0  0  0  0  0  0  0  0  0  0
    2.4105   -5.9395   -0.2206 H   0  0  0  0  0  0  0  0  0  0  0  0
    3.7039   -6.7401    0.6574 H   0  0  0  0  0  0  0  0  0  0  0  0
    1.1726   -6.2755    3.1781 H   0  0  0  0  0  0  0  0  0  0  0  0
    2.2197   -7.4868    2.4407 H   0  0  0  0  0  0  0  0  0  0  0  0
    0.8646   -6.7996    1.5210 H   0  0  0  0  0  0  0  0  0  0  0  0
  1  2  1  0
  1 25  1  0
  1 26  1  0
  1 27  1  0
  2  3  1  0
  3  4  1  0
  3 28  1  0
  3 29  1  0
  4 20  1  0
  4  5  1  0
  4 30  1  1
  5  6  2  0
  5 31  1  0
  6 13  1  0
  6  7  1  0
  7 17  1  0
  7  8  1  0
  7 32  1  6
  8 21  1  0
  8  9  1  0
  8 33  1  6
  9 20  1  0
  9 10  1  0
  9 34  1  6
 10 17  1  0
 10 11  1  0
 10 35  1  6
 11 21  1  0
 11 12  1  0
 11 36  1  1
 12 13  1  0
 12 37  1  0
 12 38  1  0
 13 14  1  0
 13 39  1  1
 14 15  1  1
 14 17  1  0
 14 18  1  0
 15 16  1  0
 16 40  1  0
 16 41  1  0
 16 42  1  0
 17 43  1  6
 18 19  1  6
 18 20  1  0
 18 21  1  0
 19 44  1  0
 20 45  1  6
 21 22  1  1
 22 23  1  0
 22 46  1  0
 22 47  1  0
 23 24  1  0
 24 48  1  0
 24 49  1  0
 24 50  1  0
M  END
>  <i_m_ct_stereo_status>  (366) 
1

>  <s_m_source_file>  (366) 
/var/tmp/pbs.5076255.sched01/tmp2gi29psn/132an720x3a.sdf

>  <i_m_source_file_index>  (366) 
17

>  <i_lp_mmshare_version>  (366) 
48012

>  <i_f3d_flags>  (366) 
0

>  <s_epik_input>  (366) 
W0NIM11PW0NIMl1bQ0BIXShbQ0hdPTEpW0NAQEhdMltDQEBdMyhbT0hdKVtDQF00KFtDSDJdT1tDSDNdKVtDQEhdKFtDSDJdNSlbQ0BIXShbQ0hdNjcpW0NASF0yW0NASF00W0NASF02QzFbQ0BIXTVbQ0BAXTM3T1tDSDNd

>  <s_epik_cmdline>  (366) 
J2VwaWtfcHl0aG9uJywgJy1waHQnLCAnMi4wJywgJy1waCcsICc3LjAnLCAnLXRuJywgJzgnLCAnLW1hJywgJzIwMCcsICctaW1hZScsICc8aW5maWxlLm1hZT4nLCAnLW9tYWUnLCAnPG91dGZpbGUubWFlPic=

>  <r_lp_tautomer_probability>  (366) 
1

>  <r_epik_Ionization_Penalty>  (366) 
4.93814e-08

>  <r_epik_Ionization_Penalty_Charging>  (366) 
0

>  <r_epik_Ionization_Penalty_Neutral>  (366) 
4.93814e-08

>  <r_epik_State_Penalty>  (366) 
-0

>  <r_epik_Charging_Adjusted_Penalty>  (366) 
0

>  <i_epik_Tot_Q>  (366) 
0

>  <i_epik_Tot_abs_Q>  (366) 
0

>  <s_lp_Force_Field>  (366) 
OPLS3e

>  <r_lp_Energy>  (366) 
928.655

>  <b_lp_Chiralities_Consistent>  (366) 
1

>  <s_lp_Variant>  (366) 
103:0-1

>  <s_i_glide_gridfile>  (366) 
pfpi4k_grid

>  <i_i_glide_lignum>  (366) 
17

>  <i_i_glide_rotatable_bonds>  (366) 
6

>  <r_i_docking_score>  (366) 
-3.39241

>  <r_i_glide_ligand_efficiency>  (366) 
-0.14135

>  <r_i_glide_ligand_efficiency_sa>  (366) 
-0.407725

>  <r_i_glide_ligand_efficiency_ln>  (366) 
-0.811958

>  <r_i_glide_gscore>  (366) 
-3.39241

>  <r_i_glide_lipo>  (366) 
-0.501297

>  <r_i_glide_hbond>  (366) 
-0.0939181

>  <r_i_glide_metal>  (366) 
-0

>  <r_i_glide_rewards>  (366) 
-1.15624

>  <r_i_glide_evdw>  (366) 
-21.8586

>  <r_i_glide_ecoul>  (366) 
-5.26135

>  <r_i_glide_erotb>  (366) 
0.241179

>  <r_i_glide_esite>  (366) 
0

>  <r_i_glide_emodel>  (366) 
-32.4554

>  <r_i_glide_energy>  (366) 
-27.1199

>  <r_i_glide_einternal>  (366) 
1.8009

>  <r_i_glide_intrahb_reward>  (366) 
-0

>  <i_i_glide_confnum>  (366) 
3

>  <i_i_glide_posenum>  (366) 
39

>  <r_i_glide_eff_state_penalty>  (366) 
0

>  <ligand_id>  (366) 
103

>  <original_smiles>  (366) 
COCC1C=C2C3C4C5C6C7CC2C(OC)(C36)C(O)(C15)C74COC

>  <smiles>  (366) 
[H]OC12C3([H])C([H])(C([H])([H])OC([H])([H])[H])C([H])=C4C5([H])C6([H])C7([H])C3([H])C5([H])C1(C([H])([H])OC([H])([H])[H])C7([H])C([H])([H])C4([H])C62OC([H])([H])[H]

$$$$
104:0:0
     RDKit          3D

 29 31  0  0  1  0  0  0  0  0999 V2000
    3.2225   -2.3671   -3.5024 C   0  0  0  0  0  0  0  0  0  0  0  0
    4.5200   -2.7767   -2.9644 N   0  0  0  0  0  0  0  0  0  0  0  0
    5.1879   -3.8476   -3.6837 C   0  0  0  0  0  0  0  0  0  0  0  0
    5.0446   -2.3218   -1.7597 C   0  0  0  0  0  0  0  0  0  0  0  0
    6.2815   -2.4009   -1.3849 N   0  0  0  0  0  0  0  0  0  0  0  0
    6.4021   -1.8782   -0.1107 C   0  0  0  0  0  0  0  0  0  0  0  0
    7.4882   -1.8325    0.4750 O   0  0  0  0  0  0  0  0  0  0  0  0
    5.1654   -1.3611    0.4859 C   0  0  0  0  0  0  0  0  0  0  0  0
    5.1235   -0.8315    1.7276 C   0  0  0  0  0  0  0  0  0  0  0  0
    3.9816   -0.2595    2.4646 C   0  0  0  0  0  0  0  0  0  0  0  0
    4.0460   -0.2150    3.8772 C   0  0  0  0  0  0  0  0  0  0  0  0
    2.9590    0.2912    4.6356 C   0  0  0  0  0  0  0  0  0  0  0  0
    1.7772    0.7634    4.0210 C   0  0  0  0  0  0  0  0  0  0  0  0
    0.6157    1.2878    4.5996 N   0  0  0  0  0  0  0  0  0  0  0  0
   -0.2921    1.6304    3.7273 N   0  0  0  0  0  0  0  0  0  0  0  0
    0.1985    1.3470    2.1499 S   0  0  0  0  0  0  0  0  0  0  0  0
    1.7416    0.7045    2.6022 C   0  0  0  0  0  0  0  0  0  0  0  0
    2.8052    0.2066    1.8384 C   0  0  0  0  0  0  0  0  0  0  0  0
    3.8453   -1.6273   -0.6454 S   0  0  0  0  0  0  0  0  0  0  0  0
    3.1500   -1.2813   -3.5471 H   0  0  0  0  0  0  0  0  0  0  0  0
    2.4238   -2.7406   -2.8660 H   0  0  0  0  0  0  0  0  0  0  0  0
    3.0509   -2.7562   -4.5052 H   0  0  0  0  0  0  0  0  0  0  0  0
    6.2646   -3.6763   -3.7034 H   0  0  0  0  0  0  0  0  0  0  0  0
    4.8446   -3.9430   -4.7132 H   0  0  0  0  0  0  0  0  0  0  0  0
    5.0048   -4.7920   -3.1709 H   0  0  0  0  0  0  0  0  0  0  0  0
    6.0550   -0.7663    2.2727 H   0  0  0  0  0  0  0  0  0  0  0  0
    4.9277   -0.5761    4.3975 H   0  0  0  0  0  0  0  0  0  0  0  0
    3.0335    0.3087    5.7180 H   0  0  0  0  0  0  0  0  0  0  0  0
    2.6842    0.2324    0.7732 H   0  0  0  0  0  0  0  0  0  0  0  0
  1  2  1  0
  1 20  1  0
  1 21  1  0
  1 22  1  0
  2  3  1  0
  2  4  1  0
  3 23  1  0
  3 24  1  0
  3 25  1  0
  4 19  1  0
  4  5  2  0
  5  6  1  0
  6  7  2  0
  6  8  1  0
  8  9  2  3
  8 19  1  0
  9 10  1  0
  9 26  1  0
 10 18  1  0
 10 11  2  0
 11 12  1  0
 11 27  1  0
 12 13  2  0
 12 28  1  0
 13 17  1  0
 13 14  1  0
 14 15  2  0
 15 16  1  0
 16 17  1  0
 17 18  2  0
 18 29  1  0
M  END
>  <i_m_ct_stereo_status>  (367) 
1

>  <s_m_source_file>  (367) 
/var/tmp/pbs.5076255.sched01/tmp2gi29psn/132an720x3a.sdf

>  <i_m_source_file_index>  (367) 
18

>  <i_lp_mmshare_version>  (367) 
48012

>  <i_f3d_flags>  (367) 
0

>  <s_epik_input>  (367) 
W0NIM11OKFtDSDNdKUMxPU5DKD1PKS9DKFMxKT1bQ0hdL2MoW2NIXVtjSF0yKVtjSF1jKGMyMylzbm4z

>  <s_epik_cmdline>  (367) 
J2VwaWtfcHl0aG9uJywgJy1waHQnLCAnMi4wJywgJy1waCcsICc3LjAnLCAnLXRuJywgJzgnLCAnLW1hJywgJzIwMCcsICctaW1hZScsICc8aW5maWxlLm1hZT4nLCAnLW9tYWUnLCAnPG91dGZpbGUubWFlPic=

>  <r_lp_tautomer_probability>  (367) 
1

>  <r_epik_Ionization_Penalty>  (367) 
6.61604e-05

>  <r_epik_Ionization_Penalty_Charging>  (367) 
0

>  <r_epik_Ionization_Penalty_Neutral>  (367) 
6.61604e-05

>  <r_epik_State_Penalty>  (367) 
-0

>  <r_epik_Charging_Adjusted_Penalty>  (367) 
0

>  <i_epik_Tot_Q>  (367) 
0

>  <i_epik_Tot_abs_Q>  (367) 
0

>  <s_epik_Chemistry_Notes>  (367) 
This compound has an imine and may undergo hydrolysis.

>  <s_lp_Force_Field>  (367) 
OPLS3e

>  <r_lp_Energy>  (367) 
15.1702

>  <b_lp_Chiralities_Consistent>  (367) 
1

>  <s_lp_Variant>  (367) 
104:0-1

>  <s_i_glide_gridfile>  (367) 
pfpi4k_grid

>  <i_i_glide_lignum>  (367) 
18

>  <i_i_glide_rotatable_bonds>  (367) 
2

>  <r_i_docking_score>  (367) 
-3.91415

>  <r_i_glide_ligand_efficiency>  (367) 
-0.206008

>  <r_i_glide_ligand_efficiency_sa>  (367) 
-0.549711

>  <r_i_glide_ligand_efficiency_ln>  (367) 
-0.99232

>  <r_i_glide_gscore>  (367) 
-3.91415

>  <r_i_glide_lipo>  (367) 
-0.528467

>  <r_i_glide_hbond>  (367) 
-0.0376284

>  <r_i_glide_metal>  (367) 
-0

>  <r_i_glide_rewards>  (367) 
-1.57944

>  <r_i_glide_evdw>  (367) 
-29.6796

>  <r_i_glide_ecoul>  (367) 
-1.43549

>  <r_i_glide_erotb>  (367) 
0

>  <r_i_glide_esite>  (367) 
-0.0693097

>  <r_i_glide_emodel>  (367) 
-38.281

>  <r_i_glide_energy>  (367) 
-31.1151

>  <r_i_glide_einternal>  (367) 
1.3099

>  <r_i_glide_intrahb_reward>  (367) 
-0

>  <i_i_glide_confnum>  (367) 
2

>  <i_i_glide_posenum>  (367) 
15

>  <r_i_glide_eff_state_penalty>  (367) 
0

>  <ligand_id>  (367) 
104

>  <original_smiles>  (367) 
CN(C)C1=NC(=O)C(=Cc2ccc3nnsc3c2)S1

>  <smiles>  (367) 
[H]C(=C1SC(N(C([H])([H])[H])C([H])([H])[H])=NC1=O)c1c([H])c([H])c2nnsc2c1[H]

$$$$
104:0:1
     RDKit          3D

 29 31  0  0  1  0  0  0  0  0999 V2000
   -1.4728    1.3302    4.5216 C   0  0  0  0  0  0  0  0  0  0  0  0
   -0.3732    1.1732    3.5807 N   0  0  0  0  0  0  0  0  0  0  0  0
   -0.3474    2.1358    2.4804 C   0  0  0  0  0  0  0  0  0  0  0  0
    0.3578   -0.0165    3.5956 C   0  0  0  0  0  0  0  0  0  0  0  0
    0.1186   -1.0193    4.3628 N   0  0  0  0  0  0  0  0  0  0  0  0
    0.9848   -2.0625    4.0762 C   0  0  0  0  0  0  0  0  0  0  0  0
    0.9312   -3.1444    4.6637 O   0  0  0  0  0  0  0  0  0  0  0  0
    1.9429   -1.7851    3.0015 C   0  0  0  0  0  0  0  0  0  0  0  0
    2.8591   -2.6997    2.6048 C   0  0  0  0  0  0  0  0  0  0  0  0
    3.8402   -2.5907    1.5068 C   0  0  0  0  0  0  0  0  0  0  0  0
    3.5692   -1.8298    0.3504 C   0  0  0  0  0  0  0  0  0  0  0  0
    4.5272   -1.6877   -0.6733 C   0  0  0  0  0  0  0  0  0  0  0  0
    5.7858   -2.3135   -0.5808 C   0  0  0  0  0  0  0  0  0  0  0  0
    6.8381   -2.2791   -1.4995 N   0  0  0  0  0  0  0  0  0  0  0  0
    7.8829   -2.9516   -1.1227 N   0  0  0  0  0  0  0  0  0  0  0  0
    7.6682   -3.6933    0.3739 S   0  0  0  0  0  0  0  0  0  0  0  0
    6.0455   -3.0871    0.5832 C   0  0  0  0  0  0  0  0  0  0  0  0
    5.0958   -3.2315    1.6168 C   0  0  0  0  0  0  0  0  0  0  0  0
    1.6944   -0.1344    2.4243 S   0  0  0  0  0  0  0  0  0  0  0  0
   -1.1099    1.2366    5.5470 H   0  0  0  0  0  0  0  0  0  0  0  0
   -2.1928    0.5315    4.3478 H   0  0  0  0  0  0  0  0  0  0  0  0
   -1.9874    2.2854    4.4188 H   0  0  0  0  0  0  0  0  0  0  0  0
    0.6632    2.4536    2.2210 H   0  0  0  0  0  0  0  0  0  0  0  0
   -0.9070    3.0388    2.7206 H   0  0  0  0  0  0  0  0  0  0  0  0
   -0.8037    1.6894    1.5982 H   0  0  0  0  0  0  0  0  0  0  0  0
    2.8605   -3.6584    3.1001 H   0  0  0  0  0  0  0  0  0  0  0  0
    2.6139   -1.3566    0.2025 H   0  0  0  0  0  0  0  0  0  0  0  0
    4.2736   -1.0945   -1.5379 H   0  0  0  0  0  0  0  0  0  0  0  0
    5.3368   -3.8209    2.4896 H   0  0  0  0  0  0  0  0  0  0  0  0
  1  2  1  0
  1 20  1  0
  1 21  1  0
  1 22  1  0
  2  3  1  0
  2  4  1  0
  3 23  1  0
  3 24  1  0
  3 25  1  0
  4 19  1  0
  4  5  2  0
  5  6  1  0
  6  7  2  0
  6  8  1  0
  8  9  2  3
  8 19  1  0
  9 10  1  0
  9 26  1  0
 10 18  1  0
 10 11  2  0
 11 12  1  0
 11 27  1  0
 12 13  2  0
 12 28  1  0
 13 17  1  0
 13 14  1  0
 14 15  2  0
 15 16  1  0
 16 17  1  0
 17 18  2  0
 18 29  1  0
M  END
>  <i_m_ct_stereo_status>  (368) 
1

>  <s_m_source_file>  (368) 
/var/tmp/pbs.5076255.sched01/tmp2gi29psn/132an720x3a.sdf

>  <i_m_source_file_index>  (368) 
18

>  <i_lp_mmshare_version>  (368) 
48012

>  <i_f3d_flags>  (368) 
0

>  <s_epik_input>  (368) 
W0NIM11OKFtDSDNdKUMxPU5DKD1PKS9DKFMxKT1bQ0hdL2MoW2NIXVtjSF0yKVtjSF1jKGMyMylzbm4z

>  <s_epik_cmdline>  (368) 
J2VwaWtfcHl0aG9uJywgJy1waHQnLCAnMi4wJywgJy1waCcsICc3LjAnLCAnLXRuJywgJzgnLCAnLW1hJywgJzIwMCcsICctaW1hZScsICc8aW5maWxlLm1hZT4nLCAnLW9tYWUnLCAnPG91dGZpbGUubWFlPic=

>  <r_lp_tautomer_probability>  (368) 
1

>  <r_epik_Ionization_Penalty>  (368) 
6.61604e-05

>  <r_epik_Ionization_Penalty_Charging>  (368) 
0

>  <r_epik_Ionization_Penalty_Neutral>  (368) 
6.61604e-05

>  <r_epik_State_Penalty>  (368) 
-0

>  <r_epik_Charging_Adjusted_Penalty>  (368) 
0

>  <i_epik_Tot_Q>  (368) 
0

>  <i_epik_Tot_abs_Q>  (368) 
0

>  <s_epik_Chemistry_Notes>  (368) 
This compound has an imine and may undergo hydrolysis.

>  <s_lp_Force_Field>  (368) 
OPLS3e

>  <r_lp_Energy>  (368) 
15.1702

>  <b_lp_Chiralities_Consistent>  (368) 
1

>  <s_lp_Variant>  (368) 
104:0-1

>  <s_i_glide_gridfile>  (368) 
pfpi4k_grid

>  <i_i_glide_lignum>  (368) 
18

>  <i_i_glide_rotatable_bonds>  (368) 
2

>  <r_i_docking_score>  (368) 
-3.46659

>  <r_i_glide_ligand_efficiency>  (368) 
-0.182452

>  <r_i_glide_ligand_efficiency_sa>  (368) 
-0.486855

>  <r_i_glide_ligand_efficiency_ln>  (368) 
-0.878855

>  <r_i_glide_gscore>  (368) 
-3.46659

>  <r_i_glide_lipo>  (368) 
-0.300954

>  <r_i_glide_hbond>  (368) 
0

>  <r_i_glide_metal>  (368) 
-0

>  <r_i_glide_rewards>  (368) 
-1.45129

>  <r_i_glide_evdw>  (368) 
-24.1346

>  <r_i_glide_ecoul>  (368) 
-2.36283

>  <r_i_glide_erotb>  (368) 
0

>  <r_i_glide_esite>  (368) 
-0.153188

>  <r_i_glide_emodel>  (368) 
-32.7932

>  <r_i_glide_energy>  (368) 
-26.4974

>  <r_i_glide_einternal>  (368) 
1.26703

>  <r_i_glide_intrahb_reward>  (368) 
-0

>  <i_i_glide_confnum>  (368) 
2

>  <i_i_glide_posenum>  (368) 
10

>  <r_i_glide_eff_state_penalty>  (368) 
0

>  <ligand_id>  (368) 
104

>  <original_smiles>  (368) 
CN(C)C1=NC(=O)C(=Cc2ccc3nnsc3c2)S1

>  <smiles>  (368) 
[H]C(=C1SC(N(C([H])([H])[H])C([H])([H])[H])=NC1=O)c1c([H])c([H])c2nnsc2c1[H]

$$$$
104:0:2
     RDKit          3D

 29 31  0  0  1  0  0  0  0  0999 V2000
   -1.3632    1.7436    2.0838 C   0  0  0  0  0  0  0  0  0  0  0  0
   -0.9327    1.3464    3.4188 N   0  0  0  0  0  0  0  0  0  0  0  0
   -1.7320    1.8671    4.5197 C   0  0  0  0  0  0  0  0  0  0  0  0
    0.2995    0.7491    3.6892 C   0  0  0  0  0  0  0  0  0  0  0  0
    0.7746    0.5335    4.8626 N   0  0  0  0  0  0  0  0  0  0  0  0
    2.0130   -0.0785    4.7737 C   0  0  0  0  0  0  0  0  0  0  0  0
    2.6820   -0.3628    5.7687 O   0  0  0  0  0  0  0  0  0  0  0  0
    2.4597   -0.3585    3.4058 C   0  0  0  0  0  0  0  0  0  0  0  0
    3.6511   -0.9384    3.1515 C   0  0  0  0  0  0  0  0  0  0  0  0
    4.2476   -1.3056    1.8560 C   0  0  0  0  0  0  0  0  0  0  0  0
    5.6544   -1.3115    1.7445 C   0  0  0  0  0  0  0  0  0  0  0  0
    6.2850   -1.6280    0.5207 C   0  0  0  0  0  0  0  0  0  0  0  0
    5.5259   -1.9438   -0.6302 C   0  0  0  0  0  0  0  0  0  0  0  0
    5.9717   -2.2768   -1.9131 N   0  0  0  0  0  0  0  0  0  0  0  0
    5.0110   -2.5228   -2.7585 N   0  0  0  0  0  0  0  0  0  0  0  0
    3.4859   -2.3557   -2.0651 S   0  0  0  0  0  0  0  0  0  0  0  0
    4.1145   -1.9288   -0.4962 C   0  0  0  0  0  0  0  0  0  0  0  0
    3.4772   -1.6188    0.7151 C   0  0  0  0  0  0  0  0  0  0  0  0
    1.2530    0.2444    2.2713 S   0  0  0  0  0  0  0  0  0  0  0  0
   -1.3662    0.9038    1.3911 H   0  0  0  0  0  0  0  0  0  0  0  0
   -0.6855    2.5026    1.6949 H   0  0  0  0  0  0  0  0  0  0  0  0
   -2.3689    2.1616    2.0877 H   0  0  0  0  0  0  0  0  0  0  0  0
   -1.8148    1.1274    5.3178 H   0  0  0  0  0  0  0  0  0  0  0  0
   -2.7392    2.1387    4.2052 H   0  0  0  0  0  0  0  0  0  0  0  0
   -1.2489    2.7536    4.9323 H   0  0  0  0  0  0  0  0  0  0  0  0
    4.2622   -1.2203    3.9979 H   0  0  0  0  0  0  0  0  0  0  0  0
    6.2689   -1.0663    2.6006 H   0  0  0  0  0  0  0  0  0  0  0  0
    7.3633   -1.6209    0.4653 H   0  0  0  0  0  0  0  0  0  0  0  0
    2.4034   -1.6482    0.7519 H   0  0  0  0  0  0  0  0  0  0  0  0
  1  2  1  0
  1 20  1  0
  1 21  1  0
  1 22  1  0
  2  3  1  0
  2  4  1  0
  3 23  1  0
  3 24  1  0
  3 25  1  0
  4 19  1  0
  4  5  2  0
  5  6  1  0
  6  7  2  0
  6  8  1  0
  8  9  2  3
  8 19  1  0
  9 10  1  0
  9 26  1  0
 10 18  1  0
 10 11  2  0
 11 12  1  0
 11 27  1  0
 12 13  2  0
 12 28  1  0
 13 17  1  0
 13 14  1  0
 14 15  2  0
 15 16  1  0
 16 17  1  0
 17 18  2  0
 18 29  1  0
M  END
>  <i_m_ct_stereo_status>  (369) 
1

>  <s_m_source_file>  (369) 
/var/tmp/pbs.5076255.sched01/tmp2gi29psn/132an720x3a.sdf

>  <i_m_source_file_index>  (369) 
18

>  <i_lp_mmshare_version>  (369) 
48012

>  <i_f3d_flags>  (369) 
0

>  <s_epik_input>  (369) 
W0NIM11OKFtDSDNdKUMxPU5DKD1PKS9DKFMxKT1bQ0hdL2MoW2NIXVtjSF0yKVtjSF1jKGMyMylzbm4z

>  <s_epik_cmdline>  (369) 
J2VwaWtfcHl0aG9uJywgJy1waHQnLCAnMi4wJywgJy1waCcsICc3LjAnLCAnLXRuJywgJzgnLCAnLW1hJywgJzIwMCcsICctaW1hZScsICc8aW5maWxlLm1hZT4nLCAnLW9tYWUnLCAnPG91dGZpbGUubWFlPic=

>  <r_lp_tautomer_probability>  (369) 
1

>  <r_epik_Ionization_Penalty>  (369) 
6.61604e-05

>  <r_epik_Ionization_Penalty_Charging>  (369) 
0

>  <r_epik_Ionization_Penalty_Neutral>  (369) 
6.61604e-05

>  <r_epik_State_Penalty>  (369) 
-0

>  <r_epik_Charging_Adjusted_Penalty>  (369) 
0

>  <i_epik_Tot_Q>  (369) 
0

>  <i_epik_Tot_abs_Q>  (369) 
0

>  <s_epik_Chemistry_Notes>  (369) 
This compound has an imine and may undergo hydrolysis.

>  <s_lp_Force_Field>  (369) 
OPLS3e

>  <r_lp_Energy>  (369) 
15.1702

>  <b_lp_Chiralities_Consistent>  (369) 
1

>  <s_lp_Variant>  (369) 
104:0-1

>  <s_i_glide_gridfile>  (369) 
pfpi4k_grid

>  <i_i_glide_lignum>  (369) 
18

>  <i_i_glide_rotatable_bonds>  (369) 
2

>  <r_i_docking_score>  (369) 
-3.32598

>  <r_i_glide_ligand_efficiency>  (369) 
-0.175052

>  <r_i_glide_ligand_efficiency_sa>  (369) 
-0.467108

>  <r_i_glide_ligand_efficiency_ln>  (369) 
-0.843207

>  <r_i_glide_gscore>  (369) 
-3.32598

>  <r_i_glide_lipo>  (369) 
-0.235784

>  <r_i_glide_hbond>  (369) 
0

>  <r_i_glide_metal>  (369) 
-0

>  <r_i_glide_rewards>  (369) 
-1.42932

>  <r_i_glide_evdw>  (369) 
-25.6259

>  <r_i_glide_ecoul>  (369) 
-1.94763

>  <r_i_glide_erotb>  (369) 
0

>  <r_i_glide_esite>  (369) 
-0.0874346

>  <r_i_glide_emodel>  (369) 
-34.1689

>  <r_i_glide_energy>  (369) 
-27.5735

>  <r_i_glide_einternal>  (369) 
0.283319

>  <r_i_glide_intrahb_reward>  (369) 
-0

>  <i_i_glide_confnum>  (369) 
2

>  <i_i_glide_posenum>  (369) 
32

>  <r_i_glide_eff_state_penalty>  (369) 
0

>  <ligand_id>  (369) 
104

>  <original_smiles>  (369) 
CN(C)C1=NC(=O)C(=Cc2ccc3nnsc3c2)S1

>  <smiles>  (369) 
[H]C(=C1SC(N(C([H])([H])[H])C([H])([H])[H])=NC1=O)c1c([H])c([H])c2nnsc2c1[H]

$$$$
104:1:0
     RDKit          3D

 29 31  0  0  1  0  0  0  0  0999 V2000
   -6.9599   -4.7300   -3.2814 C   0  0  0  0  0  0  0  0  0  0  0  0
   -6.6918   -4.7888   -4.7055 N   0  0  0  0  0  0  0  0  0  0  0  0
   -5.5215   -4.0581   -5.1501 C   0  0  0  0  0  0  0  0  0  0  0  0
   -6.9567   -5.9727   -5.3546 C   0  0  0  0  0  0  0  0  0  0  0  0
   -6.3999   -7.1102   -5.0864 N   0  0  0  0  0  0  0  0  0  0  0  0
   -6.8345   -8.0540   -5.9923 C   0  0  0  0  0  0  0  0  0  0  0  0
   -6.3731   -9.2186   -5.9831 O   0  0  0  0  0  0  0  0  0  0  0  0
   -7.8415   -7.6003   -6.9451 C   0  0  0  0  0  0  0  0  0  0  0  0
   -8.5033   -8.2912   -7.9042 C   0  0  0  0  0  0  0  0  0  0  0  0
   -8.4916   -9.7495   -8.2328 C   0  0  0  0  0  0  0  0  0  0  0  0
   -8.3643  -10.7392   -7.2325 C   0  0  0  0  0  0  0  0  0  0  0  0
   -8.1835  -12.0912   -7.5638 C   0  0  0  0  0  0  0  0  0  0  0  0
   -8.2675  -12.5427   -8.9069 C   0  0  0  0  0  0  0  0  0  0  0  0
   -8.1941  -13.8610   -9.4065 N   0  0  0  0  0  0  0  0  0  0  0  0
   -8.3734  -13.9576  -10.6846 N   0  0  0  0  0  0  0  0  0  0  0  0
   -8.6160  -12.4483  -11.4186 S   0  0  0  0  0  0  0  0  0  0  0  0
   -8.4980  -11.5572   -9.9047 C   0  0  0  0  0  0  0  0  0  0  0  0
   -8.5912  -10.1865   -9.5908 C   0  0  0  0  0  0  0  0  0  0  0  0
   -8.0849   -5.8577   -6.6969 S   0  0  0  0  0  0  0  0  0  0  0  0
   -8.0382   -4.6586   -3.1438 H   0  0  0  0  0  0  0  0  0  0  0  0
   -6.4906   -3.8557   -2.8420 H   0  0  0  0  0  0  0  0  0  0  0  0
   -6.5866   -5.5977   -2.7309 H   0  0  0  0  0  0  0  0  0  0  0  0
   -5.6217   -3.8313   -6.2142 H   0  0  0  0  0  0  0  0  0  0  0  0
   -4.6075   -4.6407   -5.0132 H   0  0  0  0  0  0  0  0  0  0  0  0
   -5.4319   -3.1343   -4.5798 H   0  0  0  0  0  0  0  0  0  0  0  0
   -9.1663   -7.7345   -8.5422 H   0  0  0  0  0  0  0  0  0  0  0  0
   -8.3544  -10.4686   -6.1841 H   0  0  0  0  0  0  0  0  0  0  0  0
   -7.9927  -12.8112   -6.7932 H   0  0  0  0  0  0  0  0  0  0  0  0
   -8.7428   -9.4664  -10.3869 H   0  0  0  0  0  0  0  0  0  0  0  0
  1  2  1  0
  1 20  1  0
  1 21  1  0
  1 22  1  0
  2  3  1  0
  2  4  1  0
  3 23  1  0
  3 24  1  0
  3 25  1  0
  4 19  1  0
  4  5  2  0
  5  6  1  0
  6  7  2  0
  6  8  1  0
  8  9  2  3
  8 19  1  0
  9 10  1  0
  9 26  1  0
 10 18  1  0
 10 11  2  0
 11 12  1  0
 11 27  1  0
 12 13  2  0
 12 28  1  0
 13 17  1  0
 13 14  1  0
 14 15  2  0
 15 16  1  0
 16 17  1  0
 17 18  2  0
 18 29  1  0
M  END
>  <i_m_ct_stereo_status>  (370) 
1

>  <s_m_source_file>  (370) 
/var/tmp/pbs.5076255.sched01/tmp2gi29psn/132an720x3a.sdf

>  <i_m_source_file_index>  (370) 
19

>  <i_lp_mmshare_version>  (370) 
48012

>  <i_f3d_flags>  (370) 
0

>  <s_epik_input>  (370) 
W0NIM11OKFtDSDNdKUMxPU5DKD1PKS9DKFMxKT1bQ0hdL2MoW2NIXVtjSF0yKVtjSF1jKGMyMylzbm4z

>  <s_epik_cmdline>  (370) 
J2VwaWtfcHl0aG9uJywgJy1waHQnLCAnMi4wJywgJy1waCcsICc3LjAnLCAnLXRuJywgJzgnLCAnLW1hJywgJzIwMCcsICctaW1hZScsICc8aW5maWxlLm1hZT4nLCAnLW9tYWUnLCAnPG91dGZpbGUubWFlPic=

>  <r_lp_tautomer_probability>  (370) 
1

>  <r_epik_Ionization_Penalty>  (370) 
6.61604e-05

>  <r_epik_Ionization_Penalty_Charging>  (370) 
0

>  <r_epik_Ionization_Penalty_Neutral>  (370) 
6.61604e-05

>  <r_epik_State_Penalty>  (370) 
-0

>  <r_epik_Charging_Adjusted_Penalty>  (370) 
0

>  <i_epik_Tot_Q>  (370) 
0

>  <i_epik_Tot_abs_Q>  (370) 
0

>  <s_epik_Chemistry_Notes>  (370) 
This compound has an imine and may undergo hydrolysis.

>  <s_lp_Force_Field>  (370) 
OPLS3e

>  <r_lp_Energy>  (370) 
20.7526

>  <b_lp_Chiralities_Consistent>  (370) 
1

>  <s_lp_Variant>  (370) 
104:0-2

>  <s_i_glide_gridfile>  (370) 
pfpi4k_grid

>  <i_i_glide_lignum>  (370) 
19

>  <i_i_glide_rotatable_bonds>  (370) 
2

>  <r_i_docking_score>  (370) 
-5.42517

>  <r_i_glide_ligand_efficiency>  (370) 
-0.285535

>  <r_i_glide_ligand_efficiency_sa>  (370) 
-0.761923

>  <r_i_glide_ligand_efficiency_ln>  (370) 
-1.3754

>  <r_i_glide_gscore>  (370) 
-5.42517

>  <r_i_glide_lipo>  (370) 
-1.17675

>  <r_i_glide_hbond>  (370) 
0

>  <r_i_glide_metal>  (370) 
-0

>  <r_i_glide_rewards>  (370) 
-2.83399

>  <r_i_glide_evdw>  (370) 
-27.739

>  <r_i_glide_ecoul>  (370) 
-0.183203

>  <r_i_glide_erotb>  (370) 
0

>  <r_i_glide_esite>  (370) 
0

>  <r_i_glide_emodel>  (370) 
-36.2179

>  <r_i_glide_energy>  (370) 
-27.9222

>  <r_i_glide_einternal>  (370) 
5.17738

>  <r_i_glide_intrahb_reward>  (370) 
-0

>  <i_i_glide_confnum>  (370) 
1

>  <i_i_glide_posenum>  (370) 
14

>  <r_i_glide_eff_state_penalty>  (370) 
0

>  <ligand_id>  (370) 
104

>  <original_smiles>  (370) 
CN(C)C1=NC(=O)C(=Cc2ccc3nnsc3c2)S1

>  <smiles>  (370) 
[H]C(=C1SC(N(C([H])([H])[H])C([H])([H])[H])=NC1=O)c1c([H])c([H])c2nnsc2c1[H]

$$$$
104:1:1
     RDKit          3D

 29 31  0  0  1  0  0  0  0  0999 V2000
   -1.7873   -9.2305    2.3172 C   0  0  0  0  0  0  0  0  0  0  0  0
   -1.1304   -8.3411    3.2620 N   0  0  0  0  0  0  0  0  0  0  0  0
   -1.4139   -8.5519    4.6660 C   0  0  0  0  0  0  0  0  0  0  0  0
   -0.1071   -7.5256    2.8067 C   0  0  0  0  0  0  0  0  0  0  0  0
   -0.0310   -7.0658    1.6153 N   0  0  0  0  0  0  0  0  0  0  0  0
    1.1490   -6.3745    1.4512 C   0  0  0  0  0  0  0  0  0  0  0  0
    1.4045   -5.8582    0.3681 O   0  0  0  0  0  0  0  0  0  0  0  0
    1.9996   -6.3000    2.6591 C   0  0  0  0  0  0  0  0  0  0  0  0
    3.2006   -5.6848    2.7985 C   0  0  0  0  0  0  0  0  0  0  0  0
    4.0439   -5.0268    1.7750 C   0  0  0  0  0  0  0  0  0  0  0  0
    4.2028   -5.5765    0.4838 C   0  0  0  0  0  0  0  0  0  0  0  0
    4.9262   -4.8995   -0.5158 C   0  0  0  0  0  0  0  0  0  0  0  0
    5.5771   -3.6872   -0.2384 C   0  0  0  0  0  0  0  0  0  0  0  0
    6.3560   -2.9138   -1.1040 N   0  0  0  0  0  0  0  0  0  0  0  0
    6.8602   -1.8597   -0.5364 N   0  0  0  0  0  0  0  0  0  0  0  0
    6.3592   -1.6721    1.0570 S   0  0  0  0  0  0  0  0  0  0  0  0
    5.4517   -3.1581    1.0710 C   0  0  0  0  0  0  0  0  0  0  0  0
    4.7007   -3.8085    2.0711 C   0  0  0  0  0  0  0  0  0  0  0  0
    1.1865   -7.1451    3.9741 S   0  0  0  0  0  0  0  0  0  0  0  0
   -2.2157   -8.6632    1.4900 H   0  0  0  0  0  0  0  0  0  0  0  0
   -2.5777   -9.8118    2.7878 H   0  0  0  0  0  0  0  0  0  0  0  0
   -1.0433   -9.9178    1.9058 H   0  0  0  0  0  0  0  0  0  0  0  0
   -1.4409   -7.6054    5.2049 H   0  0  0  0  0  0  0  0  0  0  0  0
   -0.6488   -9.1922    5.0993 H   0  0  0  0  0  0  0  0  0  0  0  0
   -2.3740   -9.0467    4.7755 H   0  0  0  0  0  0  0  0  0  0  0  0
    3.6535   -5.7190    3.7745 H   0  0  0  0  0  0  0  0  0  0  0  0
    3.7557   -6.5242    0.2252 H   0  0  0  0  0  0  0  0  0  0  0  0
    4.9754   -5.3209   -1.5071 H   0  0  0  0  0  0  0  0  0  0  0  0
    4.6229   -3.3695    3.0495 H   0  0  0  0  0  0  0  0  0  0  0  0
  1  2  1  0
  1 20  1  0
  1 21  1  0
  1 22  1  0
  2  3  1  0
  2  4  1  0
  3 23  1  0
  3 24  1  0
  3 25  1  0
  4 19  1  0
  4  5  2  0
  5  6  1  0
  6  7  2  0
  6  8  1  0
  8  9  2  3
  8 19  1  0
  9 10  1  0
  9 26  1  0
 10 18  1  0
 10 11  2  0
 11 12  1  0
 11 27  1  0
 12 13  2  0
 12 28  1  0
 13 17  1  0
 13 14  1  0
 14 15  2  0
 15 16  1  0
 16 17  1  0
 17 18  2  0
 18 29  1  0
M  END
>  <i_m_ct_stereo_status>  (371) 
1

>  <s_m_source_file>  (371) 
/var/tmp/pbs.5076255.sched01/tmp2gi29psn/132an720x3a.sdf

>  <i_m_source_file_index>  (371) 
19

>  <i_lp_mmshare_version>  (371) 
48012

>  <i_f3d_flags>  (371) 
0

>  <s_epik_input>  (371) 
W0NIM11OKFtDSDNdKUMxPU5DKD1PKS9DKFMxKT1bQ0hdL2MoW2NIXVtjSF0yKVtjSF1jKGMyMylzbm4z

>  <s_epik_cmdline>  (371) 
J2VwaWtfcHl0aG9uJywgJy1waHQnLCAnMi4wJywgJy1waCcsICc3LjAnLCAnLXRuJywgJzgnLCAnLW1hJywgJzIwMCcsICctaW1hZScsICc8aW5maWxlLm1hZT4nLCAnLW9tYWUnLCAnPG91dGZpbGUubWFlPic=

>  <r_lp_tautomer_probability>  (371) 
1

>  <r_epik_Ionization_Penalty>  (371) 
6.61604e-05

>  <r_epik_Ionization_Penalty_Charging>  (371) 
0

>  <r_epik_Ionization_Penalty_Neutral>  (371) 
6.61604e-05

>  <r_epik_State_Penalty>  (371) 
-0

>  <r_epik_Charging_Adjusted_Penalty>  (371) 
0

>  <i_epik_Tot_Q>  (371) 
0

>  <i_epik_Tot_abs_Q>  (371) 
0

>  <s_epik_Chemistry_Notes>  (371) 
This compound has an imine and may undergo hydrolysis.

>  <s_lp_Force_Field>  (371) 
OPLS3e

>  <r_lp_Energy>  (371) 
20.7526

>  <b_lp_Chiralities_Consistent>  (371) 
1

>  <s_lp_Variant>  (371) 
104:0-2

>  <s_i_glide_gridfile>  (371) 
pfpi4k_grid

>  <i_i_glide_lignum>  (371) 
19

>  <i_i_glide_rotatable_bonds>  (371) 
2

>  <r_i_docking_score>  (371) 
-4.15769

>  <r_i_glide_ligand_efficiency>  (371) 
-0.218826

>  <r_i_glide_ligand_efficiency_sa>  (371) 
-0.583915

>  <r_i_glide_ligand_efficiency_ln>  (371) 
-1.05406

>  <r_i_glide_gscore>  (371) 
-4.15769

>  <r_i_glide_lipo>  (371) 
-0.636923

>  <r_i_glide_hbond>  (371) 
-0.154707

>  <r_i_glide_metal>  (371) 
-0

>  <r_i_glide_rewards>  (371) 
-1.42932

>  <r_i_glide_evdw>  (371) 
-23.7155

>  <r_i_glide_ecoul>  (371) 
-3.21688

>  <r_i_glide_erotb>  (371) 
0

>  <r_i_glide_esite>  (371) 
-0.268426

>  <r_i_glide_emodel>  (371) 
-34.6702

>  <r_i_glide_energy>  (371) 
-26.9324

>  <r_i_glide_einternal>  (371) 
1.50548

>  <r_i_glide_intrahb_reward>  (371) 
-0

>  <i_i_glide_confnum>  (371) 
1

>  <i_i_glide_posenum>  (371) 
33

>  <r_i_glide_eff_state_penalty>  (371) 
0

>  <ligand_id>  (371) 
104

>  <original_smiles>  (371) 
CN(C)C1=NC(=O)C(=Cc2ccc3nnsc3c2)S1

>  <smiles>  (371) 
[H]C(=C1SC(N(C([H])([H])[H])C([H])([H])[H])=NC1=O)c1c([H])c([H])c2nnsc2c1[H]

$$$$
104:1:2
     RDKit          3D

 29 31  0  0  1  0  0  0  0  0999 V2000
    0.6956  -10.5505    3.7156 C   0  0  0  0  0  0  0  0  0  0  0  0
    0.3232   -9.3974    2.9051 N   0  0  0  0  0  0  0  0  0  0  0  0
   -1.0866   -9.0258    2.9032 C   0  0  0  0  0  0  0  0  0  0  0  0
    1.2502   -8.4792    2.4231 C   0  0  0  0  0  0  0  0  0  0  0  0
    0.9462   -7.3170    1.9905 N   0  0  0  0  0  0  0  0  0  0  0  0
    2.0802   -6.6122    1.6659 C   0  0  0  0  0  0  0  0  0  0  0  0
    1.9903   -5.4222    1.3865 O   0  0  0  0  0  0  0  0  0  0  0  0
    3.3381   -7.3898    1.7520 C   0  0  0  0  0  0  0  0  0  0  0  0
    4.5985   -7.0037    1.4285 C   0  0  0  0  0  0  0  0  0  0  0  0
    5.1112   -5.7797    0.7643 C   0  0  0  0  0  0  0  0  0  0  0  0
    6.4032   -5.2958    1.0698 C   0  0  0  0  0  0  0  0  0  0  0  0
    6.9055   -4.1050    0.4814 C   0  0  0  0  0  0  0  0  0  0  0  0
    6.1072   -3.3459   -0.4159 C   0  0  0  0  0  0  0  0  0  0  0  0
    6.4078   -2.1593   -1.0957 N   0  0  0  0  0  0  0  0  0  0  0  0
    5.4338   -1.7077   -1.8464 N   0  0  0  0  0  0  0  0  0  0  0  0
    4.0811   -2.7153   -1.8041 S   0  0  0  0  0  0  0  0  0  0  0  0
    4.8270   -3.8539   -0.7122 C   0  0  0  0  0  0  0  0  0  0  0  0
    4.3489   -5.0557   -0.1800 C   0  0  0  0  0  0  0  0  0  0  0  0
    2.9619   -8.9747    2.4206 S   0  0  0  0  0  0  0  0  0  0  0  0
    1.3638  -11.2076    3.1547 H   0  0  0  0  0  0  0  0  0  0  0  0
   -0.1852  -11.1242    4.0019 H   0  0  0  0  0  0  0  0  0  0  0  0
    1.1970  -10.2229    4.6300 H   0  0  0  0  0  0  0  0  0  0  0  0
   -1.3681   -8.5923    1.9402 H   0  0  0  0  0  0  0  0  0  0  0  0
   -1.2830   -8.2782    3.6747 H   0  0  0  0  0  0  0  0  0  0  0  0
   -1.7339   -9.8796    3.0797 H   0  0  0  0  0  0  0  0  0  0  0  0
    5.3802   -7.7250    1.6255 H   0  0  0  0  0  0  0  0  0  0  0  0
    7.0419   -5.8475    1.7564 H   0  0  0  0  0  0  0  0  0  0  0  0
    7.9046   -3.7750    0.7059 H   0  0  0  0  0  0  0  0  0  0  0  0
    3.3973   -5.4048   -0.5320 H   0  0  0  0  0  0  0  0  0  0  0  0
  1  2  1  0
  1 20  1  0
  1 21  1  0
  1 22  1  0
  2  3  1  0
  2  4  1  0
  3 23  1  0
  3 24  1  0
  3 25  1  0
  4 19  1  0
  4  5  2  0
  5  6  1  0
  6  7  2  0
  6  8  1  0
  8  9  2  3
  8 19  1  0
  9 10  1  0
  9 26  1  0
 10 18  1  0
 10 11  2  0
 11 12  1  0
 11 27  1  0
 12 13  2  0
 12 28  1  0
 13 17  1  0
 13 14  1  0
 14 15  2  0
 15 16  1  0
 16 17  1  0
 17 18  2  0
 18 29  1  0
M  END
>  <i_m_ct_stereo_status>  (372) 
1

>  <s_m_source_file>  (372) 
/var/tmp/pbs.5076255.sched01/tmp2gi29psn/132an720x3a.sdf

>  <i_m_source_file_index>  (372) 
19

>  <i_lp_mmshare_version>  (372) 
48012

>  <i_f3d_flags>  (372) 
0

>  <s_epik_input>  (372) 
W0NIM11OKFtDSDNdKUMxPU5DKD1PKS9DKFMxKT1bQ0hdL2MoW2NIXVtjSF0yKVtjSF1jKGMyMylzbm4z

>  <s_epik_cmdline>  (372) 
J2VwaWtfcHl0aG9uJywgJy1waHQnLCAnMi4wJywgJy1waCcsICc3LjAnLCAnLXRuJywgJzgnLCAnLW1hJywgJzIwMCcsICctaW1hZScsICc8aW5maWxlLm1hZT4nLCAnLW9tYWUnLCAnPG91dGZpbGUubWFlPic=

>  <r_lp_tautomer_probability>  (372) 
1

>  <r_epik_Ionization_Penalty>  (372) 
6.61604e-05

>  <r_epik_Ionization_Penalty_Charging>  (372) 
0

>  <r_epik_Ionization_Penalty_Neutral>  (372) 
6.61604e-05

>  <r_epik_State_Penalty>  (372) 
-0

>  <r_epik_Charging_Adjusted_Penalty>  (372) 
0

>  <i_epik_Tot_Q>  (372) 
0

>  <i_epik_Tot_abs_Q>  (372) 
0

>  <s_epik_Chemistry_Notes>  (372) 
This compound has an imine and may undergo hydrolysis.

>  <s_lp_Force_Field>  (372) 
OPLS3e

>  <r_lp_Energy>  (372) 
20.7526

>  <b_lp_Chiralities_Consistent>  (372) 
1

>  <s_lp_Variant>  (372) 
104:0-2

>  <s_i_glide_gridfile>  (372) 
pfpi4k_grid

>  <i_i_glide_lignum>  (372) 
19

>  <i_i_glide_rotatable_bonds>  (372) 
2

>  <r_i_docking_score>  (372) 
-3.97047

>  <r_i_glide_ligand_efficiency>  (372) 
-0.208972

>  <r_i_glide_ligand_efficiency_sa>  (372) 
-0.557621

>  <r_i_glide_ligand_efficiency_ln>  (372) 
-1.0066

>  <r_i_glide_gscore>  (372) 
-3.97047

>  <r_i_glide_lipo>  (372) 
-0.568583

>  <r_i_glide_hbond>  (372) 
-0.0318456

>  <r_i_glide_metal>  (372) 
-0

>  <r_i_glide_rewards>  (372) 
-1.42932

>  <r_i_glide_evdw>  (372) 
-27.2177

>  <r_i_glide_ecoul>  (372) 
-2.79269

>  <r_i_glide_erotb>  (372) 
0

>  <r_i_glide_esite>  (372) 
-0.160927

>  <r_i_glide_emodel>  (372) 
-37.9582

>  <r_i_glide_energy>  (372) 
-30.0104

>  <r_i_glide_einternal>  (372) 
0.0100964

>  <r_i_glide_intrahb_reward>  (372) 
-0

>  <i_i_glide_confnum>  (372) 
1

>  <i_i_glide_posenum>  (372) 
11

>  <r_i_glide_eff_state_penalty>  (372) 
0

>  <ligand_id>  (372) 
104

>  <original_smiles>  (372) 
CN(C)C1=NC(=O)C(=Cc2ccc3nnsc3c2)S1

>  <smiles>  (372) 
[H]C(=C1SC(N(C([H])([H])[H])C([H])([H])[H])=NC1=O)c1c([H])c([H])c2nnsc2c1[H]

$$$$
105:0:0
     RDKit          3D

 47 52  0  0  1  0  0  0  0  0999 V2000
    8.0641   -3.5018    0.5653 C   0  0  0  0  0  0  0  0  0  0  0  0
    6.7120   -2.9736    0.2235 N   0  0  2  0  0  0  0  0  0  0  0  0
    6.0875   -1.9804    1.1508 C   0  0  1  0  0  0  0  0  0  0  0  0
    5.4847   -0.9173    0.1641 C   0  0  0  0  0  0  0  0  0  0  0  0
    5.0734   -1.5100   -1.2306 C   0  0  0  0  0  0  0  0  0  0  0  0
    4.6037   -0.6614   -2.2475 C   0  0  0  0  0  0  0  0  0  0  0  0
    4.1732   -1.1612   -3.4836 C   0  0  0  0  0  0  0  0  0  0  0  0
    4.2072   -2.5536   -3.7171 C   0  0  0  0  0  0  0  0  0  0  0  0
    4.6804   -3.4256   -2.7286 C   0  0  0  0  0  0  0  0  0  0  0  0
    5.1062   -2.9192   -1.4700 C   0  0  0  0  0  0  0  0  0  0  0  0
    5.6627   -3.8622   -0.3994 C   0  0  2  0  0  0  0  0  0  0  0  0
    4.7021   -4.6173    0.6631 C   0  0  1  0  0  0  0  0  0  0  0  0
    5.4544   -4.3086    2.0374 C   0  0  0  0  0  0  0  0  0  0  0  0
    5.3120   -2.7332    2.3599 C   0  0  2  0  0  0  0  0  0  0  0  0
    3.8168   -2.4419    2.9925 C   0  0  1  0  0  0  0  0  0  0  0  0
    2.6366   -1.4335    2.7923 C   0  0  0  0  0  0  0  0  0  0  0  0
    1.3717   -2.3756    2.4838 C   0  0  0  0  0  0  0  0  0  0  0  0
    1.8875   -3.7949    1.8881 C   0  0  2  0  0  0  0  0  0  0  0  0
    3.1487   -3.4619    2.2494 C   0  0  1  0  0  0  0  0  0  0  0  0
    2.9855   -2.9682    0.6982 C   0  0  0  0  0  0  0  0  0  0  0  0
    3.0295   -4.3192    0.6457 C   0  0  1  0  0  0  0  0  0  0  0  0
    8.2353   -3.5786    1.6323 H   0  0  0  0  0  0  0  0  0  0  0  0
    8.8233   -2.8231    0.1844 H   0  0  0  0  0  0  0  0  0  0  0  0
    8.2408   -4.4779    0.1308 H   0  0  0  0  0  0  0  0  0  0  0  0
    6.8839   -1.4325    1.6548 H   0  0  0  0  0  0  0  0  0  0  0  0
    4.6417   -0.4063    0.6173 H   0  0  0  0  0  0  0  0  0  0  0  0
    6.2299   -0.1438   -0.0113 H   0  0  0  0  0  0  0  0  0  0  0  0
    4.5446    0.4067   -2.1024 H   0  0  0  0  0  0  0  0  0  0  0  0
    3.8070   -0.4703   -4.2334 H   0  0  0  0  0  0  0  0  0  0  0  0
    3.8462   -2.9363   -4.6679 H   0  0  0  0  0  0  0  0  0  0  0  0
    4.7110   -4.4916   -2.9272 H   0  0  0  0  0  0  0  0  0  0  0  0
    6.1603   -4.6452   -0.9507 H   0  0  0  0  0  0  0  0  0  0  0  0
    4.8271   -5.6837    0.4577 H   0  0  0  0  0  0  0  0  0  0  0  0
    5.1298   -4.9486    2.8550 H   0  0  0  0  0  0  0  0  0  0  0  0
    6.4697   -4.6702    1.9996 H   0  0  0  0  0  0  0  0  0  0  0  0
    5.9452   -2.5669    3.2258 H   0  0  0  0  0  0  0  0  0  0  0  0
    3.8251   -2.7312    4.0464 H   0  0  0  0  0  0  0  0  0  0  0  0
    2.4292   -0.8430    3.6857 H   0  0  0  0  0  0  0  0  0  0  0  0
    2.7932   -0.7335    1.9675 H   0  0  0  0  0  0  0  0  0  0  0  0
    0.7952   -2.5673    3.3823 H   0  0  0  0  0  0  0  0  0  0  0  0
    0.6924   -1.8399    1.8157 H   0  0  0  0  0  0  0  0  0  0  0  0
    1.4362   -4.6611    2.3787 H   0  0  0  0  0  0  0  0  0  0  0  0
    3.2583   -4.4376    2.7680 H   0  0  0  0  0  0  0  0  0  0  0  0
    2.1158   -2.5065    0.1906 H   0  0  0  0  0  0  0  0  0  0  0  0
    3.7856   -2.4040    0.4414 H   0  0  0  0  0  0  0  0  0  0  0  0
    2.5111   -4.6619   -0.2462 H   0  0  0  0  0  0  0  0  0  0  0  0
    6.9329   -2.4017   -0.5710 H   0  0  0  0  0  0  0  0  0  0  0  0
  1  2  1  0
  1 22  1  0
  1 23  1  0
  1 24  1  0
  2 11  1  0
  2  3  1  0
  2 47  1  6
  3 14  1  0
  3  4  1  0
  3 25  1  1
  4  5  1  0
  4 26  1  0
  4 27  1  0
  5 10  2  0
  5  6  1  0
  6  7  2  0
  6 28  1  0
  7  8  1  0
  7 29  1  0
  8  9  2  0
  8 30  1  0
  9 10  1  0
  9 31  1  0
 10 11  1  0
 11 12  1  0
 11 32  1  6
 12 21  1  0
 12 13  1  0
 12 33  1  6
 13 14  1  0
 13 34  1  0
 13 35  1  0
 14 15  1  0
 14 36  1  1
 15 19  1  0
 15 16  1  0
 15 37  1  1
 16 17  1  0
 16 38  1  0
 16 39  1  0
 17 18  1  0
 17 40  1  0
 17 41  1  0
 18 21  1  0
 18 19  1  0
 18 42  1  1
 19 20  1  0
 19 43  1  6
 20 21  1  0
 20 44  1  0
 20 45  1  0
 21 46  1  6
M  CHG  1   2   1
M  END
>  <i_m_ct_stereo_status>  (373) 
1

>  <s_m_source_file>  (373) 
/var/tmp/pbs.5076255.sched01/tmp2gi29psn/132an720x3a.sdf

>  <i_m_source_file_index>  (373) 
20

>  <i_lp_mmshare_version>  (373) 
48012

>  <i_f3d_flags>  (373) 
0

>  <s_epik_input>  (373) 
W2NIXTFbY0hdW2NIXVtjSF1jKFtDSDJdMiljMVtDQEBIXShOM1tDSDNdKVtDQEBIXShbQ0gyXTQpW0NASF0oW0NIMl01KVtDQEhdKFtDSDJdW0NIMl02KVtDQEBIXTVbQ0BIXTZbQ0BASF00W0NASF0yMw==

>  <s_epik_cmdline>  (373) 
J2VwaWtfcHl0aG9uJywgJy1waHQnLCAnMi4wJywgJy1waCcsICc3LjAnLCAnLXRuJywgJzgnLCAnLW1hJywgJzIwMCcsICctaW1hZScsICc8aW5maWxlLm1hZT4nLCAnLW9tYWUnLCAnPG91dGZpbGUubWFlPic=

>  <r_epik_Ionization_Penalty>  (373) 
0.00922139

>  <r_epik_Ionization_Penalty_Charging>  (373) 
0.00922139

>  <r_epik_Ionization_Penalty_Neutral>  (373) 
0

>  <r_epik_State_Penalty>  (373) 
0.00699148

>  <r_epik_Charging_Adjusted_Penalty>  (373) 
0.0162129

>  <i_epik_Tot_Q>  (373) 
1

>  <i_epik_Tot_abs_Q>  (373) 
1

>  <s_lp_Force_Field>  (373) 
OPLS3e

>  <r_lp_Energy>  (373) 
350.757

>  <b_lp_Chiralities_Consistent>  (373) 
1

>  <s_lp_Variant>  (373) 
105:0-1

>  <s_i_glide_gridfile>  (373) 
pfpi4k_grid

>  <i_i_glide_lignum>  (373) 
20

>  <i_i_glide_rotatable_bonds>  (373) 
0

>  <r_i_docking_score>  (373) 
-3.55643

>  <r_i_glide_ligand_efficiency>  (373) 
-0.169354

>  <r_i_glide_ligand_efficiency_sa>  (373) 
-0.467234

>  <r_i_glide_ligand_efficiency_ln>  (373) 
-0.879319

>  <r_i_glide_gscore>  (373) 
-3.55643

>  <r_i_glide_lipo>  (373) 
-0.985081

>  <r_i_glide_hbond>  (373) 
0

>  <r_i_glide_metal>  (373) 
-0

>  <r_i_glide_rewards>  (373) 
-1.49709

>  <r_i_glide_evdw>  (373) 
-18.8062

>  <r_i_glide_ecoul>  (373) 
-0.892994

>  <r_i_glide_erotb>  (373) 
0

>  <r_i_glide_esite>  (373) 
0

>  <r_i_glide_emodel>  (373) 
-22.5395

>  <r_i_glide_energy>  (373) 
-19.6991

>  <r_i_glide_einternal>  (373) 
0

>  <r_i_glide_intrahb_reward>  (373) 
-0

>  <i_i_glide_confnum>  (373) 
2

>  <i_i_glide_posenum>  (373) 
13

>  <r_i_glide_eff_state_penalty>  (373) 
0

>  <ligand_id>  (373) 
105

>  <original_smiles>  (373) 
CN1C2Cc3ccccc3C1C1CC2C2CCC3C2CC31

>  <smiles>  (373) 
[H]c1c([H])c([H])c2c(c1[H])C([H])([H])C1([H])C3([H])C([H])([H])C([H])(C4([H])C([H])([H])C5([H])C4([H])C([H])([H])C([H])([H])C53[H])C2([H])[N+]1([H])C([H])([H])[H]

$$$$
105:0:1
     RDKit          3D

 47 52  0  0  1  0  0  0  0  0999 V2000
    2.5528   -5.0816    0.3710 C   0  0  0  0  0  0  0  0  0  0  0  0
    3.4997   -4.2477   -0.4137 N   0  0  2  0  0  0  0  0  0  0  0  0
    4.8583   -4.7997   -0.6914 C   0  0  1  0  0  0  0  0  0  0  0  0
    5.1172   -4.3736   -2.1944 C   0  0  0  0  0  0  0  0  0  0  0  0
    4.3598   -3.1047   -2.6259 C   0  0  0  0  0  0  0  0  0  0  0  0
    4.3835   -2.7266   -3.9711 C   0  0  0  0  0  0  0  0  0  0  0  0
    3.8204   -1.4942   -4.3821 C   0  0  0  0  0  0  0  0  0  0  0  0
    3.1973   -0.6727   -3.4480 C   0  0  0  0  0  0  0  0  0  0  0  0
    3.1484   -1.0957   -2.1119 C   0  0  0  0  0  0  0  0  0  0  0  0
    3.7092   -2.2863   -1.6784 C   0  0  0  0  0  0  0  0  0  0  0  0
    3.5550   -2.7472   -0.2197 C   0  0  2  0  0  0  0  0  0  0  0  0
    4.6061   -2.2409    0.9181 C   0  0  1  0  0  0  0  0  0  0  0  0
    4.9934   -3.6388    1.6069 C   0  0  0  0  0  0  0  0  0  0  0  0
    5.8561   -4.5240    0.5558 C   0  0  2  0  0  0  0  0  0  0  0  0
    7.4190   -3.9770    0.5523 C   0  0  1  0  0  0  0  0  0  0  0  0
    8.5130   -3.5708   -0.4924 C   0  0  0  0  0  0  0  0  0  0  0  0
    8.8747   -2.0509   -0.0752 C   0  0  0  0  0  0  0  0  0  0  0  0
    7.6429   -1.3683    0.6981 C   0  0  2  0  0  0  0  0  0  0  0  0
    7.0863   -2.6124    0.8168 C   0  0  1  0  0  0  0  0  0  0  0  0
    6.4483   -1.9683   -0.5249 C   0  0  0  0  0  0  0  0  0  0  0  0
    5.9110   -1.2414    0.4818 C   0  0  1  0  0  0  0  0  0  0  0  0
    3.0617   -5.7434    1.0694 H   0  0  0  0  0  0  0  0  0  0  0  0
    2.0018   -5.7184   -0.3172 H   0  0  0  0  0  0  0  0  0  0  0  0
    1.8430   -4.4665    0.9193 H   0  0  0  0  0  0  0  0  0  0  0  0
    4.7666   -5.8836   -0.7346 H   0  0  0  0  0  0  0  0  0  0  0  0
    6.1715   -4.2028   -2.3905 H   0  0  0  0  0  0  0  0  0  0  0  0
    4.8246   -5.1306   -2.9065 H   0  0  0  0  0  0  0  0  0  0  0  0
    4.8822   -3.3883   -4.6662 H   0  0  0  0  0  0  0  0  0  0  0  0
    3.8603   -1.1642   -5.4119 H   0  0  0  0  0  0  0  0  0  0  0  0
    2.7226    0.2461   -3.7708 H   0  0  0  0  0  0  0  0  0  0  0  0
    2.6238   -0.5887   -1.3521 H   0  0  0  0  0  0  0  0  0  0  0  0
    2.5634   -2.4175    0.0918 H   0  0  0  0  0  0  0  0  0  0  0  0
    4.0275   -1.6794    1.6508 H   0  0  0  0  0  0  0  0  0  0  0  0
    5.4840   -3.5226    2.5723 H   0  0  0  0  0  0  0  0  0  0  0  0
    4.1057   -4.1317    1.9808 H   0  0  0  0  0  0  0  0  0  0  0  0
    5.9520   -5.4989    1.0328 H   0  0  0  0  0  0  0  0  0  0  0  0
    7.9356   -4.3980    1.4187 H   0  0  0  0  0  0  0  0  0  0  0  0
    9.3935   -4.2096   -0.4305 H   0  0  0  0  0  0  0  0  0  0  0  0
    8.1717   -3.6031   -1.5304 H   0  0  0  0  0  0  0  0  0  0  0  0
    9.7765   -2.0252    0.5351 H   0  0  0  0  0  0  0  0  0  0  0  0
    9.0448   -1.4845   -0.9787 H   0  0  0  0  0  0  0  0  0  0  0  0
    7.9342   -0.8457    1.6110 H   0  0  0  0  0  0  0  0  0  0  0  0
    6.9598   -2.4633    1.8994 H   0  0  0  0  0  0  0  0  0  0  0  0
    6.9581   -1.4625   -1.3651 H   0  0  0  0  0  0  0  0  0  0  0  0
    5.9121   -2.6566   -1.0102 H   0  0  0  0  0  0  0  0  0  0  0  0
    5.6338   -0.2401    0.1451 H   0  0  0  0  0  0  0  0  0  0  0  0
    3.0807   -4.3040   -1.3302 H   0  0  0  0  0  0  0  0  0  0  0  0
  1  2  1  0
  1 22  1  0
  1 23  1  0
  1 24  1  0
  2 11  1  0
  2  3  1  0
  2 47  1  6
  3 14  1  0
  3  4  1  0
  3 25  1  6
  4  5  1  0
  4 26  1  0
  4 27  1  0
  5 10  2  0
  5  6  1  0
  6  7  2  0
  6 28  1  0
  7  8  1  0
  7 29  1  0
  8  9  2  0
  8 30  1  0
  9 10  1  0
  9 31  1  0
 10 11  1  0
 11 12  1  0
 11 32  1  1
 12 21  1  0
 12 13  1  0
 12 33  1  1
 13 14  1  0
 13 34  1  0
 13 35  1  0
 14 15  1  0
 14 36  1  1
 15 19  1  0
 15 16  1  0
 15 37  1  1
 16 17  1  0
 16 38  1  0
 16 39  1  0
 17 18  1  0
 17 40  1  0
 17 41  1  0
 18 21  1  0
 18 19  1  0
 18 42  1  1
 19 20  1  0
 19 43  1  1
 20 21  1  0
 20 44  1  0
 20 45  1  0
 21 46  1  6
M  CHG  1   2   1
M  END
>  <i_m_ct_stereo_status>  (374) 
1

>  <s_m_source_file>  (374) 
/var/tmp/pbs.5076255.sched01/tmp2gi29psn/132an720x3a.sdf

>  <i_m_source_file_index>  (374) 
20

>  <i_lp_mmshare_version>  (374) 
48012

>  <i_f3d_flags>  (374) 
0

>  <s_epik_input>  (374) 
W2NIXTFbY0hdW2NIXVtjSF1jKFtDSDJdMiljMVtDQEBIXShOM1tDSDNdKVtDQEBIXShbQ0gyXTQpW0NASF0oW0NIMl01KVtDQEhdKFtDSDJdW0NIMl02KVtDQEBIXTVbQ0BIXTZbQ0BASF00W0NASF0yMw==

>  <s_epik_cmdline>  (374) 
J2VwaWtfcHl0aG9uJywgJy1waHQnLCAnMi4wJywgJy1waCcsICc3LjAnLCAnLXRuJywgJzgnLCAnLW1hJywgJzIwMCcsICctaW1hZScsICc8aW5maWxlLm1hZT4nLCAnLW9tYWUnLCAnPG91dGZpbGUubWFlPic=

>  <r_epik_Ionization_Penalty>  (374) 
0.00922139

>  <r_epik_Ionization_Penalty_Charging>  (374) 
0.00922139

>  <r_epik_Ionization_Penalty_Neutral>  (374) 
0

>  <r_epik_State_Penalty>  (374) 
0.00699148

>  <r_epik_Charging_Adjusted_Penalty>  (374) 
0.0162129

>  <i_epik_Tot_Q>  (374) 
1

>  <i_epik_Tot_abs_Q>  (374) 
1

>  <s_lp_Force_Field>  (374) 
OPLS3e

>  <r_lp_Energy>  (374) 
350.757

>  <b_lp_Chiralities_Consistent>  (374) 
1

>  <s_lp_Variant>  (374) 
105:0-1

>  <s_i_glide_gridfile>  (374) 
pfpi4k_grid

>  <i_i_glide_lignum>  (374) 
20

>  <i_i_glide_rotatable_bonds>  (374) 
0

>  <r_i_docking_score>  (374) 
-3.20092

>  <r_i_glide_ligand_efficiency>  (374) 
-0.152425

>  <r_i_glide_ligand_efficiency_sa>  (374) 
-0.420528

>  <r_i_glide_ligand_efficiency_ln>  (374) 
-0.79142

>  <r_i_glide_gscore>  (374) 
-3.20092

>  <r_i_glide_lipo>  (374) 
-0.687103

>  <r_i_glide_hbond>  (374) 
0

>  <r_i_glide_metal>  (374) 
-0

>  <r_i_glide_rewards>  (374) 
-1.49709

>  <r_i_glide_evdw>  (374) 
-10.4456

>  <r_i_glide_ecoul>  (374) 
-3.09837

>  <r_i_glide_erotb>  (374) 
0

>  <r_i_glide_esite>  (374) 
-0.029692

>  <r_i_glide_emodel>  (374) 
-15.4755

>  <r_i_glide_energy>  (374) 
-13.544

>  <r_i_glide_einternal>  (374) 
0

>  <r_i_glide_intrahb_reward>  (374) 
-0

>  <i_i_glide_confnum>  (374) 
1

>  <i_i_glide_posenum>  (374) 
2

>  <r_i_glide_eff_state_penalty>  (374) 
0

>  <ligand_id>  (374) 
105

>  <original_smiles>  (374) 
CN1C2Cc3ccccc3C1C1CC2C2CCC3C2CC31

>  <smiles>  (374) 
[H]c1c([H])c([H])c2c(c1[H])C([H])([H])C1([H])C3([H])C([H])([H])C([H])(C4([H])C([H])([H])C5([H])C4([H])C([H])([H])C([H])([H])C53[H])C2([H])[N+]1([H])C([H])([H])[H]

$$$$
105:1:0
     RDKit          3D

 47 52  0  0  1  0  0  0  0  0999 V2000
    6.1152   -3.0657    2.3047 C   0  0  0  0  0  0  0  0  0  0  0  0
    5.1619   -3.0022    1.1836 N   0  0  2  0  0  0  0  0  0  0  0  0
    4.1743   -1.9101    1.2699 C   0  0  2  0  0  0  0  0  0  0  0  0
    3.2502   -2.1603    2.4948 C   0  0  0  0  0  0  0  0  0  0  0  0
    2.9240   -3.6398    2.7513 C   0  0  0  0  0  0  0  0  0  0  0  0
    2.0278   -3.9819    3.7807 C   0  0  0  0  0  0  0  0  0  0  0  0
    1.7409   -5.3364    4.0446 C   0  0  0  0  0  0  0  0  0  0  0  0
    2.3589   -6.3481    3.2862 C   0  0  0  0  0  0  0  0  0  0  0  0
    3.2589   -6.0176    2.2589 C   0  0  0  0  0  0  0  0  0  0  0  0
    3.5409   -4.6631    1.9818 C   0  0  0  0  0  0  0  0  0  0  0  0
    4.5017   -4.2958    0.8506 C   0  0  1  0  0  0  0  0  0  0  0  0
    3.7613   -4.1910   -0.5227 C   0  0  1  0  0  0  0  0  0  0  0  0
    2.7072   -3.0863   -0.4045 C   0  0  0  0  0  0  0  0  0  0  0  0
    3.4143   -1.7610   -0.0869 C   0  0  2  0  0  0  0  0  0  0  0  0
    4.2151   -1.1955   -1.3184 C   0  0  2  0  0  0  0  0  0  0  0  0
    3.2434   -0.9545   -2.5060 C   0  0  0  0  0  0  0  0  0  0  0  0
    3.2356   -2.2467   -3.3621 C   0  0  0  0  0  0  0  0  0  0  0  0
    4.4879   -3.0109   -2.9410 C   0  0  1  0  0  0  0  0  0  0  0  0
    5.2626   -2.0632   -2.0526 C   0  0  2  0  0  0  0  0  0  0  0  0
    6.0405   -3.3034   -1.6094 C   0  0  0  0  0  0  0  0  0  0  0  0
    4.7019   -4.0428   -1.7657 C   0  0  1  0  0  0  0  0  0  0  0  0
    5.6493   -3.3592    3.2470 H   0  0  0  0  0  0  0  0  0  0  0  0
    6.5938   -2.0958    2.4447 H   0  0  0  0  0  0  0  0  0  0  0  0
    6.8843   -3.7932    2.0534 H   0  0  0  0  0  0  0  0  0  0  0  0
    4.7019   -0.9667    1.4332 H   0  0  0  0  0  0  0  0  0  0  0  0
    3.7470   -1.7864    3.3925 H   0  0  0  0  0  0  0  0  0  0  0  0
    2.3273   -1.5878    2.3996 H   0  0  0  0  0  0  0  0  0  0  0  0
    1.5614   -3.2088    4.3747 H   0  0  0  0  0  0  0  0  0  0  0  0
    1.0566   -5.5978    4.8338 H   0  0  0  0  0  0  0  0  0  0  0  0
    2.1400   -7.3882    3.4945 H   0  0  0  0  0  0  0  0  0  0  0  0
    3.7279   -6.8002    1.6813 H   0  0  0  0  0  0  0  0  0  0  0  0
    5.2651   -5.0693    0.7746 H   0  0  0  0  0  0  0  0  0  0  0  0
    3.2111   -5.1192   -0.6539 H   0  0  0  0  0  0  0  0  0  0  0  0
    2.0564   -3.0405   -1.2654 H   0  0  0  0  0  0  0  0  0  0  0  0
    1.9995   -3.3158    0.3883 H   0  0  0  0  0  0  0  0  0  0  0  0
    2.6423   -1.0146    0.1088 H   0  0  0  0  0  0  0  0  0  0  0  0
    4.6730   -0.2564   -1.0178 H   0  0  0  0  0  0  0  0  0  0  0  0
    2.2393   -0.6405   -2.2422 H   0  0  0  0  0  0  0  0  0  0  0  0
    3.6451   -0.1390   -3.1091 H   0  0  0  0  0  0  0  0  0  0  0  0
    2.3269   -2.8349   -3.2653 H   0  0  0  0  0  0  0  0  0  0  0  0
    3.2702   -1.9668   -4.4144 H   0  0  0  0  0  0  0  0  0  0  0  0
    5.0700   -3.3295   -3.8117 H   0  0  0  0  0  0  0  0  0  0  0  0
    5.8419   -1.4350   -2.7033 H   0  0  0  0  0  0  0  0  0  0  0  0
    6.7568   -3.6124   -2.3768 H   0  0  0  0  0  0  0  0  0  0  0  0
    6.5774   -3.2848   -0.6712 H   0  0  0  0  0  0  0  0  0  0  0  0
    4.9393   -5.0219   -2.1872 H   0  0  0  0  0  0  0  0  0  0  0  0
    5.7173   -2.7791    0.3740 H   0  0  0  0  0  0  0  0  0  0  0  0
  1  2  1  0
  1 22  1  0
  1 23  1  0
  1 24  1  0
  2 11  1  0
  2  3  1  0
  2 47  1  6
  3 14  1  0
  3  4  1  0
  3 25  1  1
  4  5  1  0
  4 26  1  0
  4 27  1  0
  5 10  2  0
  5  6  1  0
  6  7  2  0
  6 28  1  0
  7  8  1  0
  7 29  1  0
  8  9  2  0
  8 30  1  0
  9 10  1  0
  9 31  1  0
 10 11  1  0
 11 12  1  0
 11 32  1  6
 12 21  1  0
 12 13  1  0
 12 33  1  6
 13 14  1  0
 13 34  1  0
 13 35  1  0
 14 15  1  0
 14 36  1  1
 15 19  1  0
 15 16  1  0
 15 37  1  1
 16 17  1  0
 16 38  1  0
 16 39  1  0
 17 18  1  0
 17 40  1  0
 17 41  1  0
 18 21  1  0
 18 19  1  0
 18 42  1  6
 19 20  1  0
 19 43  1  6
 20 21  1  0
 20 44  1  0
 20 45  1  0
 21 46  1  6
M  CHG  1   2   1
M  END
>  <i_m_ct_stereo_status>  (375) 
1

>  <s_m_source_file>  (375) 
/var/tmp/pbs.5076255.sched01/tmp2gi29psn/132an720x3a.sdf

>  <i_m_source_file_index>  (375) 
21

>  <i_lp_mmshare_version>  (375) 
48012

>  <i_f3d_flags>  (375) 
2

>  <s_epik_input>  (375) 
W2NIXTFbY0hdW2NIXVtjSF1jKFtDSDJdMiljMVtDQEBIXShOM1tDSDNdKVtDQEBIXShbQ0gyXTQpW0NASF0oW0NIMl01KVtDQEhdKFtDSDJdW0NIMl02KVtDQEBIXTVbQ0BIXTZbQ0BASF00W0NASF0yMw==

>  <s_epik_cmdline>  (375) 
J2VwaWtfcHl0aG9uJywgJy1waHQnLCAnMi4wJywgJy1waCcsICc3LjAnLCAnLXRuJywgJzgnLCAnLW1hJywgJzIwMCcsICctaW1hZScsICc8aW5maWxlLm1hZT4nLCAnLW9tYWUnLCAnPG91dGZpbGUubWFlPic=

>  <r_epik_Ionization_Penalty>  (375) 
0.00922139

>  <r_epik_Ionization_Penalty_Charging>  (375) 
0.00922139

>  <r_epik_Ionization_Penalty_Neutral>  (375) 
0

>  <r_epik_State_Penalty>  (375) 
0.00699148

>  <r_epik_Charging_Adjusted_Penalty>  (375) 
0.0162129

>  <i_epik_Tot_Q>  (375) 
1

>  <i_epik_Tot_abs_Q>  (375) 
1

>  <s_lp_Force_Field>  (375) 
OPLS3e

>  <r_lp_Energy>  (375) 
88.3131

>  <b_lp_Chiralities_Consistent>  (375) 
0

>  <s_lp_Variant>  (375) 
105:0-2

>  <s_i_glide_gridfile>  (375) 
pfpi4k_grid

>  <i_i_glide_lignum>  (375) 
21

>  <i_i_glide_rotatable_bonds>  (375) 
0

>  <r_i_docking_score>  (375) 
-3.01142

>  <r_i_glide_ligand_efficiency>  (375) 
-0.143401

>  <r_i_glide_ligand_efficiency_sa>  (375) 
-0.395633

>  <r_i_glide_ligand_efficiency_ln>  (375) 
-0.744568

>  <r_i_glide_gscore>  (375) 
-3.01142

>  <r_i_glide_lipo>  (375) 
-0.44567

>  <r_i_glide_hbond>  (375) 
0

>  <r_i_glide_metal>  (375) 
-0

>  <r_i_glide_rewards>  (375) 
-1.49709

>  <r_i_glide_evdw>  (375) 
-14.1158

>  <r_i_glide_ecoul>  (375) 
-2.41915

>  <r_i_glide_erotb>  (375) 
0

>  <r_i_glide_esite>  (375) 
0

>  <r_i_glide_emodel>  (375) 
-22.0662

>  <r_i_glide_energy>  (375) 
-16.535

>  <r_i_glide_einternal>  (375) 
0

>  <r_i_glide_intrahb_reward>  (375) 
-0

>  <i_i_glide_confnum>  (375) 
1

>  <i_i_glide_posenum>  (375) 
18

>  <r_i_glide_eff_state_penalty>  (375) 
0

>  <ligand_id>  (375) 
105

>  <original_smiles>  (375) 
CN1C2Cc3ccccc3C1C1CC2C2CCC3C2CC31

>  <smiles>  (375) 
[H]c1c([H])c([H])c2c(c1[H])C([H])([H])C1([H])C3([H])C([H])([H])C([H])(C4([H])C([H])([H])C5([H])C4([H])C([H])([H])C([H])([H])C53[H])C2([H])[N+]1([H])C([H])([H])[H]

$$$$
105:1:1
     RDKit          3D

 47 52  0  0  1  0  0  0  0  0999 V2000
    3.0052  -12.2069    3.5146 C   0  0  0  0  0  0  0  0  0  0  0  0
    3.7698  -10.9363    3.5358 N   0  0  2  0  0  0  0  0  0  0  0  0
    4.0947  -10.4231    4.8838 C   0  0  2  0  0  0  0  0  0  0  0  0
    2.7688  -10.0406    5.6098 C   0  0  0  0  0  0  0  0  0  0  0  0
    1.6994   -9.4313    4.6933 C   0  0  0  0  0  0  0  0  0  0  0  0
    0.4892   -8.9647    5.2492 C   0  0  0  0  0  0  0  0  0  0  0  0
   -0.5115   -8.4285    4.4178 C   0  0  0  0  0  0  0  0  0  0  0  0
   -0.3115   -8.3638    3.0259 C   0  0  0  0  0  0  0  0  0  0  0  0
    0.8942   -8.8230    2.4679 C   0  0  0  0  0  0  0  0  0  0  0  0
    1.9030   -9.3603    3.2908 C   0  0  0  0  0  0  0  0  0  0  0  0
    3.2200   -9.8453    2.6776 C   0  0  1  0  0  0  0  0  0  0  0  0
    4.2497   -8.6677    2.5400 C   0  0  1  0  0  0  0  0  0  0  0  0
    4.5325   -8.1209    3.9422 C   0  0  0  0  0  0  0  0  0  0  0  0
    5.1300   -9.2544    4.7903 C   0  0  2  0  0  0  0  0  0  0  0  0
    6.6103   -9.6122    4.3781 C   0  0  2  0  0  0  0  0  0  0  0  0
    7.4908   -8.3457    4.5458 C   0  0  0  0  0  0  0  0  0  0  0  0
    7.5117   -7.6205    3.1734 C   0  0  0  0  0  0  0  0  0  0  0  0
    7.0234   -8.6572    2.1666 C   0  0  1  0  0  0  0  0  0  0  0  0
    6.9704   -9.9786    2.9158 C   0  0  2  0  0  0  0  0  0  0  0  0
    6.0860  -10.4472    1.7601 C   0  0  0  0  0  0  0  0  0  0  0  0
    5.5446   -9.0081    1.7282 C   0  0  1  0  0  0  0  0  0  0  0  0
    1.9934  -12.0920    3.9056 H   0  0  0  0  0  0  0  0  0  0  0  0
    3.5076  -12.9675    4.1144 H   0  0  0  0  0  0  0  0  0  0  0  0
    2.9293  -12.5812    2.4933 H   0  0  0  0  0  0  0  0  0  0  0  0
    4.5716  -11.2134    5.4646 H   0  0  0  0  0  0  0  0  0  0  0  0
    2.3337  -10.9402    6.0515 H   0  0  0  0  0  0  0  0  0  0  0  0
    2.9642   -9.3662    6.4451 H   0  0  0  0  0  0  0  0  0  0  0  0
    0.3211   -9.0324    6.3148 H   0  0  0  0  0  0  0  0  0  0  0  0
   -1.4401   -8.0895    4.8451 H   0  0  0  0  0  0  0  0  0  0  0  0
   -1.0855   -7.9682    2.3827 H   0  0  0  0  0  0  0  0  0  0  0  0
    1.0422   -8.7648    1.3980 H   0  0  0  0  0  0  0  0  0  0  0  0
    3.0200  -10.2528    1.6876 H   0  0  0  0  0  0  0  0  0  0  0  0
    3.7441   -7.8690    1.9969 H   0  0  0  0  0  0  0  0  0  0  0  0
    5.1325   -7.2203    3.9318 H   0  0  0  0  0  0  0  0  0  0  0  0
    3.6182   -7.7520    4.4031 H   0  0  0  0  0  0  0  0  0  0  0  0
    5.2160   -8.8640    5.8049 H   0  0  0  0  0  0  0  0  0  0  0  0
    6.9703  -10.3961    5.0441 H   0  0  0  0  0  0  0  0  0  0  0  0
    7.1859   -7.6988    5.3679 H   0  0  0  0  0  0  0  0  0  0  0  0
    8.5094   -8.6665    4.7692 H   0  0  0  0  0  0  0  0  0  0  0  0
    6.9341   -6.7000    3.1475 H   0  0  0  0  0  0  0  0  0  0  0  0
    8.5327   -7.3091    2.9446 H   0  0  0  0  0  0  0  0  0  0  0  0
    7.6738   -8.6766    1.2863 H   0  0  0  0  0  0  0  0  0  0  0  0
    7.9344  -10.4850    2.8807 H   0  0  0  0  0  0  0  0  0  0  0  0
    6.6659  -10.6807    0.8622 H   0  0  0  0  0  0  0  0  0  0  0  0
    5.4389  -11.2929    1.9385 H   0  0  0  0  0  0  0  0  0  0  0  0
    5.4066   -8.7319    0.6823 H   0  0  0  0  0  0  0  0  0  0  0  0
    4.6622  -11.1638    3.1200 H   0  0  0  0  0  0  0  0  0  0  0  0
  1  2  1  0
  1 22  1  0
  1 23  1  0
  1 24  1  0
  2 11  1  0
  2  3  1  0
  2 47  1  6
  3 14  1  0
  3  4  1  0
  3 25  1  1
  4  5  1  0
  4 26  1  0
  4 27  1  0
  5 10  2  0
  5  6  1  0
  6  7  2  0
  6 28  1  0
  7  8  1  0
  7 29  1  0
  8  9  2  0
  8 30  1  0
  9 10  1  0
  9 31  1  0
 10 11  1  0
 11 12  1  0
 11 32  1  6
 12 21  1  0
 12 13  1  0
 12 33  1  6
 13 14  1  0
 13 34  1  0
 13 35  1  0
 14 15  1  0
 14 36  1  1
 15 19  1  0
 15 16  1  0
 15 37  1  1
 16 17  1  0
 16 38  1  0
 16 39  1  0
 17 18  1  0
 17 40  1  0
 17 41  1  0
 18 21  1  0
 18 19  1  0
 18 42  1  6
 19 20  1  0
 19 43  1  1
 20 21  1  0
 20 44  1  0
 20 45  1  0
 21 46  1  6
M  CHG  1   2   1
M  END
>  <i_m_ct_stereo_status>  (376) 
1

>  <s_m_source_file>  (376) 
/var/tmp/pbs.5076255.sched01/tmp2gi29psn/132an720x3a.sdf

>  <i_m_source_file_index>  (376) 
21

>  <i_lp_mmshare_version>  (376) 
48012

>  <i_f3d_flags>  (376) 
2

>  <s_epik_input>  (376) 
W2NIXTFbY0hdW2NIXVtjSF1jKFtDSDJdMiljMVtDQEBIXShOM1tDSDNdKVtDQEBIXShbQ0gyXTQpW0NASF0oW0NIMl01KVtDQEhdKFtDSDJdW0NIMl02KVtDQEBIXTVbQ0BIXTZbQ0BASF00W0NASF0yMw==

>  <s_epik_cmdline>  (376) 
J2VwaWtfcHl0aG9uJywgJy1waHQnLCAnMi4wJywgJy1waCcsICc3LjAnLCAnLXRuJywgJzgnLCAnLW1hJywgJzIwMCcsICctaW1hZScsICc8aW5maWxlLm1hZT4nLCAnLW9tYWUnLCAnPG91dGZpbGUubWFlPic=

>  <r_epik_Ionization_Penalty>  (376) 
0.00922139

>  <r_epik_Ionization_Penalty_Charging>  (376) 
0.00922139

>  <r_epik_Ionization_Penalty_Neutral>  (376) 
0

>  <r_epik_State_Penalty>  (376) 
0.00699148

>  <r_epik_Charging_Adjusted_Penalty>  (376) 
0.0162129

>  <i_epik_Tot_Q>  (376) 
1

>  <i_epik_Tot_abs_Q>  (376) 
1

>  <s_lp_Force_Field>  (376) 
OPLS3e

>  <r_lp_Energy>  (376) 
88.3131

>  <b_lp_Chiralities_Consistent>  (376) 
0

>  <s_lp_Variant>  (376) 
105:0-2

>  <s_i_glide_gridfile>  (376) 
pfpi4k_grid

>  <i_i_glide_lignum>  (376) 
21

>  <i_i_glide_rotatable_bonds>  (376) 
0

>  <r_i_docking_score>  (376) 
-3.00848

>  <r_i_glide_ligand_efficiency>  (376) 
-0.143261

>  <r_i_glide_ligand_efficiency_sa>  (376) 
-0.395247

>  <r_i_glide_ligand_efficiency_ln>  (376) 
-0.743842

>  <r_i_glide_gscore>  (376) 
-3.00848

>  <r_i_glide_lipo>  (376) 
-0.110312

>  <r_i_glide_hbond>  (376) 
0

>  <r_i_glide_metal>  (376) 
-0

>  <r_i_glide_rewards>  (376) 
-1.49709

>  <r_i_glide_evdw>  (376) 
-16.0622

>  <r_i_glide_ecoul>  (376) 
-3.8028

>  <r_i_glide_erotb>  (376) 
0

>  <r_i_glide_esite>  (376) 
-0.027557

>  <r_i_glide_emodel>  (376) 
-25.4668

>  <r_i_glide_energy>  (376) 
-19.865

>  <r_i_glide_einternal>  (376) 
0

>  <r_i_glide_intrahb_reward>  (376) 
-0

>  <i_i_glide_confnum>  (376) 
2

>  <i_i_glide_posenum>  (376) 
17

>  <r_i_glide_eff_state_penalty>  (376) 
0

>  <ligand_id>  (376) 
105

>  <original_smiles>  (376) 
CN1C2Cc3ccccc3C1C1CC2C2CCC3C2CC31

>  <smiles>  (376) 
[H]c1c([H])c([H])c2c(c1[H])C([H])([H])C1([H])C3([H])C([H])([H])C([H])(C4([H])C([H])([H])C5([H])C4([H])C([H])([H])C([H])([H])C53[H])C2([H])[N+]1([H])C([H])([H])[H]

$$$$
105:1:2
     RDKit          3D

 47 52  0  0  1  0  0  0  0  0999 V2000
    4.3873  -11.9208    3.2505 C   0  0  0  0  0  0  0  0  0  0  0  0
    3.6122  -10.6592    3.3665 N   0  0  2  0  0  0  0  0  0  0  0  0
    3.4150   -9.9226    2.1010 C   0  0  2  0  0  0  0  0  0  0  0  0
    4.7986   -9.4369    1.5757 C   0  0  0  0  0  0  0  0  0  0  0  0
    5.7711   -8.9982    2.6785 C   0  0  0  0  0  0  0  0  0  0  0  0
    7.0227   -8.4538    2.3224 C   0  0  0  0  0  0  0  0  0  0  0  0
    7.9378   -8.0738    3.3208 C   0  0  0  0  0  0  0  0  0  0  0  0
    7.6064   -8.2383    4.6806 C   0  0  0  0  0  0  0  0  0  0  0  0
    6.3608   -8.7810    5.0451 C   0  0  0  0  0  0  0  0  0  0  0  0
    5.4372   -9.1614    4.0493 C   0  0  0  0  0  0  0  0  0  0  0  0
    4.0689   -9.7281    4.4419 C   0  0  1  0  0  0  0  0  0  0  0  0
    3.0224   -8.5795    4.6749 C   0  0  1  0  0  0  0  0  0  0  0  0
    2.8687   -7.8054    3.3614 C   0  0  0  0  0  0  0  0  0  0  0  0
    2.3645   -8.7793    2.2854 C   0  0  2  0  0  0  0  0  0  0  0  0
    0.8588   -9.1960    2.4954 C   0  0  2  0  0  0  0  0  0  0  0  0
   -0.0185   -7.9154    2.4496 C   0  0  0  0  0  0  0  0  0  0  0  0
   -0.1754   -7.4248    3.9159 C   0  0  0  0  0  0  0  0  0  0  0  0
    0.2266   -8.6167    4.7827 C   0  0  1  0  0  0  0  0  0  0  0  0
    0.3706   -9.7943    3.8383 C   0  0  2  0  0  0  0  0  0  0  0  0
    1.1440  -10.4557    4.9784 C   0  0  0  0  0  0  0  0  0  0  0  0
    1.6614   -9.0423    5.2959 C   0  0  1  0  0  0  0  0  0  0  0  0
    5.4281  -11.7481    2.9774 H   0  0  0  0  0  0  0  0  0  0  0  0
    3.9475  -12.5737    2.4942 H   0  0  0  0  0  0  0  0  0  0  0  0
    4.3755  -12.4579    4.1988 H   0  0  0  0  0  0  0  0  0  0  0  0
    2.9947  -10.5992    1.3610 H   0  0  0  0  0  0  0  0  0  0  0  0
    5.2826  -10.2552    1.0386 H   0  0  0  0  0  0  0  0  0  0  0  0
    4.6768   -8.6335    0.8477 H   0  0  0  0  0  0  0  0  0  0  0  0
    7.2909   -8.3338    1.2821 H   0  0  0  0  0  0  0  0  0  0  0  0
    8.8958   -7.6631    3.0427 H   0  0  0  0  0  0  0  0  0  0  0  0
    8.3116   -7.9413    5.4455 H   0  0  0  0  0  0  0  0  0  0  0  0
    6.1130   -8.8963    6.0911 H   0  0  0  0  0  0  0  0  0  0  0  0
    4.1760  -10.2957    5.3650 H   0  0  0  0  0  0  0  0  0  0  0  0
    3.4669   -7.8845    5.3873 H   0  0  0  0  0  0  0  0  0  0  0  0
    2.2619   -6.9158    3.4631 H   0  0  0  0  0  0  0  0  0  0  0  0
    3.8203   -7.3732    3.0565 H   0  0  0  0  0  0  0  0  0  0  0  0
    2.3701   -8.2302    1.3431 H   0  0  0  0  0  0  0  0  0  0  0  0
    0.5836   -9.8707    1.6867 H   0  0  0  0  0  0  0  0  0  0  0  0
    0.3585   -7.1457    1.7764 H   0  0  0  0  0  0  0  0  0  0  0  0
   -1.0058   -8.1936    2.0775 H   0  0  0  0  0  0  0  0  0  0  0  0
    0.3898   -6.5248    4.1481 H   0  0  0  0  0  0  0  0  0  0  0  0
   -1.2151   -7.1476    4.0960 H   0  0  0  0  0  0  0  0  0  0  0  0
   -0.5147   -8.8062    5.5675 H   0  0  0  0  0  0  0  0  0  0  0  0
   -0.5886  -10.2903    3.7106 H   0  0  0  0  0  0  0  0  0  0  0  0
    0.4692  -10.8294    5.7549 H   0  0  0  0  0  0  0  0  0  0  0  0
    1.8109  -11.2715    4.7391 H   0  0  0  0  0  0  0  0  0  0  0  0
    1.6969   -8.9430    6.3813 H   0  0  0  0  0  0  0  0  0  0  0  0
    2.6813  -10.9442    3.6369 H   0  0  0  0  0  0  0  0  0  0  0  0
  1  2  1  0
  1 22  1  0
  1 23  1  0
  1 24  1  0
  2 11  1  0
  2  3  1  0
  2 47  1  1
  3 14  1  0
  3  4  1  0
  3 25  1  6
  4  5  1  0
  4 26  1  0
  4 27  1  0
  5 10  2  0
  5  6  1  0
  6  7  2  0
  6 28  1  0
  7  8  1  0
  7 29  1  0
  8  9  2  0
  8 30  1  0
  9 10  1  0
  9 31  1  0
 10 11  1  0
 11 12  1  0
 11 32  1  1
 12 21  1  0
 12 13  1  0
 12 33  1  1
 13 14  1  0
 13 34  1  0
 13 35  1  0
 14 15  1  0
 14 36  1  6
 15 19  1  0
 15 16  1  0
 15 37  1  6
 16 17  1  0
 16 38  1  0
 16 39  1  0
 17 18  1  0
 17 40  1  0
 17 41  1  0
 18 21  1  0
 18 19  1  0
 18 42  1  1
 19 20  1  0
 19 43  1  6
 20 21  1  0
 20 44  1  0
 20 45  1  0
 21 46  1  1
M  CHG  1   2   1
M  END
>  <i_m_ct_stereo_status>  (377) 
1

>  <s_m_source_file>  (377) 
/var/tmp/pbs.5076255.sched01/tmp2gi29psn/132an720x3a.sdf

>  <i_m_source_file_index>  (377) 
21

>  <i_lp_mmshare_version>  (377) 
48012

>  <i_f3d_flags>  (377) 
2

>  <s_epik_input>  (377) 
W2NIXTFbY0hdW2NIXVtjSF1jKFtDSDJdMiljMVtDQEBIXShOM1tDSDNdKVtDQEBIXShbQ0gyXTQpW0NASF0oW0NIMl01KVtDQEhdKFtDSDJdW0NIMl02KVtDQEBIXTVbQ0BIXTZbQ0BASF00W0NASF0yMw==

>  <s_epik_cmdline>  (377) 
J2VwaWtfcHl0aG9uJywgJy1waHQnLCAnMi4wJywgJy1waCcsICc3LjAnLCAnLXRuJywgJzgnLCAnLW1hJywgJzIwMCcsICctaW1hZScsICc8aW5maWxlLm1hZT4nLCAnLW9tYWUnLCAnPG91dGZpbGUubWFlPic=

>  <r_epik_Ionization_Penalty>  (377) 
0.00922139

>  <r_epik_Ionization_Penalty_Charging>  (377) 
0.00922139

>  <r_epik_Ionization_Penalty_Neutral>  (377) 
0

>  <r_epik_State_Penalty>  (377) 
0.00699148

>  <r_epik_Charging_Adjusted_Penalty>  (377) 
0.0162129

>  <i_epik_Tot_Q>  (377) 
1

>  <i_epik_Tot_abs_Q>  (377) 
1

>  <s_lp_Force_Field>  (377) 
OPLS3e

>  <r_lp_Energy>  (377) 
88.3131

>  <b_lp_Chiralities_Consistent>  (377) 
0

>  <s_lp_Variant>  (377) 
105:0-2

>  <s_i_glide_gridfile>  (377) 
pfpi4k_grid

>  <i_i_glide_lignum>  (377) 
21

>  <i_i_glide_rotatable_bonds>  (377) 
0

>  <r_i_docking_score>  (377) 
-2.93052

>  <r_i_glide_ligand_efficiency>  (377) 
-0.139548

>  <r_i_glide_ligand_efficiency_sa>  (377) 
-0.385003

>  <r_i_glide_ligand_efficiency_ln>  (377) 
-0.724564

>  <r_i_glide_gscore>  (377) 
-2.93052

>  <r_i_glide_lipo>  (377) 
-0.0931914

>  <r_i_glide_hbond>  (377) 
0

>  <r_i_glide_metal>  (377) 
-0

>  <r_i_glide_rewards>  (377) 
-1.49709

>  <r_i_glide_evdw>  (377) 
-14.9495

>  <r_i_glide_ecoul>  (377) 
-3.78123

>  <r_i_glide_erotb>  (377) 
0

>  <r_i_glide_esite>  (377) 
-0.0255757

>  <r_i_glide_emodel>  (377) 
-24.1887

>  <r_i_glide_energy>  (377) 
-18.7308

>  <r_i_glide_einternal>  (377) 
0

>  <r_i_glide_intrahb_reward>  (377) 
-0

>  <i_i_glide_confnum>  (377) 
2

>  <i_i_glide_posenum>  (377) 
2

>  <r_i_glide_eff_state_penalty>  (377) 
0

>  <ligand_id>  (377) 
105

>  <original_smiles>  (377) 
CN1C2Cc3ccccc3C1C1CC2C2CCC3C2CC31

>  <smiles>  (377) 
[H]c1c([H])c([H])c2c(c1[H])C([H])([H])C1([H])C3([H])C([H])([H])C([H])(C4([H])C([H])([H])C5([H])C4([H])C([H])([H])C([H])([H])C53[H])C2([H])[N+]1([H])C([H])([H])[H]

$$$$
105:2:0
     RDKit          3D

 46 51  0  0  1  0  0  0  0  0999 V2000
    7.7492   -2.0100    0.4176 C   0  0  0  0  0  0  0  0  0  0  0  0
    6.3649   -2.0778   -0.0469 N   0  0  0  0  0  0  0  0  0  0  0  0
    5.2868   -1.4948    0.8112 C   0  0  1  0  0  0  0  0  0  0  0  0
    4.2911   -0.9024   -0.2473 C   0  0  0  0  0  0  0  0  0  0  0  0
    4.1927   -1.6630   -1.5836 C   0  0  0  0  0  0  0  0  0  0  0  0
    3.2668   -1.2437   -2.5645 C   0  0  0  0  0  0  0  0  0  0  0  0
    3.1098   -1.9868   -3.7483 C   0  0  0  0  0  0  0  0  0  0  0  0
    3.8685   -3.1553   -3.9480 C   0  0  0  0  0  0  0  0  0  0  0  0
    4.8135   -3.5697   -2.9953 C   0  0  0  0  0  0  0  0  0  0  0  0
    4.9661   -2.8313   -1.8112 C   0  0  0  0  0  0  0  0  0  0  0  0
    5.9673   -3.3117   -0.7780 C   0  0  2  0  0  0  0  0  0  0  0  0
    5.3171   -4.4508    0.1657 C   0  0  1  0  0  0  0  0  0  0  0  0
    4.1554   -3.5399    0.9019 C   0  0  0  0  0  0  0  0  0  0  0  0
    4.6644   -2.4834    1.9658 C   0  0  2  0  0  0  0  0  0  0  0  0
    5.3514   -3.2793    3.2768 C   0  0  1  0  0  0  0  0  0  0  0  0
    4.9852   -4.2588    4.4296 C   0  0  0  0  0  0  0  0  0  0  0  0
    6.1573   -5.3911    4.3068 C   0  0  0  0  0  0  0  0  0  0  0  0
    6.6633   -5.4699    2.7945 C   0  0  2  0  0  0  0  0  0  0  0  0
    5.8260   -4.4002    2.5359 C   0  0  1  0  0  0  0  0  0  0  0  0
    4.8683   -5.7466    2.1724 C   0  0  0  0  0  0  0  0  0  0  0  0
    5.9090   -5.6297    1.2253 C   0  0  1  0  0  0  0  0  0  0  0  0
    7.9719   -1.0208    0.8178 H   0  0  0  0  0  0  0  0  0  0  0  0
    8.4365   -2.2053   -0.4072 H   0  0  0  0  0  0  0  0  0  0  0  0
    7.9886   -2.7499    1.1593 H   0  0  0  0  0  0  0  0  0  0  0  0
    5.6803   -0.5690    1.2614 H   0  0  0  0  0  0  0  0  0  0  0  0
    3.2927   -0.7846    0.1794 H   0  0  0  0  0  0  0  0  0  0  0  0
    4.6150    0.1008   -0.5070 H   0  0  0  0  0  0  0  0  0  0  0  0
    2.6467   -0.3782   -2.4018 H   0  0  0  0  0  0  0  0  0  0  0  0
    2.3833   -1.6734   -4.4783 H   0  0  0  0  0  0  0  0  0  0  0  0
    3.7525   -3.7459   -4.8352 H   0  0  0  0  0  0  0  0  0  0  0  0
    5.3779   -4.4707   -3.1680 H   0  0  0  0  0  0  0  0  0  0  0  0
    6.8070   -3.6574   -1.4012 H   0  0  0  0  0  0  0  0  0  0  0  0
    6.3830   -4.3327    0.2335 H   0  0  0  0  0  0  0  0  0  0  0  0
    3.4557   -3.1321    0.1712 H   0  0  0  0  0  0  0  0  0  0  0  0
    3.3342   -4.0255    1.4160 H   0  0  0  0  0  0  0  0  0  0  0  0
    5.6698   -2.1407    2.1057 H   0  0  0  0  0  0  0  0  0  0  0  0
    6.1535   -2.6969    3.7656 H   0  0  0  0  0  0  0  0  0  0  0  0
    5.0230   -3.7697    5.4042 H   0  0  0  0  0  0  0  0  0  0  0  0
    3.9833   -4.6886    4.3253 H   0  0  0  0  0  0  0  0  0  0  0  0
    6.9960   -5.1030    4.9453 H   0  0  0  0  0  0  0  0  0  0  0  0
    5.8283   -6.3552    4.7065 H   0  0  0  0  0  0  0  0  0  0  0  0
    7.7473   -5.3151    2.6912 H   0  0  0  0  0  0  0  0  0  0  0  0
    6.6649   -3.8843    2.0588 H   0  0  0  0  0  0  0  0  0  0  0  0
    4.8759   -6.7025    2.7236 H   0  0  0  0  0  0  0  0  0  0  0  0
    3.9170   -5.8156    1.6518 H   0  0  0  0  0  0  0  0  0  0  0  0
    6.1382   -6.5999    0.7661 H   0  0  0  0  0  0  0  0  0  0  0  0
  1  2  1  0
  1 22  1  0
  1 23  1  0
  1 24  1  0
  2 11  1  0
  2  3  1  0
  3 14  1  0
  3  4  1  0
  3 25  1  1
  4  5  1  0
  4 26  1  0
  4 27  1  0
  5 10  2  0
  5  6  1  0
  6  7  2  0
  6 28  1  0
  7  8  1  0
  7 29  1  0
  8  9  2  0
  8 30  1  0
  9 10  1  0
  9 31  1  0
 10 11  1  0
 11 12  1  0
 11 32  1  6
 12 21  1  0
 12 13  1  0
 12 33  1  6
 13 14  1  0
 13 34  1  0
 13 35  1  0
 14 15  1  0
 14 36  1  1
 15 19  1  0
 15 16  1  0
 15 37  1  1
 16 17  1  0
 16 38  1  0
 16 39  1  0
 17 18  1  0
 17 40  1  0
 17 41  1  0
 18 21  1  0
 18 19  1  0
 18 42  1  1
 19 20  1  0
 19 43  1  6
 20 21  1  0
 20 44  1  0
 20 45  1  0
 21 46  1  6
M  END
>  <i_m_ct_stereo_status>  (378) 
1

>  <s_m_source_file>  (378) 
/var/tmp/pbs.5076255.sched01/tmp2gi29psn/132an720x3a.sdf

>  <i_m_source_file_index>  (378) 
22

>  <i_lp_mmshare_version>  (378) 
48012

>  <i_f3d_flags>  (378) 
0

>  <s_epik_input>  (378) 
W2NIXTFbY0hdW2NIXVtjSF1jKFtDSDJdMiljMVtDQEBIXShOM1tDSDNdKVtDQEBIXShbQ0gyXTQpW0NASF0oW0NIMl01KVtDQEhdKFtDSDJdW0NIMl02KVtDQEBIXTVbQ0BIXTZbQ0BASF00W0NASF0yMw==

>  <s_epik_cmdline>  (378) 
J2VwaWtfcHl0aG9uJywgJy1waHQnLCAnMi4wJywgJy1waCcsICc3LjAnLCAnLXRuJywgJzgnLCAnLW1hJywgJzIwMCcsICctaW1hZScsICc8aW5maWxlLm1hZT4nLCAnLW9tYWUnLCAnPG91dGZpbGUubWFlPic=

>  <r_epik_Ionization_Penalty>  (378) 
2.47101

>  <r_epik_Ionization_Penalty_Charging>  (378) 
0

>  <r_epik_Ionization_Penalty_Neutral>  (378) 
2.47101

>  <r_epik_State_Penalty>  (378) 
2.63391

>  <r_epik_Charging_Adjusted_Penalty>  (378) 
2.63391

>  <i_epik_Tot_Q>  (378) 
0

>  <i_epik_Tot_abs_Q>  (378) 
0

>  <s_lp_Force_Field>  (378) 
OPLS3e

>  <r_lp_Energy>  (378) 
459.982

>  <b_lp_Chiralities_Consistent>  (378) 
1

>  <s_lp_Variant>  (378) 
105:0-3

>  <s_i_glide_gridfile>  (378) 
pfpi4k_grid

>  <i_i_glide_lignum>  (378) 
22

>  <i_i_glide_rotatable_bonds>  (378) 
0

>  <r_i_docking_score>  (378) 
-3.50803

>  <r_i_glide_ligand_efficiency>  (378) 
-0.167049

>  <r_i_glide_ligand_efficiency_sa>  (378) 
-0.460875

>  <r_i_glide_ligand_efficiency_ln>  (378) 
-0.867353

>  <r_i_glide_gscore>  (378) 
-3.50803

>  <r_i_glide_lipo>  (378) 
-0.898594

>  <r_i_glide_hbond>  (378) 
0

>  <r_i_glide_metal>  (378) 
-0

>  <r_i_glide_rewards>  (378) 
-1.50396

>  <r_i_glide_evdw>  (378) 
-19.1298

>  <r_i_glide_ecoul>  (378) 
-0.993227

>  <r_i_glide_erotb>  (378) 
0

>  <r_i_glide_esite>  (378) 
0

>  <r_i_glide_emodel>  (378) 
-24.3667

>  <r_i_glide_energy>  (378) 
-20.123

>  <r_i_glide_einternal>  (378) 
0

>  <r_i_glide_intrahb_reward>  (378) 
-0

>  <i_i_glide_confnum>  (378) 
1

>  <i_i_glide_posenum>  (378) 
1

>  <r_i_glide_eff_state_penalty>  (378) 
0

>  <ligand_id>  (378) 
105

>  <original_smiles>  (378) 
CN1C2Cc3ccccc3C1C1CC2C2CCC3C2CC31

>  <smiles>  (378) 
[H]c1c([H])c([H])c2c(c1[H])C([H])([H])C1([H])N(C([H])([H])[H])C2([H])C2([H])C([H])([H])C1([H])C1([H])C([H])([H])C([H])([H])C3([H])C2([H])C([H])([H])C13[H]

$$$$
105:2:1
     RDKit          3D

 46 51  0  0  1  0  0  0  0  0999 V2000
    7.5120   -3.6936    0.6062 C   0  0  0  0  0  0  0  0  0  0  0  0
    6.3236   -3.0078    0.0921 N   0  0  0  0  0  0  0  0  0  0  0  0
    5.7394   -1.9038    0.9091 C   0  0  1  0  0  0  0  0  0  0  0  0
    5.2645   -0.8839   -0.1875 C   0  0  0  0  0  0  0  0  0  0  0  0
    4.7642   -1.4778   -1.5219 C   0  0  0  0  0  0  0  0  0  0  0  0
    4.2448   -0.6426   -2.5282 C   0  0  0  0  0  0  0  0  0  0  0  0
    3.7254   -1.1772   -3.7246 C   0  0  0  0  0  0  0  0  0  0  0  0
    3.7178   -2.5827   -3.9133 C   0  0  0  0  0  0  0  0  0  0  0  0
    4.2672   -3.4217   -2.9288 C   0  0  0  0  0  0  0  0  0  0  0  0
    4.7690   -2.8909   -1.7293 C   0  0  0  0  0  0  0  0  0  0  0  0
    5.3194   -3.8158   -0.6606 C   0  0  2  0  0  0  0  0  0  0  0  0
    4.1400   -4.3832    0.2728 C   0  0  1  0  0  0  0  0  0  0  0  0
    3.6749   -2.9689    0.9831 C   0  0  0  0  0  0  0  0  0  0  0  0
    4.6641   -2.3596    2.0568 C   0  0  2  0  0  0  0  0  0  0  0  0
    4.7791   -3.3862    3.3812 C   0  0  1  0  0  0  0  0  0  0  0  0
    3.9103   -3.9704    4.5289 C   0  0  0  0  0  0  0  0  0  0  0  0
    4.2502   -5.5579    4.4416 C   0  0  0  0  0  0  0  0  0  0  0  0
    4.6556   -5.9238    2.9342 C   0  0  2  0  0  0  0  0  0  0  0  0
    4.5638   -4.5887    2.6501 C   0  0  1  0  0  0  0  0  0  0  0  0
    3.0154   -5.1762    2.2769 C   0  0  0  0  0  0  0  0  0  0  0  0
    3.9590   -5.6726    1.3596 C   0  0  1  0  0  0  0  0  0  0  0  0
    8.2539   -2.9635    0.9291 H   0  0  0  0  0  0  0  0  0  0  0  0
    7.9688   -4.2822   -0.1895 H   0  0  0  0  0  0  0  0  0  0  0  0
    7.3430   -4.3658    1.4418 H   0  0  0  0  0  0  0  0  0  0  0  0
    6.5721   -1.3400    1.3579 H   0  0  0  0  0  0  0  0  0  0  0  0
    4.5111   -0.2025    0.2128 H   0  0  0  0  0  0  0  0  0  0  0  0
    6.1180   -0.2595   -0.4439 H   0  0  0  0  0  0  0  0  0  0  0  0
    4.2329    0.4317   -2.3928 H   0  0  0  0  0  0  0  0  0  0  0  0
    3.3086   -0.5299   -4.4787 H   0  0  0  0  0  0  0  0  0  0  0  0
    3.2846   -3.0075   -4.7991 H   0  0  0  0  0  0  0  0  0  0  0  0
    4.2729   -4.4916   -3.0982 H   0  0  0  0  0  0  0  0  0  0  0  0
    5.8240   -4.5878   -1.2608 H   0  0  0  0  0  0  0  0  0  0  0  0
    5.0982   -4.8757    0.3455 H   0  0  0  0  0  0  0  0  0  0  0  0
    3.3336   -2.2675    0.2369 H   0  0  0  0  0  0  0  0  0  0  0  0
    2.7101   -2.9071    1.4717 H   0  0  0  0  0  0  0  0  0  0  0  0
    5.6921   -2.6095    2.2301 H   0  0  0  0  0  0  0  0  0  0  0  0
    5.7697   -3.3806    3.8585 H   0  0  0  0  0  0  0  0  0  0  0  0
    4.1899   -3.5670    5.5012 H   0  0  0  0  0  0  0  0  0  0  0  0
    2.8441   -3.7741    4.3927 H   0  0  0  0  0  0  0  0  0  0  0  0
    5.0995   -5.7789    5.0880 H   0  0  0  0  0  0  0  0  0  0  0  0
    3.4363   -6.1799    4.8304 H   0  0  0  0  0  0  0  0  0  0  0  0
    5.6410   -6.3780    2.8547 H   0  0  0  0  0  0  0  0  0  0  0  0
    5.5564   -4.6328    2.1734 H   0  0  0  0  0  0  0  0  0  0  0  0
    2.4962   -5.9669    2.8373 H   0  0  0  0  0  0  0  0  0  0  0  0
    2.2029   -4.7160    1.7268 H   0  0  0  0  0  0  0  0  0  0  0  0
    3.6376   -6.6090    0.9126 H   0  0  0  0  0  0  0  0  0  0  0  0
  1  2  1  0
  1 22  1  0
  1 23  1  0
  1 24  1  0
  2 11  1  0
  2  3  1  0
  3 14  1  0
  3  4  1  0
  3 25  1  1
  4  5  1  0
  4 26  1  0
  4 27  1  0
  5 10  2  0
  5  6  1  0
  6  7  2  0
  6 28  1  0
  7  8  1  0
  7 29  1  0
  8  9  2  0
  8 30  1  0
  9 10  1  0
  9 31  1  0
 10 11  1  0
 11 12  1  0
 11 32  1  6
 12 21  1  0
 12 13  1  0
 12 33  1  6
 13 14  1  0
 13 34  1  0
 13 35  1  0
 14 15  1  0
 14 36  1  1
 15 19  1  0
 15 16  1  0
 15 37  1  1
 16 17  1  0
 16 38  1  0
 16 39  1  0
 17 18  1  0
 17 40  1  0
 17 41  1  0
 18 21  1  0
 18 19  1  0
 18 42  1  1
 19 20  1  0
 19 43  1  6
 20 21  1  0
 20 44  1  0
 20 45  1  0
 21 46  1  6
M  END
>  <i_m_ct_stereo_status>  (379) 
1

>  <s_m_source_file>  (379) 
/var/tmp/pbs.5076255.sched01/tmp2gi29psn/132an720x3a.sdf

>  <i_m_source_file_index>  (379) 
22

>  <i_lp_mmshare_version>  (379) 
48012

>  <i_f3d_flags>  (379) 
0

>  <s_epik_input>  (379) 
W2NIXTFbY0hdW2NIXVtjSF1jKFtDSDJdMiljMVtDQEBIXShOM1tDSDNdKVtDQEBIXShbQ0gyXTQpW0NASF0oW0NIMl01KVtDQEhdKFtDSDJdW0NIMl02KVtDQEBIXTVbQ0BIXTZbQ0BASF00W0NASF0yMw==

>  <s_epik_cmdline>  (379) 
J2VwaWtfcHl0aG9uJywgJy1waHQnLCAnMi4wJywgJy1waCcsICc3LjAnLCAnLXRuJywgJzgnLCAnLW1hJywgJzIwMCcsICctaW1hZScsICc8aW5maWxlLm1hZT4nLCAnLW9tYWUnLCAnPG91dGZpbGUubWFlPic=

>  <r_epik_Ionization_Penalty>  (379) 
2.47101

>  <r_epik_Ionization_Penalty_Charging>  (379) 
0

>  <r_epik_Ionization_Penalty_Neutral>  (379) 
2.47101

>  <r_epik_State_Penalty>  (379) 
2.63391

>  <r_epik_Charging_Adjusted_Penalty>  (379) 
2.63391

>  <i_epik_Tot_Q>  (379) 
0

>  <i_epik_Tot_abs_Q>  (379) 
0

>  <s_lp_Force_Field>  (379) 
OPLS3e

>  <r_lp_Energy>  (379) 
459.982

>  <b_lp_Chiralities_Consistent>  (379) 
1

>  <s_lp_Variant>  (379) 
105:0-3

>  <s_i_glide_gridfile>  (379) 
pfpi4k_grid

>  <i_i_glide_lignum>  (379) 
22

>  <i_i_glide_rotatable_bonds>  (379) 
0

>  <r_i_docking_score>  (379) 
-3.45656

>  <r_i_glide_ligand_efficiency>  (379) 
-0.164598

>  <r_i_glide_ligand_efficiency_sa>  (379) 
-0.454114

>  <r_i_glide_ligand_efficiency_ln>  (379) 
-0.854629

>  <r_i_glide_gscore>  (379) 
-3.45656

>  <r_i_glide_lipo>  (379) 
-0.761677

>  <r_i_glide_hbond>  (379) 
0

>  <r_i_glide_metal>  (379) 
-0

>  <r_i_glide_rewards>  (379) 
-1.50396

>  <r_i_glide_evdw>  (379) 
-20.8743

>  <r_i_glide_ecoul>  (379) 
-0.98142

>  <r_i_glide_erotb>  (379) 
0

>  <r_i_glide_esite>  (379) 
0

>  <r_i_glide_emodel>  (379) 
-26.0242

>  <r_i_glide_energy>  (379) 
-21.8557

>  <r_i_glide_einternal>  (379) 
0

>  <r_i_glide_intrahb_reward>  (379) 
-0

>  <i_i_glide_confnum>  (379) 
2

>  <i_i_glide_posenum>  (379) 
39

>  <r_i_glide_eff_state_penalty>  (379) 
0

>  <ligand_id>  (379) 
105

>  <original_smiles>  (379) 
CN1C2Cc3ccccc3C1C1CC2C2CCC3C2CC31

>  <smiles>  (379) 
[H]c1c([H])c([H])c2c(c1[H])C([H])([H])C1([H])N(C([H])([H])[H])C2([H])C2([H])C([H])([H])C1([H])C1([H])C([H])([H])C([H])([H])C3([H])C2([H])C([H])([H])C13[H]

$$$$
105:3:0
     RDKit          3D

 46 51  0  0  1  0  0  0  0  0999 V2000
    7.5677   -2.0830    0.2613 C   0  0  0  0  0  0  0  0  0  0  0  0
    6.2232   -2.1161    0.8264 N   0  0  0  0  0  0  0  0  0  0  0  0
    5.6833   -3.4546    1.0345 C   0  0  2  0  0  0  0  0  0  0  0  0
    5.4248   -4.1215   -0.3570 C   0  0  0  0  0  0  0  0  0  0  0  0
    4.9847   -3.1638   -1.4724 C   0  0  0  0  0  0  0  0  0  0  0  0
    4.6339   -3.6553   -2.7445 C   0  0  0  0  0  0  0  0  0  0  0  0
    4.1876   -2.7834   -3.7541 C   0  0  0  0  0  0  0  0  0  0  0  0
    4.1101   -1.4007   -3.5033 C   0  0  0  0  0  0  0  0  0  0  0  0
    4.4766   -0.9012   -2.2383 C   0  0  0  0  0  0  0  0  0  0  0  0
    4.9100   -1.7740   -1.2253 C   0  0  0  0  0  0  0  0  0  0  0  0
    5.2383   -1.2402    0.1634 C   0  0  1  0  0  0  0  0  0  0  0  0
    3.9361   -1.1156    1.0354 C   0  0  1  0  0  0  0  0  0  0  0  0
    3.3590   -2.5171    1.2445 C   0  0  0  0  0  0  0  0  0  0  0  0
    4.4260   -3.3560    1.9562 C   0  0  2  0  0  0  0  0  0  0  0  0
    4.6428   -2.9377    3.4676 C   0  0  2  0  0  0  0  0  0  0  0  0
    3.2975   -3.1321    4.2144 C   0  0  0  0  0  0  0  0  0  0  0  0
    2.5527   -1.7699    4.1608 C   0  0  0  0  0  0  0  0  0  0  0  0
    3.6180   -0.7416    3.7885 C   0  0  1  0  0  0  0  0  0  0  0  0
    4.9493   -1.4639    3.8716 C   0  0  2  0  0  0  0  0  0  0  0  0
    5.4832   -0.2939    3.0426 C   0  0  0  0  0  0  0  0  0  0  0  0
    4.1065   -0.2931    2.3543 C   0  0  1  0  0  0  0  0  0  0  0  0
    8.2482   -2.6821    0.8681 H   0  0  0  0  0  0  0  0  0  0  0  0
    7.9470   -1.0607    0.2695 H   0  0  0  0  0  0  0  0  0  0  0  0
    7.6049   -2.4616   -0.7600 H   0  0  0  0  0  0  0  0  0  0  0  0
    6.4178   -4.0607    1.5683 H   0  0  0  0  0  0  0  0  0  0  0  0
    6.3425   -4.5931   -0.6978 H   0  0  0  0  0  0  0  0  0  0  0  0
    4.6958   -4.9293   -0.2673 H   0  0  0  0  0  0  0  0  0  0  0  0
    4.6807   -4.7128   -2.9480 H   0  0  0  0  0  0  0  0  0  0  0  0
    3.8933   -3.1808   -4.7144 H   0  0  0  0  0  0  0  0  0  0  0  0
    3.7608   -0.7232   -4.2681 H   0  0  0  0  0  0  0  0  0  0  0  0
    4.3933    0.1520   -2.0403 H   0  0  0  0  0  0  0  0  0  0  0  0
    5.6783   -0.2495    0.0568 H   0  0  0  0  0  0  0  0  0  0  0  0
    3.2020   -0.5775    0.4348 H   0  0  0  0  0  0  0  0  0  0  0  0
    2.3997   -2.5128    1.7415 H   0  0  0  0  0  0  0  0  0  0  0  0
    3.0966   -2.9676    0.2904 H   0  0  0  0  0  0  0  0  0  0  0  0
    4.0358   -4.3738    2.0024 H   0  0  0  0  0  0  0  0  0  0  0  0
    5.4007   -3.5962    3.8940 H   0  0  0  0  0  0  0  0  0  0  0  0
    2.6980   -3.9612    3.8403 H   0  0  0  0  0  0  0  0  0  0  0  0
    3.5189   -3.3563    5.2574 H   0  0  0  0  0  0  0  0  0  0  0  0
    1.6953   -1.7537    3.4903 H   0  0  0  0  0  0  0  0  0  0  0  0
    2.1317   -1.5528    5.1440 H   0  0  0  0  0  0  0  0  0  0  0  0
    3.5738    0.1309    4.4491 H   0  0  0  0  0  0  0  0  0  0  0  0
    5.3409   -1.3994    4.8884 H   0  0  0  0  0  0  0  0  0  0  0  0
    5.6411    0.5949    3.6573 H   0  0  0  0  0  0  0  0  0  0  0  0
    6.3946   -0.4555    2.4849 H   0  0  0  0  0  0  0  0  0  0  0  0
    3.8108    0.7446    2.1835 H   0  0  0  0  0  0  0  0  0  0  0  0
  1  2  1  0
  1 22  1  0
  1 23  1  0
  1 24  1  0
  2 11  1  0
  2  3  1  0
  3 14  1  0
  3  4  1  0
  3 25  1  1
  4  5  1  0
  4 26  1  0
  4 27  1  0
  5 10  2  0
  5  6  1  0
  6  7  2  0
  6 28  1  0
  7  8  1  0
  7 29  1  0
  8  9  2  0
  8 30  1  0
  9 10  1  0
  9 31  1  0
 10 11  1  0
 11 12  1  0
 11 32  1  6
 12 21  1  0
 12 13  1  0
 12 33  1  6
 13 14  1  0
 13 34  1  0
 13 35  1  0
 14 15  1  0
 14 36  1  1
 15 19  1  0
 15 16  1  0
 15 37  1  1
 16 17  1  0
 16 38  1  0
 16 39  1  0
 17 18  1  0
 17 40  1  0
 17 41  1  0
 18 21  1  0
 18 19  1  0
 18 42  1  1
 19 20  1  0
 19 43  1  1
 20 21  1  0
 20 44  1  0
 20 45  1  0
 21 46  1  6
M  END
>  <i_m_ct_stereo_status>  (380) 
1

>  <s_m_source_file>  (380) 
/var/tmp/pbs.5076255.sched01/tmp2gi29psn/132an720x3a.sdf

>  <i_m_source_file_index>  (380) 
23

>  <i_lp_mmshare_version>  (380) 
48012

>  <i_f3d_flags>  (380) 
2

>  <s_epik_input>  (380) 
W2NIXTFbY0hdW2NIXVtjSF1jKFtDSDJdMiljMVtDQEBIXShOM1tDSDNdKVtDQEBIXShbQ0gyXTQpW0NASF0oW0NIMl01KVtDQEhdKFtDSDJdW0NIMl02KVtDQEBIXTVbQ0BIXTZbQ0BASF00W0NASF0yMw==

>  <s_epik_cmdline>  (380) 
J2VwaWtfcHl0aG9uJywgJy1waHQnLCAnMi4wJywgJy1waCcsICc3LjAnLCAnLXRuJywgJzgnLCAnLW1hJywgJzIwMCcsICctaW1hZScsICc8aW5maWxlLm1hZT4nLCAnLW9tYWUnLCAnPG91dGZpbGUubWFlPic=

>  <r_epik_Ionization_Penalty>  (380) 
2.47101

>  <r_epik_Ionization_Penalty_Charging>  (380) 
0

>  <r_epik_Ionization_Penalty_Neutral>  (380) 
2.47101

>  <r_epik_State_Penalty>  (380) 
2.63391

>  <r_epik_Charging_Adjusted_Penalty>  (380) 
2.63391

>  <i_epik_Tot_Q>  (380) 
0

>  <i_epik_Tot_abs_Q>  (380) 
0

>  <s_lp_Force_Field>  (380) 
OPLS3e

>  <r_lp_Energy>  (380) 
85.3508

>  <b_lp_Chiralities_Consistent>  (380) 
0

>  <s_lp_Variant>  (380) 
105:0-4

>  <s_i_glide_gridfile>  (380) 
pfpi4k_grid

>  <i_i_glide_lignum>  (380) 
23

>  <i_i_glide_rotatable_bonds>  (380) 
0

>  <r_i_docking_score>  (380) 
-3.51005

>  <r_i_glide_ligand_efficiency>  (380) 
-0.167145

>  <r_i_glide_ligand_efficiency_sa>  (380) 
-0.461141

>  <r_i_glide_ligand_efficiency_ln>  (380) 
-0.867853

>  <r_i_glide_gscore>  (380) 
-3.51005

>  <r_i_glide_lipo>  (380) 
-0.863094

>  <r_i_glide_hbond>  (380) 
0

>  <r_i_glide_metal>  (380) 
-0

>  <r_i_glide_rewards>  (380) 
-1.50396

>  <r_i_glide_evdw>  (380) 
-22.0305

>  <r_i_glide_ecoul>  (380) 
-0.276472

>  <r_i_glide_erotb>  (380) 
0

>  <r_i_glide_esite>  (380) 
0

>  <r_i_glide_emodel>  (380) 
-26.9648

>  <r_i_glide_energy>  (380) 
-22.307

>  <r_i_glide_einternal>  (380) 
0

>  <r_i_glide_intrahb_reward>  (380) 
-0

>  <i_i_glide_confnum>  (380) 
1

>  <i_i_glide_posenum>  (380) 
4

>  <r_i_glide_eff_state_penalty>  (380) 
0

>  <ligand_id>  (380) 
105

>  <original_smiles>  (380) 
CN1C2Cc3ccccc3C1C1CC2C2CCC3C2CC31

>  <smiles>  (380) 
[H]c1c([H])c([H])c2c(c1[H])C([H])([H])C1([H])N(C([H])([H])[H])C2([H])C2([H])C([H])([H])C1([H])C1([H])C([H])([H])C([H])([H])C3([H])C2([H])C([H])([H])C13[H]

$$$$
105:3:1
     RDKit          3D

 46 51  0  0  1  0  0  0  0  0999 V2000
    0.9995    1.1225    8.4157 C   0  0  0  0  0  0  0  0  0  0  0  0
    0.5956    1.5896    7.0938 N   0  0  0  0  0  0  0  0  0  0  0  0
    1.3203    2.7604    6.6160 C   0  0  2  0  0  0  0  0  0  0  0  0
    0.9416    3.9970    7.5003 C   0  0  0  0  0  0  0  0  0  0  0  0
   -0.5160    4.0195    7.9928 C   0  0  0  0  0  0  0  0  0  0  0  0
   -1.0050    5.1300    8.7154 C   0  0  0  0  0  0  0  0  0  0  0  0
   -2.3472    5.1445    9.1558 C   0  0  0  0  0  0  0  0  0  0  0  0
   -3.1943    4.0571    8.8818 C   0  0  0  0  0  0  0  0  0  0  0  0
   -2.7158    2.9476    8.1595 C   0  0  0  0  0  0  0  0  0  0  0  0
   -1.3709    2.9347    7.7209 C   0  0  0  0  0  0  0  0  0  0  0  0
   -0.8571    1.7531    6.9060 C   0  0  1  0  0  0  0  0  0  0  0  0
   -1.1948    1.9534    5.3913 C   0  0  1  0  0  0  0  0  0  0  0  0
   -0.4490    3.1837    4.8833 C   0  0  0  0  0  0  0  0  0  0  0  0
    1.0475    2.9349    5.0884 C   0  0  2  0  0  0  0  0  0  0  0  0
    1.6489    1.8534    4.1059 C   0  0  2  0  0  0  0  0  0  0  0  0
    1.4332    2.3618    2.6527 C   0  0  0  0  0  0  0  0  0  0  0  0
    0.0917    1.7677    2.1567 C   0  0  0  0  0  0  0  0  0  0  0  0
   -0.2169    0.6388    3.1320 C   0  0  1  0  0  0  0  0  0  0  0  0
    1.0176    0.4339    3.9791 C   0  0  2  0  0  0  0  0  0  0  0  0
    0.0823   -0.3382    4.9120 C   0  0  0  0  0  0  0  0  0  0  0  0
   -0.9926    0.6817    4.5000 C   0  0  1  0  0  0  0  0  0  0  0  0
    2.0759    0.9398    8.4378 H   0  0  0  0  0  0  0  0  0  0  0  0
    0.5087    0.1752    8.6429 H   0  0  0  0  0  0  0  0  0  0  0  0
    0.7611    1.8304    9.2111 H   0  0  0  0  0  0  0  0  0  0  0  0
    2.3905    2.5922    6.7269 H   0  0  0  0  0  0  0  0  0  0  0  0
    1.5724    4.0172    8.3888 H   0  0  0  0  0  0  0  0  0  0  0  0
    1.1438    4.9223    6.9665 H   0  0  0  0  0  0  0  0  0  0  0  0
   -0.3601    5.9737    8.9341 H   0  0  0  0  0  0  0  0  0  0  0  0
   -2.7269    5.9968    9.7139 H   0  0  0  0  0  0  0  0  0  0  0  0
   -4.2326    4.0756    9.2153 H   0  0  0  0  0  0  0  0  0  0  0  0
   -3.3847    2.1338    7.9299 H   0  0  0  0  0  0  0  0  0  0  0  0
   -1.3511    0.8512    7.2587 H   0  0  0  0  0  0  0  0  0  0  0  0
   -2.2587    2.1928    5.3305 H   0  0  0  0  0  0  0  0  0  0  0  0
   -0.7065    3.4576    3.8716 H   0  0  0  0  0  0  0  0  0  0  0  0
   -0.7592    4.0722    5.4257 H   0  0  0  0  0  0  0  0  0  0  0  0
    1.5535    3.8618    4.8209 H   0  0  0  0  0  0  0  0  0  0  0  0
    2.7191    1.7589    4.3069 H   0  0  0  0  0  0  0  0  0  0  0  0
    1.4879    3.4484    2.5450 H   0  0  0  0  0  0  0  0  0  0  0  0
    2.2298    1.9554    2.0319 H   0  0  0  0  0  0  0  0  0  0  0  0
   -0.7161    2.4936    2.0853 H   0  0  0  0  0  0  0  0  0  0  0  0
    0.2154    1.3942    1.1377 H   0  0  0  0  0  0  0  0  0  0  0  0
   -0.5017   -0.2637    2.5893 H   0  0  0  0  0  0  0  0  0  0  0  0
    1.6725   -0.2661    3.4770 H   0  0  0  0  0  0  0  0  0  0  0  0
   -0.1398   -1.3432    4.5218 H   0  0  0  0  0  0  0  0  0  0  0  0
    0.3940   -0.4514    5.9376 H   0  0  0  0  0  0  0  0  0  0  0  0
   -1.9222    0.1385    4.3968 H   0  0  0  0  0  0  0  0  0  0  0  0
  1  2  1  0
  1 22  1  0
  1 23  1  0
  1 24  1  0
  2 11  1  0
  2  3  1  0
  3 14  1  0
  3  4  1  0
  3 25  1  6
  4  5  1  0
  4 26  1  0
  4 27  1  0
  5 10  2  0
  5  6  1  0
  6  7  2  0
  6 28  1  0
  7  8  1  0
  7 29  1  0
  8  9  2  0
  8 30  1  0
  9 10  1  0
  9 31  1  0
 10 11  1  0
 11 12  1  0
 11 32  1  1
 12 21  1  0
 12 13  1  0
 12 33  1  1
 13 14  1  0
 13 34  1  0
 13 35  1  0
 14 15  1  0
 14 36  1  6
 15 19  1  0
 15 16  1  0
 15 37  1  1
 16 17  1  0
 16 38  1  0
 16 39  1  0
 17 18  1  0
 17 40  1  0
 17 41  1  0
 18 21  1  0
 18 19  1  0
 18 42  1  6
 19 20  1  0
 19 43  1  6
 20 21  1  0
 20 44  1  0
 20 45  1  0
 21 46  1  6
M  END
>  <i_m_ct_stereo_status>  (381) 
1

>  <s_m_source_file>  (381) 
/var/tmp/pbs.5076255.sched01/tmp2gi29psn/132an720x3a.sdf

>  <i_m_source_file_index>  (381) 
23

>  <i_lp_mmshare_version>  (381) 
48012

>  <i_f3d_flags>  (381) 
2

>  <s_epik_input>  (381) 
W2NIXTFbY0hdW2NIXVtjSF1jKFtDSDJdMiljMVtDQEBIXShOM1tDSDNdKVtDQEBIXShbQ0gyXTQpW0NASF0oW0NIMl01KVtDQEhdKFtDSDJdW0NIMl02KVtDQEBIXTVbQ0BIXTZbQ0BASF00W0NASF0yMw==

>  <s_epik_cmdline>  (381) 
J2VwaWtfcHl0aG9uJywgJy1waHQnLCAnMi4wJywgJy1waCcsICc3LjAnLCAnLXRuJywgJzgnLCAnLW1hJywgJzIwMCcsICctaW1hZScsICc8aW5maWxlLm1hZT4nLCAnLW9tYWUnLCAnPG91dGZpbGUubWFlPic=

>  <r_epik_Ionization_Penalty>  (381) 
2.47101

>  <r_epik_Ionization_Penalty_Charging>  (381) 
0

>  <r_epik_Ionization_Penalty_Neutral>  (381) 
2.47101

>  <r_epik_State_Penalty>  (381) 
2.63391

>  <r_epik_Charging_Adjusted_Penalty>  (381) 
2.63391

>  <i_epik_Tot_Q>  (381) 
0

>  <i_epik_Tot_abs_Q>  (381) 
0

>  <s_lp_Force_Field>  (381) 
OPLS3e

>  <r_lp_Energy>  (381) 
85.3508

>  <b_lp_Chiralities_Consistent>  (381) 
0

>  <s_lp_Variant>  (381) 
105:0-4

>  <s_i_glide_gridfile>  (381) 
pfpi4k_grid

>  <i_i_glide_lignum>  (381) 
23

>  <i_i_glide_rotatable_bonds>  (381) 
0

>  <r_i_docking_score>  (381) 
-2.43908

>  <r_i_glide_ligand_efficiency>  (381) 
-0.116147

>  <r_i_glide_ligand_efficiency_sa>  (381) 
-0.32044

>  <r_i_glide_ligand_efficiency_ln>  (381) 
-0.603058

>  <r_i_glide_gscore>  (381) 
-2.43908

>  <r_i_glide_lipo>  (381) 
-0.16451

>  <r_i_glide_hbond>  (381) 
0

>  <r_i_glide_metal>  (381) 
-0

>  <r_i_glide_rewards>  (381) 
-1.50396

>  <r_i_glide_evdw>  (381) 
-15.7301

>  <r_i_glide_ecoul>  (381) 
0.105957

>  <r_i_glide_erotb>  (381) 
0

>  <r_i_glide_esite>  (381) 
0

>  <r_i_glide_emodel>  (381) 
-18.7854

>  <r_i_glide_energy>  (381) 
-15.6242

>  <r_i_glide_einternal>  (381) 
0

>  <r_i_glide_intrahb_reward>  (381) 
-0

>  <i_i_glide_confnum>  (381) 
2

>  <i_i_glide_posenum>  (381) 
13

>  <r_i_glide_eff_state_penalty>  (381) 
0

>  <ligand_id>  (381) 
105

>  <original_smiles>  (381) 
CN1C2Cc3ccccc3C1C1CC2C2CCC3C2CC31

>  <smiles>  (381) 
[H]c1c([H])c([H])c2c(c1[H])C([H])([H])C1([H])N(C([H])([H])[H])C2([H])C2([H])C([H])([H])C1([H])C1([H])C([H])([H])C([H])([H])C3([H])C2([H])C([H])([H])C13[H]

$$$$
105:3:2
     RDKit          3D

 46 51  0  0  1  0  0  0  0  0999 V2000
    0.7622    1.2002    9.2037 C   0  0  0  0  0  0  0  0  0  0  0  0
    0.4117    1.4175    7.8033 N   0  0  0  0  0  0  0  0  0  0  0  0
    1.2850    2.3475    7.0967 C   0  0  2  0  0  0  0  0  0  0  0  0
    1.0811    3.7853    7.6785 C   0  0  0  0  0  0  0  0  0  0  0  0
   -0.3489    4.1132    8.1267 C   0  0  0  0  0  0  0  0  0  0  0  0
   -0.6793    5.4080    8.5773 C   0  0  0  0  0  0  0  0  0  0  0  0
   -1.9959    5.7006    8.9780 C   0  0  0  0  0  0  0  0  0  0  0  0
   -2.9868    4.7018    8.9283 C   0  0  0  0  0  0  0  0  0  0  0  0
   -2.6660    3.4058    8.4847 C   0  0  0  0  0  0  0  0  0  0  0  0
   -1.3500    3.1136    8.0869 C   0  0  0  0  0  0  0  0  0  0  0  0
   -1.0070    1.7308    7.5572 C   0  0  1  0  0  0  0  0  0  0  0  0
   -1.3352    1.6294    6.0234 C   0  0  1  0  0  0  0  0  0  0  0  0
   -0.4310    2.6119    5.2749 C   0  0  0  0  0  0  0  0  0  0  0  0
    1.0212    2.2170    5.5620 C   0  0  2  0  0  0  0  0  0  0  0  0
    1.4523    0.8729    4.8457 C   0  0  2  0  0  0  0  0  0  0  0  0
    1.2991    1.0765    3.3157 C   0  0  0  0  0  0  0  0  0  0  0  0
   -0.1221    0.5790    2.9367 C   0  0  0  0  0  0  0  0  0  0  0  0
   -0.5812   -0.2733    4.1203 C   0  0  1  0  0  0  0  0  0  0  0  0
    0.6310   -0.4423    5.0154 C   0  0  2  0  0  0  0  0  0  0  0  0
   -0.3846   -0.8577    6.0850 C   0  0  0  0  0  0  0  0  0  0  0  0
   -1.3225    0.1786    5.4412 C   0  0  1  0  0  0  0  0  0  0  0  0
    1.8032    0.8831    9.2868 H   0  0  0  0  0  0  0  0  0  0  0  0
    0.1470    0.4040    9.6250 H   0  0  0  0  0  0  0  0  0  0  0  0
    0.6285    2.0920    9.8157 H   0  0  0  0  0  0  0  0  0  0  0  0
    2.3256    2.0617    7.2626 H   0  0  0  0  0  0  0  0  0  0  0  0
    1.7203    3.9142    8.5512 H   0  0  0  0  0  0  0  0  0  0  0  0
    1.4073    4.5365    6.9584 H   0  0  0  0  0  0  0  0  0  0  0  0
    0.0752    6.1806    8.6185 H   0  0  0  0  0  0  0  0  0  0  0  0
   -2.2551    6.6923    9.3260 H   0  0  0  0  0  0  0  0  0  0  0  0
   -3.9981    4.9271    9.2297 H   0  0  0  0  0  0  0  0  0  0  0  0
   -3.4363    2.6508    8.4426 H   0  0  0  0  0  0  0  0  0  0  0  0
   -1.6116    1.0020    8.0949 H   0  0  0  0  0  0  0  0  0  0  0  0
   -2.3520    2.0002    5.8933 H   0  0  0  0  0  0  0  0  0  0  0  0
   -0.6629    2.6911    4.2226 H   0  0  0  0  0  0  0  0  0  0  0  0
   -0.6144    3.6314    5.6047 H   0  0  0  0  0  0  0  0  0  0  0  0
    1.6451    2.9872    5.1050 H   0  0  0  0  0  0  0  0  0  0  0  0
    2.4982    0.6824    5.0889 H   0  0  0  0  0  0  0  0  0  0  0  0
    1.4972    2.0941    2.9787 H   0  0  0  0  0  0  0  0  0  0  0  0
    2.0259    0.4391    2.8132 H   0  0  0  0  0  0  0  0  0  0  0  0
   -0.8225    1.3730    2.6830 H   0  0  0  0  0  0  0  0  0  0  0  0
   -0.0536   -0.0164    2.0243 H   0  0  0  0  0  0  0  0  0  0  0  0
   -0.9790   -1.2349    3.7861 H   0  0  0  0  0  0  0  0  0  0  0  0
    1.2042   -1.3153    4.6957 H   0  0  0  0  0  0  0  0  0  0  0  0
   -0.7351   -1.8807    5.9338 H   0  0  0  0  0  0  0  0  0  0  0  0
   -0.0767   -0.7818    7.1182 H   0  0  0  0  0  0  0  0  0  0  0  0
   -2.3344   -0.2329    5.4424 H   0  0  0  0  0  0  0  0  0  0  0  0
  1  2  1  0
  1 22  1  0
  1 23  1  0
  1 24  1  0
  2 11  1  0
  2  3  1  0
  3 14  1  0
  3  4  1  0
  3 25  1  6
  4  5  1  0
  4 26  1  0
  4 27  1  0
  5 10  2  0
  5  6  1  0
  6  7  2  0
  6 28  1  0
  7  8  1  0
  7 29  1  0
  8  9  2  0
  8 30  1  0
  9 10  1  0
  9 31  1  0
 10 11  1  0
 11 12  1  0
 11 32  1  1
 12 21  1  0
 12 13  1  0
 12 33  1  1
 13 14  1  0
 13 34  1  0
 13 35  1  0
 14 15  1  0
 14 36  1  6
 15 19  1  0
 15 16  1  0
 15 37  1  6
 16 17  1  0
 16 38  1  0
 16 39  1  0
 17 18  1  0
 17 40  1  0
 17 41  1  0
 18 21  1  0
 18 19  1  0
 18 42  1  6
 19 20  1  0
 19 43  1  6
 20 21  1  0
 20 44  1  0
 20 45  1  0
 21 46  1  6
M  END
>  <i_m_ct_stereo_status>  (382) 
1

>  <s_m_source_file>  (382) 
/var/tmp/pbs.5076255.sched01/tmp2gi29psn/132an720x3a.sdf

>  <i_m_source_file_index>  (382) 
23

>  <i_lp_mmshare_version>  (382) 
48012

>  <i_f3d_flags>  (382) 
2

>  <s_epik_input>  (382) 
W2NIXTFbY0hdW2NIXVtjSF1jKFtDSDJdMiljMVtDQEBIXShOM1tDSDNdKVtDQEBIXShbQ0gyXTQpW0NASF0oW0NIMl01KVtDQEhdKFtDSDJdW0NIMl02KVtDQEBIXTVbQ0BIXTZbQ0BASF00W0NASF0yMw==

>  <s_epik_cmdline>  (382) 
J2VwaWtfcHl0aG9uJywgJy1waHQnLCAnMi4wJywgJy1waCcsICc3LjAnLCAnLXRuJywgJzgnLCAnLW1hJywgJzIwMCcsICctaW1hZScsICc8aW5maWxlLm1hZT4nLCAnLW9tYWUnLCAnPG91dGZpbGUubWFlPic=

>  <r_epik_Ionization_Penalty>  (382) 
2.47101

>  <r_epik_Ionization_Penalty_Charging>  (382) 
0

>  <r_epik_Ionization_Penalty_Neutral>  (382) 
2.47101

>  <r_epik_State_Penalty>  (382) 
2.63391

>  <r_epik_Charging_Adjusted_Penalty>  (382) 
2.63391

>  <i_epik_Tot_Q>  (382) 
0

>  <i_epik_Tot_abs_Q>  (382) 
0

>  <s_lp_Force_Field>  (382) 
OPLS3e

>  <r_lp_Energy>  (382) 
85.3508

>  <b_lp_Chiralities_Consistent>  (382) 
0

>  <s_lp_Variant>  (382) 
105:0-4

>  <s_i_glide_gridfile>  (382) 
pfpi4k_grid

>  <i_i_glide_lignum>  (382) 
23

>  <i_i_glide_rotatable_bonds>  (382) 
0

>  <r_i_docking_score>  (382) 
-2.35088

>  <r_i_glide_ligand_efficiency>  (382) 
-0.111947

>  <r_i_glide_ligand_efficiency_sa>  (382) 
-0.308853

>  <r_i_glide_ligand_efficiency_ln>  (382) 
-0.581251

>  <r_i_glide_gscore>  (382) 
-2.35088

>  <r_i_glide_lipo>  (382) 
-0.154531

>  <r_i_glide_hbond>  (382) 
0

>  <r_i_glide_metal>  (382) 
-0

>  <r_i_glide_rewards>  (382) 
-1.50396

>  <r_i_glide_evdw>  (382) 
-13.9741

>  <r_i_glide_ecoul>  (382) 
0.0420827

>  <r_i_glide_erotb>  (382) 
0

>  <r_i_glide_esite>  (382) 
0

>  <r_i_glide_emodel>  (382) 
-17.021

>  <r_i_glide_energy>  (382) 
-13.932

>  <r_i_glide_einternal>  (382) 
0

>  <r_i_glide_intrahb_reward>  (382) 
-0

>  <i_i_glide_confnum>  (382) 
1

>  <i_i_glide_posenum>  (382) 
1

>  <r_i_glide_eff_state_penalty>  (382) 
0

>  <ligand_id>  (382) 
105

>  <original_smiles>  (382) 
CN1C2Cc3ccccc3C1C1CC2C2CCC3C2CC31

>  <smiles>  (382) 
[H]c1c([H])c([H])c2c(c1[H])C([H])([H])C1([H])N(C([H])([H])[H])C2([H])C2([H])C([H])([H])C1([H])C1([H])C([H])([H])C([H])([H])C3([H])C2([H])C([H])([H])C13[H]

$$$$
106:0:0
     RDKit          3D

 26 28  0  0  1  0  0  0  0  0999 V2000
    7.7707   -2.8102   -1.7103 C   0  0  0  0  0  0  0  0  0  0  0  0
    6.7825   -2.4119   -0.7260 N   0  0  0  0  0  0  0  0  0  0  0  0
    7.2089   -2.3034    0.5444 N   0  0  0  0  0  0  0  0  0  0  0  0
    6.1382   -1.9620    1.2390 C   0  0  0  0  0  0  0  0  0  0  0  0
    5.0043   -1.8354    0.4001 C   0  0  0  0  0  0  0  0  0  0  0  0
    3.4233   -1.3885    0.9417 Cl  0  0  0  0  0  0  0  0  0  0  0  0
    5.4304   -2.1093   -0.8769 C   0  0  0  0  0  0  0  0  0  0  0  0
    4.7313   -2.1085   -2.2188 C   0  0  1  0  0  0  0  0  0  0  0  0
    4.7050   -3.4536   -2.9362 C   0  0  0  0  0  0  0  0  0  0  0  0
    3.4444   -3.4241   -3.8155 C   0  0  0  0  0  0  0  0  0  0  0  0
    2.5031   -2.4029   -3.1814 C   0  0  0  0  0  0  0  0  0  0  0  0
    3.3850   -1.4616   -2.4073 C   0  0  2  0  0  0  0  0  0  0  0  0
    4.6128   -0.8084   -2.9977 C   0  0  0  0  0  0  0  0  0  0  0  0
    7.3893   -2.6830   -2.7154 H   0  0  0  0  0  0  0  0  0  0  0  0
    8.0567   -3.8503   -1.5570 H   0  0  0  0  0  0  0  0  0  0  0  0
    8.6698   -2.2051   -1.6099 H   0  0  0  0  0  0  0  0  0  0  0  0
    6.2061   -1.8171    2.3046 H   0  0  0  0  0  0  0  0  0  0  0  0
    5.6004   -3.6213   -3.5387 H   0  0  0  0  0  0  0  0  0  0  0  0
    4.6326   -4.2555   -2.1987 H   0  0  0  0  0  0  0  0  0  0  0  0
    3.7196   -3.0623   -4.8013 H   0  0  0  0  0  0  0  0  0  0  0  0
    2.9629   -4.3924   -3.9310 H   0  0  0  0  0  0  0  0  0  0  0  0
    1.9190   -1.8789   -3.9376 H   0  0  0  0  0  0  0  0  0  0  0  0
    1.8301   -2.8999   -2.4812 H   0  0  0  0  0  0  0  0  0  0  0  0
    2.8984   -0.9199   -1.6010 H   0  0  0  0  0  0  0  0  0  0  0  0
    4.9556    0.1014   -2.5105 H   0  0  0  0  0  0  0  0  0  0  0  0
    4.6922   -0.8136   -4.0854 H   0  0  0  0  0  0  0  0  0  0  0  0
  1  2  1  0
  1 14  1  0
  1 15  1  0
  1 16  1  0
  2  7  1  0
  2  3  1  0
  3  4  2  0
  4  5  1  0
  4 17  1  0
  5  6  1  0
  5  7  2  0
  8  7  1  1
  8 12  1  0
  8 13  1  0
  8  9  1  0
  9 10  1  0
  9 18  1  0
  9 19  1  0
 10 11  1  0
 10 20  1  0
 10 21  1  0
 11 12  1  0
 11 22  1  0
 11 23  1  0
 12 13  1  0
 12 24  1  1
 13 25  1  0
 13 26  1  0
M  END
>  <i_m_ct_stereo_status>  (383) 
1

>  <s_m_source_file>  (383) 
/var/tmp/pbs.5076255.sched01/tmp2gi29psn/132an720x3a.sdf

>  <i_m_source_file_index>  (383) 
24

>  <i_lp_mmshare_version>  (383) 
48012

>  <i_f3d_flags>  (383) 
0

>  <s_epik_input>  (383) 
W0NIM11uMW5bY0hdYyhDbCljMVtDQF0yM1tDQEBIXShbQ0gyXTMpW0NIMl1bQ0gyXVtDSDJdMg==

>  <s_epik_cmdline>  (383) 
J2VwaWtfcHl0aG9uJywgJy1waHQnLCAnMi4wJywgJy1waCcsICc3LjAnLCAnLXRuJywgJzgnLCAnLW1hJywgJzIwMCcsICctaW1hZScsICc8aW5maWxlLm1hZT4nLCAnLW9tYWUnLCAnPG91dGZpbGUubWFlPic=

>  <r_lp_tautomer_probability>  (383) 
1

>  <r_epik_Ionization_Penalty>  (383) 
4.02916e-05

>  <r_epik_Ionization_Penalty_Charging>  (383) 
0

>  <r_epik_Ionization_Penalty_Neutral>  (383) 
4.02916e-05

>  <r_epik_State_Penalty>  (383) 
-0

>  <r_epik_Charging_Adjusted_Penalty>  (383) 
0

>  <i_epik_Tot_Q>  (383) 
0

>  <i_epik_Tot_abs_Q>  (383) 
0

>  <s_lp_Force_Field>  (383) 
OPLS3e

>  <r_lp_Energy>  (383) 
17.091

>  <b_lp_Chiralities_Consistent>  (383) 
1

>  <s_lp_Variant>  (383) 
106:0-1

>  <s_i_glide_gridfile>  (383) 
pfpi4k_grid

>  <i_i_glide_lignum>  (383) 
24

>  <i_i_glide_rotatable_bonds>  (383) 
1

>  <r_i_docking_score>  (383) 
-3.17466

>  <r_i_glide_ligand_efficiency>  (383) 
-0.244205

>  <r_i_glide_ligand_efficiency_sa>  (383) 
-0.574207

>  <r_i_glide_ligand_efficiency_ln>  (383) 
-0.89052

>  <r_i_glide_gscore>  (383) 
-3.17466

>  <r_i_glide_lipo>  (383) 
-0.517731

>  <r_i_glide_hbond>  (383) 
0

>  <r_i_glide_metal>  (383) 
-0

>  <r_i_glide_rewards>  (383) 
-2.06812

>  <r_i_glide_evdw>  (383) 
-18.9864

>  <r_i_glide_ecoul>  (383) 
-0.126472

>  <r_i_glide_erotb>  (383) 
0.419886

>  <r_i_glide_esite>  (383) 
-0.04041

>  <r_i_glide_emodel>  (383) 
-21.8753

>  <r_i_glide_energy>  (383) 
-19.1128

>  <r_i_glide_einternal>  (383) 
1.1507

>  <r_i_glide_intrahb_reward>  (383) 
-0

>  <i_i_glide_confnum>  (383) 
1

>  <i_i_glide_posenum>  (383) 
1

>  <r_i_glide_eff_state_penalty>  (383) 
0

>  <ligand_id>  (383) 
106

>  <original_smiles>  (383) 
Cn1ncc(Cl)c1C12CCCC1C2

>  <smiles>  (383) 
[H]c1nn(C([H])([H])[H])c(C23C([H])([H])C([H])([H])C([H])([H])C2([H])C3([H])[H])c1Cl

$$$$
106:0:1
     RDKit          3D

 26 28  0  0  1  0  0  0  0  0999 V2000
    2.0357   -4.3003   -0.8379 C   0  0  0  0  0  0  0  0  0  0  0  0
    2.9547   -3.3948   -0.1905 N   0  0  0  0  0  0  0  0  0  0  0  0
    2.9704   -3.4138    1.1652 N   0  0  0  0  0  0  0  0  0  0  0  0
    3.8586   -2.5025    1.5085 C   0  0  0  0  0  0  0  0  0  0  0  0
    4.4373   -1.9011    0.3614 C   0  0  0  0  0  0  0  0  0  0  0  0
    5.6934   -0.7136    0.4515 Cl  0  0  0  0  0  0  0  0  0  0  0  0
    3.8457   -2.4663   -0.7399 C   0  0  0  0  0  0  0  0  0  0  0  0
    4.0602   -2.2627   -2.2400 C   0  0  1  0  0  0  0  0  0  0  0  0
    2.8130   -2.3047   -3.1268 C   0  0  0  0  0  0  0  0  0  0  0  0
    3.0678   -1.4076   -4.3297 C   0  0  0  0  0  0  0  0  0  0  0  0
    4.1648   -0.4531   -3.8975 C   0  0  0  0  0  0  0  0  0  0  0  0
    4.9042   -1.1328   -2.7686 C   0  0  2  0  0  0  0  0  0  0  0  0
    5.4238   -2.5581   -2.8345 C   0  0  0  0  0  0  0  0  0  0  0  0
    2.1761   -4.2720   -1.8980 H   0  0  0  0  0  0  0  0  0  0  0  0
    1.0164   -3.9529   -0.7309 H   0  0  0  0  0  0  0  0  0  0  0  0
    2.1337   -5.3123   -0.4187 H   0  0  0  0  0  0  0  0  0  0  0  0
    4.0721   -2.3143    2.5507 H   0  0  0  0  0  0  0  0  0  0  0  0
    2.6137   -3.2960   -3.5387 H   0  0  0  0  0  0  0  0  0  0  0  0
    1.9502   -1.9455   -2.5664 H   0  0  0  0  0  0  0  0  0  0  0  0
    3.4420   -2.0341   -5.1224 H   0  0  0  0  0  0  0  0  0  0  0  0
    2.1767   -0.8991   -4.6993 H   0  0  0  0  0  0  0  0  0  0  0  0
    4.8116   -0.2562   -4.7450 H   0  0  0  0  0  0  0  0  0  0  0  0
    3.7402    0.4786   -3.5214 H   0  0  0  0  0  0  0  0  0  0  0  0
    5.3911   -0.4455   -2.0843 H   0  0  0  0  0  0  0  0  0  0  0  0
    6.2236   -2.8345   -2.1505 H   0  0  0  0  0  0  0  0  0  0  0  0
    5.4628   -3.0581   -3.8036 H   0  0  0  0  0  0  0  0  0  0  0  0
  1  2  1  0
  1 14  1  0
  1 15  1  0
  1 16  1  0
  2  7  1  0
  2  3  1  0
  3  4  2  0
  4  5  1  0
  4 17  1  0
  5  6  1  0
  5  7  2  0
  8  7  1  1
  8 12  1  0
  8 13  1  0
  8  9  1  0
  9 10  1  0
  9 18  1  0
  9 19  1  0
 10 11  1  0
 10 20  1  0
 10 21  1  0
 11 12  1  0
 11 22  1  0
 11 23  1  0
 12 13  1  0
 12 24  1  1
 13 25  1  0
 13 26  1  0
M  END
>  <i_m_ct_stereo_status>  (384) 
1

>  <s_m_source_file>  (384) 
/var/tmp/pbs.5076255.sched01/tmp2gi29psn/132an720x3a.sdf

>  <i_m_source_file_index>  (384) 
24

>  <i_lp_mmshare_version>  (384) 
48012

>  <i_f3d_flags>  (384) 
0

>  <s_epik_input>  (384) 
W0NIM11uMW5bY0hdYyhDbCljMVtDQF0yM1tDQEBIXShbQ0gyXTMpW0NIMl1bQ0gyXVtDSDJdMg==

>  <s_epik_cmdline>  (384) 
J2VwaWtfcHl0aG9uJywgJy1waHQnLCAnMi4wJywgJy1waCcsICc3LjAnLCAnLXRuJywgJzgnLCAnLW1hJywgJzIwMCcsICctaW1hZScsICc8aW5maWxlLm1hZT4nLCAnLW9tYWUnLCAnPG91dGZpbGUubWFlPic=

>  <r_lp_tautomer_probability>  (384) 
1

>  <r_epik_Ionization_Penalty>  (384) 
4.02916e-05

>  <r_epik_Ionization_Penalty_Charging>  (384) 
0

>  <r_epik_Ionization_Penalty_Neutral>  (384) 
4.02916e-05

>  <r_epik_State_Penalty>  (384) 
-0

>  <r_epik_Charging_Adjusted_Penalty>  (384) 
0

>  <i_epik_Tot_Q>  (384) 
0

>  <i_epik_Tot_abs_Q>  (384) 
0

>  <s_lp_Force_Field>  (384) 
OPLS3e

>  <r_lp_Energy>  (384) 
17.091

>  <b_lp_Chiralities_Consistent>  (384) 
1

>  <s_lp_Variant>  (384) 
106:0-1

>  <s_i_glide_gridfile>  (384) 
pfpi4k_grid

>  <i_i_glide_lignum>  (384) 
24

>  <i_i_glide_rotatable_bonds>  (384) 
1

>  <r_i_docking_score>  (384) 
-2.90475

>  <r_i_glide_ligand_efficiency>  (384) 
-0.223442

>  <r_i_glide_ligand_efficiency_sa>  (384) 
-0.525388

>  <r_i_glide_ligand_efficiency_ln>  (384) 
-0.814809

>  <r_i_glide_gscore>  (384) 
-2.90475

>  <r_i_glide_lipo>  (384) 
-0.545668

>  <r_i_glide_hbond>  (384) 
0

>  <r_i_glide_metal>  (384) 
-0

>  <r_i_glide_rewards>  (384) 
-2.06812

>  <r_i_glide_evdw>  (384) 
-14.6705

>  <r_i_glide_ecoul>  (384) 
0.174549

>  <r_i_glide_erotb>  (384) 
0.419886

>  <r_i_glide_esite>  (384) 
-0.00351151

>  <r_i_glide_emodel>  (384) 
-15.7678

>  <r_i_glide_energy>  (384) 
-14.496

>  <r_i_glide_einternal>  (384) 
2.73196

>  <r_i_glide_intrahb_reward>  (384) 
-0

>  <i_i_glide_confnum>  (384) 
1

>  <i_i_glide_posenum>  (384) 
15

>  <r_i_glide_eff_state_penalty>  (384) 
0

>  <ligand_id>  (384) 
106

>  <original_smiles>  (384) 
Cn1ncc(Cl)c1C12CCCC1C2

>  <smiles>  (384) 
[H]c1nn(C([H])([H])[H])c(C23C([H])([H])C([H])([H])C([H])([H])C2([H])C3([H])[H])c1Cl

$$$$
106:0:2
     RDKit          3D

 26 28  0  0  1  0  0  0  0  0999 V2000
    3.3602   -5.3935    1.5979 C   0  0  0  0  0  0  0  0  0  0  0  0
    3.1988   -4.4892    0.4779 N   0  0  0  0  0  0  0  0  0  0  0  0
    2.1222   -4.6556   -0.3174 N   0  0  0  0  0  0  0  0  0  0  0  0
    2.2199   -3.7108   -1.2480 C   0  0  0  0  0  0  0  0  0  0  0  0
    3.3908   -2.9354   -1.0490 C   0  0  0  0  0  0  0  0  0  0  0  0
    3.9358   -1.6153   -2.0254 Cl  0  0  0  0  0  0  0  0  0  0  0  0
    3.9868   -3.4239    0.0768 C   0  0  0  0  0  0  0  0  0  0  0  0
    5.2104   -2.9851    0.8102 C   0  0  1  0  0  0  0  0  0  0  0  0
    6.4950   -3.6180    0.3166 C   0  0  0  0  0  0  0  0  0  0  0  0
    7.4246   -2.4505   -0.0522 C   0  0  0  0  0  0  0  0  0  0  0  0
    6.8923   -1.2180    0.6981 C   0  0  0  0  0  0  0  0  0  0  0  0
    5.4638   -1.5211    1.0532 C   0  0  2  0  0  0  0  0  0  0  0  0
    5.0939   -2.4212    2.2057 C   0  0  0  0  0  0  0  0  0  0  0  0
    4.1769   -5.0747    2.2457 H   0  0  0  0  0  0  0  0  0  0  0  0
    3.5739   -6.3952    1.2272 H   0  0  0  0  0  0  0  0  0  0  0  0
    2.4417   -5.4215    2.1825 H   0  0  0  0  0  0  0  0  0  0  0  0
    1.4649   -3.6482   -2.0181 H   0  0  0  0  0  0  0  0  0  0  0  0
    6.9252   -4.2178    1.1184 H   0  0  0  0  0  0  0  0  0  0  0  0
    6.3251   -4.2751   -0.5383 H   0  0  0  0  0  0  0  0  0  0  0  0
    8.4721   -2.6581    0.1804 H   0  0  0  0  0  0  0  0  0  0  0  0
    7.3604   -2.2775   -1.1286 H   0  0  0  0  0  0  0  0  0  0  0  0
    7.4385   -1.0553    1.6243 H   0  0  0  0  0  0  0  0  0  0  0  0
    6.9476   -0.3115    0.0991 H   0  0  0  0  0  0  0  0  0  0  0  0
    4.7204   -0.8087    0.7029 H   0  0  0  0  0  0  0  0  0  0  0  0
    4.0935   -2.3230    2.6259 H   0  0  0  0  0  0  0  0  0  0  0  0
    5.8678   -2.6814    2.9241 H   0  0  0  0  0  0  0  0  0  0  0  0
  1  2  1  0
  1 14  1  0
  1 15  1  0
  1 16  1  0
  2  7  1  0
  2  3  1  0
  3  4  2  0
  4  5  1  0
  4 17  1  0
  5  6  1  0
  5  7  2  0
  8  7  1  6
  8 12  1  0
  8 13  1  0
  8  9  1  0
  9 10  1  0
  9 18  1  0
  9 19  1  0
 10 11  1  0
 10 20  1  0
 10 21  1  0
 11 12  1  0
 11 22  1  0
 11 23  1  0
 12 13  1  0
 12 24  1  6
 13 25  1  0
 13 26  1  0
M  END
>  <i_m_ct_stereo_status>  (385) 
1

>  <s_m_source_file>  (385) 
/var/tmp/pbs.5076255.sched01/tmp2gi29psn/132an720x3a.sdf

>  <i_m_source_file_index>  (385) 
24

>  <i_lp_mmshare_version>  (385) 
48012

>  <i_f3d_flags>  (385) 
0

>  <s_epik_input>  (385) 
W0NIM11uMW5bY0hdYyhDbCljMVtDQF0yM1tDQEBIXShbQ0gyXTMpW0NIMl1bQ0gyXVtDSDJdMg==

>  <s_epik_cmdline>  (385) 
J2VwaWtfcHl0aG9uJywgJy1waHQnLCAnMi4wJywgJy1waCcsICc3LjAnLCAnLXRuJywgJzgnLCAnLW1hJywgJzIwMCcsICctaW1hZScsICc8aW5maWxlLm1hZT4nLCAnLW9tYWUnLCAnPG91dGZpbGUubWFlPic=

>  <r_lp_tautomer_probability>  (385) 
1

>  <r_epik_Ionization_Penalty>  (385) 
4.02916e-05

>  <r_epik_Ionization_Penalty_Charging>  (385) 
0

>  <r_epik_Ionization_Penalty_Neutral>  (385) 
4.02916e-05

>  <r_epik_State_Penalty>  (385) 
-0

>  <r_epik_Charging_Adjusted_Penalty>  (385) 
0

>  <i_epik_Tot_Q>  (385) 
0

>  <i_epik_Tot_abs_Q>  (385) 
0

>  <s_lp_Force_Field>  (385) 
OPLS3e

>  <r_lp_Energy>  (385) 
17.091

>  <b_lp_Chiralities_Consistent>  (385) 
1

>  <s_lp_Variant>  (385) 
106:0-1

>  <s_i_glide_gridfile>  (385) 
pfpi4k_grid

>  <i_i_glide_lignum>  (385) 
24

>  <i_i_glide_rotatable_bonds>  (385) 
1

>  <r_i_docking_score>  (385) 
-2.83391

>  <r_i_glide_ligand_efficiency>  (385) 
-0.217993

>  <r_i_glide_ligand_efficiency_sa>  (385) 
-0.512574

>  <r_i_glide_ligand_efficiency_ln>  (385) 
-0.794936

>  <r_i_glide_gscore>  (385) 
-2.83391

>  <r_i_glide_lipo>  (385) 
-0.368238

>  <r_i_glide_hbond>  (385) 
-0.00291032

>  <r_i_glide_metal>  (385) 
-0

>  <r_i_glide_rewards>  (385) 
-2.06812

>  <r_i_glide_evdw>  (385) 
-12.8994

>  <r_i_glide_ecoul>  (385) 
-1.0535

>  <r_i_glide_erotb>  (385) 
0.419886

>  <r_i_glide_esite>  (385) 
-0.0115305

>  <r_i_glide_emodel>  (385) 
-17.1711

>  <r_i_glide_energy>  (385) 
-13.9529

>  <r_i_glide_einternal>  (385) 
0.0587592

>  <r_i_glide_intrahb_reward>  (385) 
-0

>  <i_i_glide_confnum>  (385) 
4

>  <i_i_glide_posenum>  (385) 
2

>  <r_i_glide_eff_state_penalty>  (385) 
0

>  <ligand_id>  (385) 
106

>  <original_smiles>  (385) 
Cn1ncc(Cl)c1C12CCCC1C2

>  <smiles>  (385) 
[H]c1nn(C([H])([H])[H])c(C23C([H])([H])C([H])([H])C([H])([H])C2([H])C3([H])[H])c1Cl

$$$$
107:0:0
     RDKit          3D

 31 34  0  0  1  0  0  0  0  0999 V2000
    0.4693   -8.0011    2.4262 C   0  0  0  0  0  0  0  0  0  0  0  0
    1.4372   -7.1298    1.7992 N   0  0  0  0  0  0  0  0  0  0  0  0
    2.8025   -7.0473    2.0066 C   0  0  0  0  0  0  0  0  0  0  0  0
    3.2698   -6.0645    1.1754 C   0  0  0  0  0  0  0  0  0  0  0  0
    4.6803   -5.6434    1.0130 C   0  0  0  0  0  0  0  0  0  0  0  0
    5.8351   -6.4380    1.2913 C   0  0  0  0  0  0  0  0  0  0  0  0
    6.9484   -5.6887    1.0396 C   0  0  0  0  0  0  0  0  0  0  0  0
    6.5303   -4.4389    0.6207 N   0  0  0  0  0  0  0  0  0  0  0  0
    5.1297   -4.4061    0.5871 C   0  0  0  0  0  0  0  0  0  0  0  0
    4.4991   -3.1243    0.1599 C   0  0  0  0  0  0  0  0  0  0  0  0
    3.2875   -2.9300    0.1038 O   0  0  0  0  0  0  0  0  0  0  0  0
    5.4660   -1.9737   -0.2064 C   0  0  2  0  0  0  0  0  0  0  0  0
    6.1695   -2.3249   -1.5005 C   0  0  0  0  0  0  0  0  0  0  0  0
    7.2586   -3.0560   -1.2462 C   0  0  0  0  0  0  0  0  0  0  0  0
    7.3756   -3.3014    0.2435 C   0  0  1  0  0  0  0  0  0  0  0  0
    6.6628   -2.0366    0.7664 C   0  0  0  0  0  0  0  0  0  0  0  0
    2.1169   -5.6337    0.4633 C   0  0  0  0  0  0  0  0  0  0  0  0
    1.0149   -6.2564    0.8578 N   0  0  0  0  0  0  0  0  0  0  0  0
    0.9505   -8.6087    3.1947 H   0  0  0  0  0  0  0  0  0  0  0  0
    0.0188   -8.6582    1.6813 H   0  0  0  0  0  0  0  0  0  0  0  0
   -0.3139   -7.4000    2.8915 H   0  0  0  0  0  0  0  0  0  0  0  0
    3.3122   -7.6920    2.7151 H   0  0  0  0  0  0  0  0  0  0  0  0
    5.8538   -7.4635    1.6415 H   0  0  0  0  0  0  0  0  0  0  0  0
    8.0017   -5.9280    1.1273 H   0  0  0  0  0  0  0  0  0  0  0  0
    4.9784   -1.0026   -0.2358 H   0  0  0  0  0  0  0  0  0  0  0  0
    5.8084   -2.0302   -2.4755 H   0  0  0  0  0  0  0  0  0  0  0  0
    7.9534   -3.4602   -1.9695 H   0  0  0  0  0  0  0  0  0  0  0  0
    8.4009   -3.4076    0.6027 H   0  0  0  0  0  0  0  0  0  0  0  0
    7.3003   -1.1569    0.6398 H   0  0  0  0  0  0  0  0  0  0  0  0
    6.3763   -2.0914    1.8207 H   0  0  0  0  0  0  0  0  0  0  0  0
    2.0376   -4.9232   -0.3454 H   0  0  0  0  0  0  0  0  0  0  0  0
  1  2  1  0
  1 19  1  0
  1 20  1  0
  1 21  1  0
  2 18  1  0
  2  3  1  0
  3  4  2  0
  3 22  1  0
  4  5  1  0
  4 17  1  0
  5  9  2  0
  5  6  1  0
  6  7  2  0
  6 23  1  0
  7  8  1  0
  7 24  1  0
  8 15  1  0
  8  9  1  0
  9 10  1  0
 10 11  2  0
 10 12  1  0
 12 16  1  0
 12 13  1  0
 12 25  1  6
 13 14  2  0
 13 26  1  0
 14 15  1  0
 14 27  1  0
 15 16  1  0
 15 28  1  1
 16 29  1  0
 16 30  1  0
 17 18  2  0
 17 31  1  0
M  END
>  <i_m_ct_stereo_status>  (386) 
1

>  <s_m_source_file>  (386) 
/var/tmp/pbs.5076255.sched01/tmp2gi29psn/132an720x3a.sdf

>  <i_m_source_file_index>  (386) 
25

>  <i_lp_mmshare_version>  (386) 
48012

>  <i_f3d_flags>  (386) 
0

>  <s_epik_input>  (386) 
W0NIM11uMVtjSF1jKFtjSF1uMSktYyhbY0hdW2NIXTIpYyhuMjMpQyg9TylbQ0BASF00W0NIXT1bQ0hdW0NASF0zW0NIMl00

>  <s_epik_cmdline>  (386) 
J2VwaWtfcHl0aG9uJywgJy1waHQnLCAnMi4wJywgJy1waCcsICc3LjAnLCAnLXRuJywgJzgnLCAnLW1hJywgJzIwMCcsICctaW1hZScsICc8aW5maWxlLm1hZT4nLCAnLW9tYWUnLCAnPG91dGZpbGUubWFlPic=

>  <r_lp_tautomer_probability>  (386) 
1

>  <r_epik_Ionization_Penalty>  (386) 
8.96696e-05

>  <r_epik_Ionization_Penalty_Charging>  (386) 
0

>  <r_epik_Ionization_Penalty_Neutral>  (386) 
8.96696e-05

>  <r_epik_State_Penalty>  (386) 
-0

>  <r_epik_Charging_Adjusted_Penalty>  (386) 
0

>  <i_epik_Tot_Q>  (386) 
0

>  <i_epik_Tot_abs_Q>  (386) 
0

>  <s_lp_Force_Field>  (386) 
OPLS3e

>  <r_lp_Energy>  (386) 
26.6131

>  <b_lp_Chiralities_Consistent>  (386) 
1

>  <s_lp_Variant>  (386) 
107:0-1

>  <s_i_glide_gridfile>  (386) 
pfpi4k_grid

>  <i_i_glide_lignum>  (386) 
25

>  <i_i_glide_rotatable_bonds>  (386) 
1

>  <r_i_docking_score>  (386) 
-3.94901

>  <r_i_glide_ligand_efficiency>  (386) 
-0.21939

>  <r_i_glide_ligand_efficiency_sa>  (386) 
-0.574963

>  <r_i_glide_ligand_efficiency_ln>  (386) 
-1.01507

>  <r_i_glide_gscore>  (386) 
-3.94901

>  <r_i_glide_lipo>  (386) 
-0.552524

>  <r_i_glide_hbond>  (386) 
-0.16

>  <r_i_glide_metal>  (386) 
-0

>  <r_i_glide_rewards>  (386) 
-1.95884

>  <r_i_glide_evdw>  (386) 
-21.6226

>  <r_i_glide_ecoul>  (386) 
-3.06653

>  <r_i_glide_erotb>  (386) 
0.301804

>  <r_i_glide_esite>  (386) 
-0.0383489

>  <r_i_glide_emodel>  (386) 
-31.0062

>  <r_i_glide_energy>  (386) 
-24.6891

>  <r_i_glide_einternal>  (386) 
0.371118

>  <r_i_glide_intrahb_reward>  (386) 
-0

>  <i_i_glide_confnum>  (386) 
6

>  <i_i_glide_posenum>  (386) 
10

>  <r_i_glide_eff_state_penalty>  (386) 
0

>  <ligand_id>  (386) 
107

>  <original_smiles>  (386) 
Cn1cc(-c2ccn3c2C(=O)C2C=CC3C2)cn1

>  <smiles>  (386) 
[H]C1=C([H])C2([H])n3c([H])c([H])c(-c4c([H])nn(C([H])([H])[H])c4[H])c3C(=O)C1([H])C2([H])[H]

$$$$
107:0:1
     RDKit          3D

 31 34  0  0  1  0  0  0  0  0999 V2000
    0.4153   -8.2380    2.6751 C   0  0  0  0  0  0  0  0  0  0  0  0
    1.1879   -7.2906    1.9038 N   0  0  0  0  0  0  0  0  0  0  0  0
    2.5215   -6.9414    2.0227 C   0  0  0  0  0  0  0  0  0  0  0  0
    2.7671   -6.0004    1.0502 C   0  0  0  0  0  0  0  0  0  0  0  0
    4.0700   -5.3589    0.7781 C   0  0  0  0  0  0  0  0  0  0  0  0
    5.3478   -5.7714    1.2712 C   0  0  0  0  0  0  0  0  0  0  0  0
    6.3026   -4.9089    0.8205 C   0  0  0  0  0  0  0  0  0  0  0  0
    5.6619   -3.9503    0.0613 N   0  0  0  0  0  0  0  0  0  0  0  0
    4.2933   -4.2171    0.0089 C   0  0  0  0  0  0  0  0  0  0  0  0
    3.4611   -3.2638   -0.7857 C   0  0  0  0  0  0  0  0  0  0  0  0
    2.2506   -3.3555   -0.9376 O   0  0  0  0  0  0  0  0  0  0  0  0
    4.2015   -2.0876   -1.4636 C   0  0  2  0  0  0  0  0  0  0  0  0
    5.0315   -2.6566   -2.5910 C   0  0  0  0  0  0  0  0  0  0  0  0
    6.2168   -3.0537   -2.1246 C   0  0  0  0  0  0  0  0  0  0  0  0
    6.2903   -2.8185   -0.6325 C   0  0  1  0  0  0  0  0  0  0  0  0
    5.3142   -1.6257   -0.5052 C   0  0  0  0  0  0  0  0  0  0  0  0
    1.5229   -5.8987    0.3558 C   0  0  0  0  0  0  0  0  0  0  0  0
    0.5677   -6.6327    0.9051 N   0  0  0  0  0  0  0  0  0  0  0  0
    1.0223   -8.6589    3.4783 H   0  0  0  0  0  0  0  0  0  0  0  0
    0.0656   -9.0492    2.0299 H   0  0  0  0  0  0  0  0  0  0  0  0
   -0.4539   -7.7340    3.1032 H   0  0  0  0  0  0  0  0  0  0  0  0
    3.1663   -7.3893    2.7608 H   0  0  0  0  0  0  0  0  0  0  0  0
    5.5523   -6.6253    1.9046 H   0  0  0  0  0  0  0  0  0  0  0  0
    7.3744   -4.8847    0.9781 H   0  0  0  0  0  0  0  0  0  0  0  0
    3.5291   -1.2913   -1.7777 H   0  0  0  0  0  0  0  0  0  0  0  0
    4.6943   -2.7159   -3.6124 H   0  0  0  0  0  0  0  0  0  0  0  0
    7.0200   -3.4827   -2.7076 H   0  0  0  0  0  0  0  0  0  0  0  0
    7.2953   -2.6020   -0.2661 H   0  0  0  0  0  0  0  0  0  0  0  0
    5.7669   -0.7071   -0.8804 H   0  0  0  0  0  0  0  0  0  0  0  0
    4.9725   -1.4398    0.5151 H   0  0  0  0  0  0  0  0  0  0  0  0
    1.2376   -5.3636   -0.5429 H   0  0  0  0  0  0  0  0  0  0  0  0
  1  2  1  0
  1 19  1  0
  1 20  1  0
  1 21  1  0
  2 18  1  0
  2  3  1  0
  3  4  2  0
  3 22  1  0
  4  5  1  0
  4 17  1  0
  5  9  2  0
  5  6  1  0
  6  7  2  0
  6 23  1  0
  7  8  1  0
  7 24  1  0
  8 15  1  0
  8  9  1  0
  9 10  1  0
 10 11  2  0
 10 12  1  0
 12 16  1  0
 12 13  1  0
 12 25  1  6
 13 14  2  0
 13 26  1  0
 14 15  1  0
 14 27  1  0
 15 16  1  0
 15 28  1  1
 16 29  1  0
 16 30  1  0
 17 18  2  0
 17 31  1  0
M  END
>  <i_m_ct_stereo_status>  (387) 
1

>  <s_m_source_file>  (387) 
/var/tmp/pbs.5076255.sched01/tmp2gi29psn/132an720x3a.sdf

>  <i_m_source_file_index>  (387) 
25

>  <i_lp_mmshare_version>  (387) 
48012

>  <i_f3d_flags>  (387) 
0

>  <s_epik_input>  (387) 
W0NIM11uMVtjSF1jKFtjSF1uMSktYyhbY0hdW2NIXTIpYyhuMjMpQyg9TylbQ0BASF00W0NIXT1bQ0hdW0NASF0zW0NIMl00

>  <s_epik_cmdline>  (387) 
J2VwaWtfcHl0aG9uJywgJy1waHQnLCAnMi4wJywgJy1waCcsICc3LjAnLCAnLXRuJywgJzgnLCAnLW1hJywgJzIwMCcsICctaW1hZScsICc8aW5maWxlLm1hZT4nLCAnLW9tYWUnLCAnPG91dGZpbGUubWFlPic=

>  <r_lp_tautomer_probability>  (387) 
1

>  <r_epik_Ionization_Penalty>  (387) 
8.96696e-05

>  <r_epik_Ionization_Penalty_Charging>  (387) 
0

>  <r_epik_Ionization_Penalty_Neutral>  (387) 
8.96696e-05

>  <r_epik_State_Penalty>  (387) 
-0

>  <r_epik_Charging_Adjusted_Penalty>  (387) 
0

>  <i_epik_Tot_Q>  (387) 
0

>  <i_epik_Tot_abs_Q>  (387) 
0

>  <s_lp_Force_Field>  (387) 
OPLS3e

>  <r_lp_Energy>  (387) 
26.6131

>  <b_lp_Chiralities_Consistent>  (387) 
1

>  <s_lp_Variant>  (387) 
107:0-1

>  <s_i_glide_gridfile>  (387) 
pfpi4k_grid

>  <i_i_glide_lignum>  (387) 
25

>  <i_i_glide_rotatable_bonds>  (387) 
1

>  <r_i_docking_score>  (387) 
-3.58594

>  <r_i_glide_ligand_efficiency>  (387) 
-0.199219

>  <r_i_glide_ligand_efficiency_sa>  (387) 
-0.5221

>  <r_i_glide_ligand_efficiency_ln>  (387) 
-0.921746

>  <r_i_glide_gscore>  (387) 
-3.58594

>  <r_i_glide_lipo>  (387) 
-0.506943

>  <r_i_glide_hbond>  (387) 
-0.13678

>  <r_i_glide_metal>  (387) 
-0

>  <r_i_glide_rewards>  (387) 
-1.92429

>  <r_i_glide_evdw>  (387) 
-22.5872

>  <r_i_glide_ecoul>  (387) 
-0.997807

>  <r_i_glide_erotb>  (387) 
0.301804

>  <r_i_glide_esite>  (387) 
-0.0406955

>  <r_i_glide_emodel>  (387) 
-29.169

>  <r_i_glide_energy>  (387) 
-23.585

>  <r_i_glide_einternal>  (387) 
0.234286

>  <r_i_glide_intrahb_reward>  (387) 
-0

>  <i_i_glide_confnum>  (387) 
5

>  <i_i_glide_posenum>  (387) 
18

>  <r_i_glide_eff_state_penalty>  (387) 
0

>  <ligand_id>  (387) 
107

>  <original_smiles>  (387) 
Cn1cc(-c2ccn3c2C(=O)C2C=CC3C2)cn1

>  <smiles>  (387) 
[H]C1=C([H])C2([H])n3c([H])c([H])c(-c4c([H])nn(C([H])([H])[H])c4[H])c3C(=O)C1([H])C2([H])[H]

$$$$
107:0:2
     RDKit          3D

 31 34  0  0  1  0  0  0  0  0999 V2000
    3.0810   -3.2618   -1.3030 C   0  0  0  0  0  0  0  0  0  0  0  0
    3.2215   -3.9722   -0.0533 N   0  0  0  0  0  0  0  0  0  0  0  0
    2.6153   -5.1482    0.3333 C   0  0  0  0  0  0  0  0  0  0  0  0
    3.0415   -5.4077    1.6044 C   0  0  0  0  0  0  0  0  0  0  0  0
    2.7409   -6.5425    2.5008 C   0  0  0  0  0  0  0  0  0  0  0  0
    3.5774   -7.0214    3.5545 C   0  0  0  0  0  0  0  0  0  0  0  0
    2.9616   -8.0815    4.1519 C   0  0  0  0  0  0  0  0  0  0  0  0
    1.7620   -8.2896    3.5021 N   0  0  0  0  0  0  0  0  0  0  0  0
    1.6103   -7.3333    2.4907 C   0  0  0  0  0  0  0  0  0  0  0  0
    0.3445   -7.3813    1.7075 C   0  0  0  0  0  0  0  0  0  0  0  0
    0.0259   -6.5605    0.8496 O   0  0  0  0  0  0  0  0  0  0  0  0
   -0.6453   -8.5076    2.0804 C   0  0  2  0  0  0  0  0  0  0  0  0
   -1.2511   -8.1673    3.4240 C   0  0  0  0  0  0  0  0  0  0  0  0
   -0.4666   -8.6229    4.4068 C   0  0  0  0  0  0  0  0  0  0  0  0
    0.7532   -9.2987    3.8208 C   0  0  1  0  0  0  0  0  0  0  0  0
    0.1725   -9.7571    2.4744 C   0  0  0  0  0  0  0  0  0  0  0  0
    3.9533   -4.3537    1.8956 C   0  0  0  0  0  0  0  0  0  0  0  0
    4.0513   -3.4877    0.8949 N   0  0  0  0  0  0  0  0  0  0  0  0
    2.3375   -3.7575   -1.9290 H   0  0  0  0  0  0  0  0  0  0  0  0
    4.0334   -3.2463   -1.8336 H   0  0  0  0  0  0  0  0  0  0  0  0
    2.7507   -2.2404   -1.1147 H   0  0  0  0  0  0  0  0  0  0  0  0
    1.9567   -5.6737   -0.3410 H   0  0  0  0  0  0  0  0  0  0  0  0
    4.5443   -6.6292    3.8399 H   0  0  0  0  0  0  0  0  0  0  0  0
    3.2684   -8.7081    4.9765 H   0  0  0  0  0  0  0  0  0  0  0  0
   -1.3860   -8.6942    1.3049 H   0  0  0  0  0  0  0  0  0  0  0  0
   -2.1905   -7.6499    3.5462 H   0  0  0  0  0  0  0  0  0  0  0  0
   -0.6526   -8.5560    5.4659 H   0  0  0  0  0  0  0  0  0  0  0  0
    1.1501  -10.1176    4.4260 H   0  0  0  0  0  0  0  0  0  0  0  0
   -0.4920  -10.6135    2.6056 H   0  0  0  0  0  0  0  0  0  0  0  0
    0.9382  -10.0377    1.7457 H   0  0  0  0  0  0  0  0  0  0  0  0
    4.5448   -4.2004    2.7877 H   0  0  0  0  0  0  0  0  0  0  0  0
  1  2  1  0
  1 19  1  0
  1 20  1  0
  1 21  1  0
  2 18  1  0
  2  3  1  0
  3  4  2  0
  3 22  1  0
  4  5  1  0
  4 17  1  0
  5  9  2  0
  5  6  1  0
  6  7  2  0
  6 23  1  0
  7  8  1  0
  7 24  1  0
  8 15  1  0
  8  9  1  0
  9 10  1  0
 10 11  2  0
 10 12  1  0
 12 16  1  0
 12 13  1  0
 12 25  1  6
 13 14  2  0
 13 26  1  0
 14 15  1  0
 14 27  1  0
 15 16  1  0
 15 28  1  1
 16 29  1  0
 16 30  1  0
 17 18  2  0
 17 31  1  0
M  END
>  <i_m_ct_stereo_status>  (388) 
1

>  <s_m_source_file>  (388) 
/var/tmp/pbs.5076255.sched01/tmp2gi29psn/132an720x3a.sdf

>  <i_m_source_file_index>  (388) 
25

>  <i_lp_mmshare_version>  (388) 
48012

>  <i_f3d_flags>  (388) 
0

>  <s_epik_input>  (388) 
W0NIM11uMVtjSF1jKFtjSF1uMSktYyhbY0hdW2NIXTIpYyhuMjMpQyg9TylbQ0BASF00W0NIXT1bQ0hdW0NASF0zW0NIMl00

>  <s_epik_cmdline>  (388) 
J2VwaWtfcHl0aG9uJywgJy1waHQnLCAnMi4wJywgJy1waCcsICc3LjAnLCAnLXRuJywgJzgnLCAnLW1hJywgJzIwMCcsICctaW1hZScsICc8aW5maWxlLm1hZT4nLCAnLW9tYWUnLCAnPG91dGZpbGUubWFlPic=

>  <r_lp_tautomer_probability>  (388) 
1

>  <r_epik_Ionization_Penalty>  (388) 
8.96696e-05

>  <r_epik_Ionization_Penalty_Charging>  (388) 
0

>  <r_epik_Ionization_Penalty_Neutral>  (388) 
8.96696e-05

>  <r_epik_State_Penalty>  (388) 
-0

>  <r_epik_Charging_Adjusted_Penalty>  (388) 
0

>  <i_epik_Tot_Q>  (388) 
0

>  <i_epik_Tot_abs_Q>  (388) 
0

>  <s_lp_Force_Field>  (388) 
OPLS3e

>  <r_lp_Energy>  (388) 
26.6131

>  <b_lp_Chiralities_Consistent>  (388) 
1

>  <s_lp_Variant>  (388) 
107:0-1

>  <s_i_glide_gridfile>  (388) 
pfpi4k_grid

>  <i_i_glide_lignum>  (388) 
25

>  <i_i_glide_rotatable_bonds>  (388) 
1

>  <r_i_docking_score>  (388) 
-3.48629

>  <r_i_glide_ligand_efficiency>  (388) 
-0.193683

>  <r_i_glide_ligand_efficiency_sa>  (388) 
-0.507592

>  <r_i_glide_ligand_efficiency_ln>  (388) 
-0.896133

>  <r_i_glide_gscore>  (388) 
-3.48629

>  <r_i_glide_lipo>  (388) 
-0.114408

>  <r_i_glide_hbond>  (388) 
-0.16

>  <r_i_glide_metal>  (388) 
-0

>  <r_i_glide_rewards>  (388) 
-1.77769

>  <r_i_glide_evdw>  (388) 
-20.3381

>  <r_i_glide_ecoul>  (388) 
-4.14515

>  <r_i_glide_erotb>  (388) 
0.301804

>  <r_i_glide_esite>  (388) 
-0.0973186

>  <r_i_glide_emodel>  (388) 
-30.2202

>  <r_i_glide_energy>  (388) 
-24.4833

>  <r_i_glide_einternal>  (388) 
0.135763

>  <r_i_glide_intrahb_reward>  (388) 
-0

>  <i_i_glide_confnum>  (388) 
2

>  <i_i_glide_posenum>  (388) 
33

>  <r_i_glide_eff_state_penalty>  (388) 
0

>  <ligand_id>  (388) 
107

>  <original_smiles>  (388) 
Cn1cc(-c2ccn3c2C(=O)C2C=CC3C2)cn1

>  <smiles>  (388) 
[H]C1=C([H])C2([H])n3c([H])c([H])c(-c4c([H])nn(C([H])([H])[H])c4[H])c3C(=O)C1([H])C2([H])[H]

$$$$
108:0:0
     RDKit          3D

 38 41  0  0  1  0  0  0  0  0999 V2000
    8.2144   -6.2683    3.0674 N   0  0  0  0  0  0  0  0  0  0  0  0
    7.7393   -5.9046    2.0789 C   0  0  0  0  0  0  0  0  0  0  0  0
    7.1268   -5.4414    0.8190 C   0  0  2  0  0  0  0  0  0  0  0  0
    7.8513   -4.1979    0.3079 C   0  0  0  0  0  0  0  0  0  0  0  0
    9.0159   -3.8660    0.6532 N   0  0  0  0  0  0  0  0  0  0  0  0
    7.2174   -3.4312   -0.6350 O   0  0  0  0  0  0  0  0  0  0  0  0
    5.8508   -3.3834   -0.7341 C   0  0  0  0  0  0  0  0  0  0  0  0
    5.3365   -2.2527   -1.2491 C   0  0  0  0  0  0  0  0  0  0  0  0
    3.8614   -1.9852   -1.4442 C   0  0  1  0  0  0  0  0  0  0  0  0
    3.6444   -1.2449   -2.7266 C   0  0  0  0  0  0  0  0  0  0  0  0
    2.9884   -1.5375   -3.8906 C   0  0  0  0  0  0  0  0  0  0  0  0
    3.0930   -0.3874   -4.7192 C   0  0  0  0  0  0  0  0  0  0  0  0
    3.8195    0.5172   -4.0056 C   0  0  0  0  0  0  0  0  0  0  0  0
    4.2187   -0.0117   -2.8205 O   0  0  0  0  0  0  0  0  0  0  0  0
    3.0276   -3.2772   -1.3207 C   0  0  0  0  0  0  0  0  0  0  0  0
    3.5395   -4.1778   -0.1967 C   0  0  0  0  0  0  0  0  0  0  0  0
    2.7894   -4.5603    0.6980 O   0  0  0  0  0  0  0  0  0  0  0  0
    5.0225   -4.5989   -0.3027 C   0  0  2  0  0  0  0  0  0  0  0  0
    5.6091   -5.2533    0.9682 C   0  0  1  0  0  0  0  0  0  0  0  0
    4.9493   -6.5476    1.3653 C   0  0  0  0  0  0  0  0  0  0  0  0
    4.5355   -7.5850    0.5642 C   0  0  0  0  0  0  0  0  0  0  0  0
    3.9389   -8.6554    1.2882 C   0  0  0  0  0  0  0  0  0  0  0  0
    3.9034   -8.4292    2.6399 C   0  0  0  0  0  0  0  0  0  0  0  0
    4.5895   -6.8822    3.0409 S   0  0  0  0  0  0  0  0  0  0  0  0
    7.3127   -6.2347    0.0947 H   0  0  0  0  0  0  0  0  0  0  0  0
    9.3175   -3.0228    0.1823 H   0  0  0  0  0  0  0  0  0  0  0  0
    5.9922   -1.4403   -1.5122 H   0  0  0  0  0  0  0  0  0  0  0  0
    3.5667   -1.3272   -0.6274 H   0  0  0  0  0  0  0  0  0  0  0  0
    2.4595   -2.4552   -4.0959 H   0  0  0  0  0  0  0  0  0  0  0  0
    2.6796   -0.2280   -5.7060 H   0  0  0  0  0  0  0  0  0  0  0  0
    4.1482    1.5268   -4.1986 H   0  0  0  0  0  0  0  0  0  0  0  0
    1.9698   -3.0515   -1.1764 H   0  0  0  0  0  0  0  0  0  0  0  0
    3.1080   -3.8520   -2.2430 H   0  0  0  0  0  0  0  0  0  0  0  0
    5.0795   -5.3197   -1.1189 H   0  0  0  0  0  0  0  0  0  0  0  0
    5.4595   -4.5495    1.7850 H   0  0  0  0  0  0  0  0  0  0  0  0
    4.6137   -7.6062   -0.5126 H   0  0  0  0  0  0  0  0  0  0  0  0
    3.5560   -9.5422    0.8055 H   0  0  0  0  0  0  0  0  0  0  0  0
    3.5119   -9.0772    3.4135 H   0  0  0  0  0  0  0  0  0  0  0  0
  1  2  3  0
  2  3  1  0
  3 19  1  0
  3  4  1  0
  3 25  1  6
  4  5  2  3
  4  6  1  0
  5 26  1  0
  6  7  1  0
  7 18  1  0
  7  8  2  0
  8  9  1  0
  8 27  1  0
  9 10  1  0
  9 15  1  0
  9 28  1  1
 10 14  1  0
 10 11  2  0
 11 12  1  0
 11 29  1  0
 12 13  2  0
 12 30  1  0
 13 14  1  0
 13 31  1  0
 15 16  1  0
 15 32  1  0
 15 33  1  0
 16 17  2  0
 16 18  1  0
 18 19  1  0
 18 34  1  6
 19 20  1  0
 19 35  1  1
 20 24  1  0
 20 21  2  0
 21 22  1  0
 21 36  1  0
 22 23  2  0
 22 37  1  0
 23 24  1  0
 23 38  1  0
M  END
>  <i_m_ct_stereo_status>  (389) 
1

>  <s_m_source_file>  (389) 
/var/tmp/pbs.5076255.sched01/tmp2gi29psn/132an720x3a.sdf

>  <i_m_source_file_index>  (389) 
26

>  <i_lp_mmshare_version>  (389) 
48012

>  <i_f3d_flags>  (389) 
0

>  <s_epik_input>  (389) 
czFbY0hdW2NIXVtjSF1jMVtDQEBIXShbQ0BIXShDI04pL0MoTzIpPU4vW0hdKVtDQEhdKEMyPTMpQyg9TylbQ0gyXVtDQEBIXShbQ0hdMyljNFtjSF1bY0hdW2NIXW80

>  <s_epik_cmdline>  (389) 
J2VwaWtfcHl0aG9uJywgJy1waHQnLCAnMi4wJywgJy1waCcsICc3LjAnLCAnLXRuJywgJzgnLCAnLW1hJywgJzIwMCcsICctaW1hZScsICc8aW5maWxlLm1hZT4nLCAnLW9tYWUnLCAnPG91dGZpbGUubWFlPic=

>  <r_lp_tautomer_probability>  (389) 
0.99995

>  <r_epik_Ionization_Penalty>  (389) 
0.0342816

>  <r_epik_Ionization_Penalty_Charging>  (389) 
0

>  <r_epik_Ionization_Penalty_Neutral>  (389) 
0.0342816

>  <r_epik_State_Penalty>  (389) 
0.659488

>  <r_epik_Charging_Adjusted_Penalty>  (389) 
0.659488

>  <i_epik_Tot_Q>  (389) 
0

>  <i_epik_Tot_abs_Q>  (389) 
0

>  <s_epik_Chemistry_Notes>  (389) 
This compound has an imine and may undergo hydrolysis.

>  <s_lp_Force_Field>  (389) 
OPLS3e

>  <r_lp_Energy>  (389) 
10.2856

>  <b_lp_Chiralities_Consistent>  (389) 
1

>  <s_lp_Variant>  (389) 
108:0-1

>  <s_i_glide_gridfile>  (389) 
pfpi4k_grid

>  <i_i_glide_lignum>  (389) 
26

>  <i_i_glide_rotatable_bonds>  (389) 
3

>  <r_i_docking_score>  (389) 
-3.86179

>  <r_i_glide_ligand_efficiency>  (389) 
-0.160908

>  <r_i_glide_ligand_efficiency_sa>  (389) 
-0.464139

>  <r_i_glide_ligand_efficiency_ln>  (389) 
-0.924304

>  <r_i_glide_gscore>  (389) 
-3.86179

>  <r_i_glide_lipo>  (389) 
-0.960239

>  <r_i_glide_hbond>  (389) 
-0.0315577

>  <r_i_glide_metal>  (389) 
-0

>  <r_i_glide_rewards>  (389) 
-1.33921

>  <r_i_glide_evdw>  (389) 
-31.4851

>  <r_i_glide_ecoul>  (389) 
-1.78202

>  <r_i_glide_erotb>  (389) 
0.330322

>  <r_i_glide_esite>  (389) 
-0.0195501

>  <r_i_glide_emodel>  (389) 
-39.5189

>  <r_i_glide_energy>  (389) 
-33.2672

>  <r_i_glide_einternal>  (389) 
3.43165

>  <r_i_glide_intrahb_reward>  (389) 
-0

>  <i_i_glide_confnum>  (389) 
5

>  <i_i_glide_posenum>  (389) 
10

>  <r_i_glide_eff_state_penalty>  (389) 
0

>  <ligand_id>  (389) 
108

>  <original_smiles>  (389) 
N#CC1C(=N)OC2=CC(c3ccco3)CC(=O)C2C1c1cccs1

>  <smiles>  (389) 
[H]N=C1OC2=C([H])C([H])(c3oc([H])c([H])c3[H])C([H])([H])C(=O)C2([H])C([H])(c2sc([H])c([H])c2[H])C1([H])C#N

$$$$
108:0:1
     RDKit          3D

 38 41  0  0  1  0  0  0  0  0999 V2000
   -0.1788    6.1165    5.2629 N   0  0  0  0  0  0  0  0  0  0  0  0
    0.4409    5.1497    5.1163 C   0  0  0  0  0  0  0  0  0  0  0  0
    1.2270    3.9197    4.9447 C   0  0  2  0  0  0  0  0  0  0  0  0
    2.2992    4.1130    3.8751 C   0  0  0  0  0  0  0  0  0  0  0  0
    2.7167    5.2406    3.4935 N   0  0  0  0  0  0  0  0  0  0  0  0
    2.8813    2.9904    3.3484 O   0  0  0  0  0  0  0  0  0  0  0  0
    2.2288    1.7805    3.3145 C   0  0  0  0  0  0  0  0  0  0  0  0
    2.6028    0.9256    2.3438 C   0  0  0  0  0  0  0  0  0  0  0  0
    2.0114   -0.4481    2.1264 C   0  0  1  0  0  0  0  0  0  0  0  0
    3.0681   -1.4196    1.7056 C   0  0  0  0  0  0  0  0  0  0  0  0
    3.2735   -2.1713    0.5819 C   0  0  0  0  0  0  0  0  0  0  0  0
    4.4927   -2.8810    0.7880 C   0  0  0  0  0  0  0  0  0  0  0  0
    4.9397   -2.5058    2.0212 C   0  0  0  0  0  0  0  0  0  0  0  0
    4.0841   -1.6186    2.5944 O   0  0  0  0  0  0  0  0  0  0  0  0
    1.1983   -0.9250    3.3470 C   0  0  0  0  0  0  0  0  0  0  0  0
    0.3729    0.2114    3.9582 C   0  0  0  0  0  0  0  0  0  0  0  0
   -0.8426    0.0961    4.1055 O   0  0  0  0  0  0  0  0  0  0  0  0
    1.1693    1.4676    4.3829 C   0  0  2  0  0  0  0  0  0  0  0  0
    0.3103    2.7047    4.7109 C   0  0  1  0  0  0  0  0  0  0  0  0
   -0.6168    2.5082    5.8809 C   0  0  0  0  0  0  0  0  0  0  0  0
   -1.9834    2.6406    5.8823 C   0  0  0  0  0  0  0  0  0  0  0  0
   -2.5764    2.3902    7.1518 C   0  0  0  0  0  0  0  0  0  0  0  0
   -1.6583    2.0714    8.1170 C   0  0  0  0  0  0  0  0  0  0  0  0
   -0.0384    2.0787    7.4715 S   0  0  0  0  0  0  0  0  0  0  0  0
    1.7667    3.7868    5.8861 H   0  0  0  0  0  0  0  0  0  0  0  0
    3.4295    5.1451    2.7815 H   0  0  0  0  0  0  0  0  0  0  0  0
    3.3602    1.2264    1.6341 H   0  0  0  0  0  0  0  0  0  0  0  0
    1.3249   -0.3274    1.2881 H   0  0  0  0  0  0  0  0  0  0  0  0
    2.6216   -2.1892   -0.2847 H   0  0  0  0  0  0  0  0  0  0  0  0
    4.9919   -3.5802    0.1278 H   0  0  0  0  0  0  0  0  0  0  0  0
    5.8023   -2.7613    2.6175 H   0  0  0  0  0  0  0  0  0  0  0  0
    0.5552   -1.7643    3.0799 H   0  0  0  0  0  0  0  0  0  0  0  0
    1.8797   -1.2759    4.1228 H   0  0  0  0  0  0  0  0  0  0  0  0
    1.7198    1.1900    5.2816 H   0  0  0  0  0  0  0  0  0  0  0  0
   -0.2971    2.9298    3.8303 H   0  0  0  0  0  0  0  0  0  0  0  0
   -2.5775    2.9054    5.0192 H   0  0  0  0  0  0  0  0  0  0  0  0
   -3.6461    2.4624    7.3140 H   0  0  0  0  0  0  0  0  0  0  0  0
   -1.8262    1.8549    9.1645 H   0  0  0  0  0  0  0  0  0  0  0  0
  1  2  3  0
  2  3  1  0
  3 19  1  0
  3  4  1  0
  3 25  1  1
  4  5  2  3
  4  6  1  0
  5 26  1  0
  6  7  1  0
  7 18  1  0
  7  8  2  0
  8  9  1  0
  8 27  1  0
  9 10  1  0
  9 15  1  0
  9 28  1  6
 10 14  1  0
 10 11  2  0
 11 12  1  0
 11 29  1  0
 12 13  2  0
 12 30  1  0
 13 14  1  0
 13 31  1  0
 15 16  1  0
 15 32  1  0
 15 33  1  0
 16 17  2  0
 16 18  1  0
 18 19  1  0
 18 34  1  1
 19 20  1  0
 19 35  1  6
 20 24  1  0
 20 21  2  0
 21 22  1  0
 21 36  1  0
 22 23  2  0
 22 37  1  0
 23 24  1  0
 23 38  1  0
M  END
>  <i_m_ct_stereo_status>  (390) 
1

>  <s_m_source_file>  (390) 
/var/tmp/pbs.5076255.sched01/tmp2gi29psn/132an720x3a.sdf

>  <i_m_source_file_index>  (390) 
26

>  <i_lp_mmshare_version>  (390) 
48012

>  <i_f3d_flags>  (390) 
0

>  <s_epik_input>  (390) 
czFbY0hdW2NIXVtjSF1jMVtDQEBIXShbQ0BIXShDI04pL0MoTzIpPU4vW0hdKVtDQEhdKEMyPTMpQyg9TylbQ0gyXVtDQEBIXShbQ0hdMyljNFtjSF1bY0hdW2NIXW80

>  <s_epik_cmdline>  (390) 
J2VwaWtfcHl0aG9uJywgJy1waHQnLCAnMi4wJywgJy1waCcsICc3LjAnLCAnLXRuJywgJzgnLCAnLW1hJywgJzIwMCcsICctaW1hZScsICc8aW5maWxlLm1hZT4nLCAnLW9tYWUnLCAnPG91dGZpbGUubWFlPic=

>  <r_lp_tautomer_probability>  (390) 
0.99995

>  <r_epik_Ionization_Penalty>  (390) 
0.0342816

>  <r_epik_Ionization_Penalty_Charging>  (390) 
0

>  <r_epik_Ionization_Penalty_Neutral>  (390) 
0.0342816

>  <r_epik_State_Penalty>  (390) 
0.659488

>  <r_epik_Charging_Adjusted_Penalty>  (390) 
0.659488

>  <i_epik_Tot_Q>  (390) 
0

>  <i_epik_Tot_abs_Q>  (390) 
0

>  <s_epik_Chemistry_Notes>  (390) 
This compound has an imine and may undergo hydrolysis.

>  <s_lp_Force_Field>  (390) 
OPLS3e

>  <r_lp_Energy>  (390) 
10.2856

>  <b_lp_Chiralities_Consistent>  (390) 
1

>  <s_lp_Variant>  (390) 
108:0-1

>  <s_i_glide_gridfile>  (390) 
pfpi4k_grid

>  <i_i_glide_lignum>  (390) 
26

>  <i_i_glide_rotatable_bonds>  (390) 
3

>  <r_i_docking_score>  (390) 
-2.78045

>  <r_i_glide_ligand_efficiency>  (390) 
-0.115852

>  <r_i_glide_ligand_efficiency_sa>  (390) 
-0.334176

>  <r_i_glide_ligand_efficiency_ln>  (390) 
-0.66549

>  <r_i_glide_gscore>  (390) 
-2.78045

>  <r_i_glide_lipo>  (390) 
-0.224616

>  <r_i_glide_hbond>  (390) 
-0.00464994

>  <r_i_glide_metal>  (390) 
-0

>  <r_i_glide_rewards>  (390) 
-1.10195

>  <r_i_glide_evdw>  (390) 
-23.5384

>  <r_i_glide_ecoul>  (390) 
-3.58821

>  <r_i_glide_erotb>  (390) 
0.330322

>  <r_i_glide_esite>  (390) 
-0.0644137

>  <r_i_glide_emodel>  (390) 
-32.4009

>  <r_i_glide_energy>  (390) 
-27.1266

>  <r_i_glide_einternal>  (390) 
0.922353

>  <r_i_glide_intrahb_reward>  (390) 
-0

>  <i_i_glide_confnum>  (390) 
4

>  <i_i_glide_posenum>  (390) 
2

>  <r_i_glide_eff_state_penalty>  (390) 
0

>  <ligand_id>  (390) 
108

>  <original_smiles>  (390) 
N#CC1C(=N)OC2=CC(c3ccco3)CC(=O)C2C1c1cccs1

>  <smiles>  (390) 
[H]N=C1OC2=C([H])C([H])(c3oc([H])c([H])c3[H])C([H])([H])C(=O)C2([H])C([H])(c2sc([H])c([H])c2[H])C1([H])C#N

$$$$
108:0:2
     RDKit          3D

 38 41  0  0  1  0  0  0  0  0999 V2000
    3.6494  -10.8151    4.2416 N   0  0  0  0  0  0  0  0  0  0  0  0
    3.5638  -10.1003    3.3343 C   0  0  0  0  0  0  0  0  0  0  0  0
    3.4557   -9.1823    2.1848 C   0  0  2  0  0  0  0  0  0  0  0  0
    4.8427   -8.9614    1.5804 C   0  0  0  0  0  0  0  0  0  0  0  0
    5.8325   -9.7201    1.7715 N   0  0  0  0  0  0  0  0  0  0  0  0
    5.0044   -7.8846    0.7479 O   0  0  0  0  0  0  0  0  0  0  0  0
    4.2420   -6.7472    0.8663 C   0  0  0  0  0  0  0  0  0  0  0  0
    4.8083   -5.6059    0.4378 C   0  0  0  0  0  0  0  0  0  0  0  0
    4.1394   -4.2455    0.4672 C   0  0  1  0  0  0  0  0  0  0  0  0
    4.4870   -3.4338   -0.7458 C   0  0  0  0  0  0  0  0  0  0  0  0
    3.7748   -2.6078   -1.5760 C   0  0  0  0  0  0  0  0  0  0  0  0
    4.6868   -2.1476   -2.5676 C   0  0  0  0  0  0  0  0  0  0  0  0
    5.8911   -2.7180   -2.2658 C   0  0  0  0  0  0  0  0  0  0  0  0
    5.7932   -3.4770   -1.1443 O   0  0  0  0  0  0  0  0  0  0  0  0
    2.6210   -4.3623    0.7142 C   0  0  0  0  0  0  0  0  0  0  0  0
    2.2910   -5.4424    1.7477 C   0  0  0  0  0  0  0  0  0  0  0  0
    1.6030   -5.1857    2.7329 O   0  0  0  0  0  0  0  0  0  0  0  0
    2.8168   -6.8555    1.4230 C   0  0  2  0  0  0  0  0  0  0  0  0
    2.7387   -7.8748    2.5788 C   0  0  1  0  0  0  0  0  0  0  0  0
    1.3399   -8.1495    3.0654 C   0  0  0  0  0  0  0  0  0  0  0  0
    0.1796   -8.2465    2.3406 C   0  0  0  0  0  0  0  0  0  0  0  0
   -0.9670   -8.5235    3.1385 C   0  0  0  0  0  0  0  0  0  0  0  0
   -0.6674   -8.6416    4.4669 C   0  0  0  0  0  0  0  0  0  0  0  0
    1.0272   -8.3849    4.7666 S   0  0  0  0  0  0  0  0  0  0  0  0
    2.8598   -9.7087    1.4340 H   0  0  0  0  0  0  0  0  0  0  0  0
    6.6476   -9.4084    1.2623 H   0  0  0  0  0  0  0  0  0  0  0  0
    5.8279   -5.6305    0.0775 H   0  0  0  0  0  0  0  0  0  0  0  0
    4.5677   -3.7280    1.3242 H   0  0  0  0  0  0  0  0  0  0  0  0
    2.7231   -2.3739   -1.4825 H   0  0  0  0  0  0  0  0  0  0  0  0
    4.4929   -1.4865   -3.4003 H   0  0  0  0  0  0  0  0  0  0  0  0
    6.8737   -2.6894   -2.7159 H   0  0  0  0  0  0  0  0  0  0  0  0
    2.2121   -3.3993    1.0200 H   0  0  0  0  0  0  0  0  0  0  0  0
    2.1309   -4.6440   -0.2193 H   0  0  0  0  0  0  0  0  0  0  0  0
    2.1813   -7.2055    0.6135 H   0  0  0  0  0  0  0  0  0  0  0  0
    3.2916   -7.4444    3.4142 H   0  0  0  0  0  0  0  0  0  0  0  0
    0.1054   -8.1434    1.2710 H   0  0  0  0  0  0  0  0  0  0  0  0
   -1.9531   -8.6535    2.7159 H   0  0  0  0  0  0  0  0  0  0  0  0
   -1.3354   -8.9078    5.2776 H   0  0  0  0  0  0  0  0  0  0  0  0
  1  2  3  0
  2  3  1  0
  3 19  1  0
  3  4  1  0
  3 25  1  6
  4  5  2  3
  4  6  1  0
  5 26  1  0
  6  7  1  0
  7 18  1  0
  7  8  2  0
  8  9  1  0
  8 27  1  0
  9 10  1  0
  9 15  1  0
  9 28  1  1
 10 14  1  0
 10 11  2  0
 11 12  1  0
 11 29  1  0
 12 13  2  0
 12 30  1  0
 13 14  1  0
 13 31  1  0
 15 16  1  0
 15 32  1  0
 15 33  1  0
 16 17  2  0
 16 18  1  0
 18 19  1  0
 18 34  1  6
 19 20  1  0
 19 35  1  1
 20 24  1  0
 20 21  2  0
 21 22  1  0
 21 36  1  0
 22 23  2  0
 22 37  1  0
 23 24  1  0
 23 38  1  0
M  END
>  <i_m_ct_stereo_status>  (391) 
1

>  <s_m_source_file>  (391) 
/var/tmp/pbs.5076255.sched01/tmp2gi29psn/132an720x3a.sdf

>  <i_m_source_file_index>  (391) 
26

>  <i_lp_mmshare_version>  (391) 
48012

>  <i_f3d_flags>  (391) 
0

>  <s_epik_input>  (391) 
czFbY0hdW2NIXVtjSF1jMVtDQEBIXShbQ0BIXShDI04pL0MoTzIpPU4vW0hdKVtDQEhdKEMyPTMpQyg9TylbQ0gyXVtDQEBIXShbQ0hdMyljNFtjSF1bY0hdW2NIXW80

>  <s_epik_cmdline>  (391) 
J2VwaWtfcHl0aG9uJywgJy1waHQnLCAnMi4wJywgJy1waCcsICc3LjAnLCAnLXRuJywgJzgnLCAnLW1hJywgJzIwMCcsICctaW1hZScsICc8aW5maWxlLm1hZT4nLCAnLW9tYWUnLCAnPG91dGZpbGUubWFlPic=

>  <r_lp_tautomer_probability>  (391) 
0.99995

>  <r_epik_Ionization_Penalty>  (391) 
0.0342816

>  <r_epik_Ionization_Penalty_Charging>  (391) 
0

>  <r_epik_Ionization_Penalty_Neutral>  (391) 
0.0342816

>  <r_epik_State_Penalty>  (391) 
0.659488

>  <r_epik_Charging_Adjusted_Penalty>  (391) 
0.659488

>  <i_epik_Tot_Q>  (391) 
0

>  <i_epik_Tot_abs_Q>  (391) 
0

>  <s_epik_Chemistry_Notes>  (391) 
This compound has an imine and may undergo hydrolysis.

>  <s_lp_Force_Field>  (391) 
OPLS3e

>  <r_lp_Energy>  (391) 
10.2856

>  <b_lp_Chiralities_Consistent>  (391) 
1

>  <s_lp_Variant>  (391) 
108:0-1

>  <s_i_glide_gridfile>  (391) 
pfpi4k_grid

>  <i_i_glide_lignum>  (391) 
26

>  <i_i_glide_rotatable_bonds>  (391) 
3

>  <r_i_docking_score>  (391) 
-2.76583

>  <r_i_glide_ligand_efficiency>  (391) 
-0.115243

>  <r_i_glide_ligand_efficiency_sa>  (391) 
-0.332418

>  <r_i_glide_ligand_efficiency_ln>  (391) 
-0.66199

>  <r_i_glide_gscore>  (391) 
-2.76583

>  <r_i_glide_lipo>  (391) 
-0.440235

>  <r_i_glide_hbond>  (391) 
0

>  <r_i_glide_metal>  (391) 
-0

>  <r_i_glide_rewards>  (391) 
-1.10195

>  <r_i_glide_evdw>  (391) 
-29.6564

>  <r_i_glide_ecoul>  (391) 
0.0229438

>  <r_i_glide_erotb>  (391) 
0.330322

>  <r_i_glide_esite>  (391) 
-0.0745915

>  <r_i_glide_emodel>  (391) 
-33.2656

>  <r_i_glide_energy>  (391) 
-29.6335

>  <r_i_glide_einternal>  (391) 
3.81754

>  <r_i_glide_intrahb_reward>  (391) 
-0

>  <i_i_glide_confnum>  (391) 
5

>  <i_i_glide_posenum>  (391) 
3

>  <r_i_glide_eff_state_penalty>  (391) 
0

>  <ligand_id>  (391) 
108

>  <original_smiles>  (391) 
N#CC1C(=N)OC2=CC(c3ccco3)CC(=O)C2C1c1cccs1

>  <smiles>  (391) 
[H]N=C1OC2=C([H])C([H])(c3oc([H])c([H])c3[H])C([H])([H])C(=O)C2([H])C([H])(c2sc([H])c([H])c2[H])C1([H])C#N

$$$$
108:1:0
     RDKit          3D

 38 41  0  0  1  0  0  0  0  0999 V2000
    8.0614   -6.6479    3.5574 N   0  0  0  0  0  0  0  0  0  0  0  0
    7.5853   -6.2859    2.5668 C   0  0  0  0  0  0  0  0  0  0  0  0
    6.9829   -5.8199    1.3070 C   0  0  2  0  0  0  0  0  0  0  0  0
    7.7884   -4.6457    0.7480 C   0  0  0  0  0  0  0  0  0  0  0  0
    8.9807   -4.3837    1.0833 N   0  0  0  0  0  0  0  0  0  0  0  0
    7.1847   -3.8623   -0.2060 O   0  0  0  0  0  0  0  0  0  0  0  0
    5.8150   -3.7454   -0.3029 C   0  0  0  0  0  0  0  0  0  0  0  0
    5.3507   -2.6081   -0.8506 C   0  0  0  0  0  0  0  0  0  0  0  0
    3.8859   -2.2662   -1.0242 C   0  0  1  0  0  0  0  0  0  0  0  0
    3.6635   -1.5653   -2.3232 C   0  0  0  0  0  0  0  0  0  0  0  0
    3.0112   -1.8903   -3.4814 C   0  0  0  0  0  0  0  0  0  0  0  0
    3.1490   -0.7712   -4.3463 C   0  0  0  0  0  0  0  0  0  0  0  0
    3.8694    0.1473   -3.6515 C   0  0  0  0  0  0  0  0  0  0  0  0
    4.2271   -0.3324   -2.4334 O   0  0  0  0  0  0  0  0  0  0  0  0
    2.9830   -3.4983   -0.8445 C   0  0  0  0  0  0  0  0  0  0  0  0
    3.4611   -4.3960    0.2950 C   0  0  0  0  0  0  0  0  0  0  0  0
    2.7026   -4.7003    1.2139 O   0  0  0  0  0  0  0  0  0  0  0  0
    4.9229   -4.8979    0.1890 C   0  0  2  0  0  0  0  0  0  0  0  0
    5.4798   -5.5387    1.4785 C   0  0  1  0  0  0  0  0  0  0  0  0
    4.7469   -6.7865    1.9067 C   0  0  0  0  0  0  0  0  0  0  0  0
    4.1194   -7.0164    3.1052 C   0  0  0  0  0  0  0  0  0  0  0  0
    3.5183   -8.3085    3.1941 C   0  0  0  0  0  0  0  0  0  0  0  0
    3.7007   -9.0598    2.0638 C   0  0  0  0  0  0  0  0  0  0  0  0
    4.6191   -8.1884    0.8728 S   0  0  0  0  0  0  0  0  0  0  0  0
    7.1147   -6.6386    0.5983 H   0  0  0  0  0  0  0  0  0  0  0  0
    9.3546   -4.9681    1.8206 H   0  0  0  0  0  0  0  0  0  0  0  0
    6.0482   -1.8427   -1.1584 H   0  0  0  0  0  0  0  0  0  0  0  0
    3.6456   -1.5611   -0.2280 H   0  0  0  0  0  0  0  0  0  0  0  0
    2.4773   -2.8110   -3.6684 H   0  0  0  0  0  0  0  0  0  0  0  0
    2.7714   -0.6241   -5.3481 H   0  0  0  0  0  0  0  0  0  0  0  0
    4.2057    1.1500   -3.8730 H   0  0  0  0  0  0  0  0  0  0  0  0
    1.9467   -3.1948   -0.6948 H   0  0  0  0  0  0  0  0  0  0  0  0
    3.0186   -4.0996   -1.7516 H   0  0  0  0  0  0  0  0  0  0  0  0
    4.9333   -5.6506   -0.5999 H   0  0  0  0  0  0  0  0  0  0  0  0
    5.3815   -4.8058    2.2821 H   0  0  0  0  0  0  0  0  0  0  0  0
    4.0669   -6.3097    3.9175 H   0  0  0  0  0  0  0  0  0  0  0  0
    2.9862   -8.6399    4.0733 H   0  0  0  0  0  0  0  0  0  0  0  0
    3.3701  -10.0713    1.8527 H   0  0  0  0  0  0  0  0  0  0  0  0
  1  2  3  0
  2  3  1  0
  3 19  1  0
  3  4  1  0
  3 25  1  6
  4  5  2  3
  4  6  1  0
  5 26  1  0
  6  7  1  0
  7 18  1  0
  7  8  2  0
  8  9  1  0
  8 27  1  0
  9 10  1  0
  9 15  1  0
  9 28  1  1
 10 14  1  0
 10 11  2  0
 11 12  1  0
 11 29  1  0
 12 13  2  0
 12 30  1  0
 13 14  1  0
 13 31  1  0
 15 16  1  0
 15 32  1  0
 15 33  1  0
 16 17  2  0
 16 18  1  0
 18 19  1  0
 18 34  1  6
 19 20  1  0
 19 35  1  1
 20 24  1  0
 20 21  2  0
 21 22  1  0
 21 36  1  0
 22 23  2  0
 22 37  1  0
 23 24  1  0
 23 38  1  0
M  END
>  <i_m_ct_stereo_status>  (392) 
1

>  <s_m_source_file>  (392) 
/var/tmp/pbs.5076255.sched01/tmp2gi29psn/132an720x3a.sdf

>  <i_m_source_file_index>  (392) 
27

>  <i_lp_mmshare_version>  (392) 
48012

>  <i_f3d_flags>  (392) 
0

>  <s_epik_input>  (392) 
czFbY0hdW2NIXVtjSF1jMVtDQEBIXShbQ0BIXShDI04pL0MoTzIpPU4vW0hdKVtDQEhdKEMyPTMpQyg9TylbQ0gyXVtDQEBIXShbQ0hdMyljNFtjSF1bY0hdW2NIXW80

>  <s_epik_cmdline>  (392) 
J2VwaWtfcHl0aG9uJywgJy1waHQnLCAnMi4wJywgJy1waCcsICc3LjAnLCAnLXRuJywgJzgnLCAnLW1hJywgJzIwMCcsICctaW1hZScsICc8aW5maWxlLm1hZT4nLCAnLW9tYWUnLCAnPG91dGZpbGUubWFlPic=

>  <r_lp_tautomer_probability>  (392) 
0.99995

>  <r_epik_Ionization_Penalty>  (392) 
0.0342816

>  <r_epik_Ionization_Penalty_Charging>  (392) 
0

>  <r_epik_Ionization_Penalty_Neutral>  (392) 
0.0342816

>  <r_epik_State_Penalty>  (392) 
0.659488

>  <r_epik_Charging_Adjusted_Penalty>  (392) 
0.659488

>  <i_epik_Tot_Q>  (392) 
0

>  <i_epik_Tot_abs_Q>  (392) 
0

>  <s_epik_Chemistry_Notes>  (392) 
This compound has an imine and may undergo hydrolysis.

>  <s_lp_Force_Field>  (392) 
OPLS3e

>  <r_lp_Energy>  (392) 
10.0935

>  <b_lp_Chiralities_Consistent>  (392) 
1

>  <s_lp_Variant>  (392) 
108:0-2

>  <s_i_glide_gridfile>  (392) 
pfpi4k_grid

>  <i_i_glide_lignum>  (392) 
27

>  <i_i_glide_rotatable_bonds>  (392) 
3

>  <r_i_docking_score>  (392) 
-3.70658

>  <r_i_glide_ligand_efficiency>  (392) 
-0.154441

>  <r_i_glide_ligand_efficiency_sa>  (392) 
-0.445484

>  <r_i_glide_ligand_efficiency_ln>  (392) 
-0.887154

>  <r_i_glide_gscore>  (392) 
-3.70658

>  <r_i_glide_lipo>  (392) 
-0.695749

>  <r_i_glide_hbond>  (392) 
0

>  <r_i_glide_metal>  (392) 
-0

>  <r_i_glide_rewards>  (392) 
-1.30196

>  <r_i_glide_evdw>  (392) 
-31.2441

>  <r_i_glide_ecoul>  (392) 
-3.0934

>  <r_i_glide_erotb>  (392) 
0.330322

>  <r_i_glide_esite>  (392) 
-0.0129746

>  <r_i_glide_emodel>  (392) 
-41.7404

>  <r_i_glide_energy>  (392) 
-34.3375

>  <r_i_glide_einternal>  (392) 
1.08256

>  <r_i_glide_intrahb_reward>  (392) 
-0

>  <i_i_glide_confnum>  (392) 
5

>  <i_i_glide_posenum>  (392) 
34

>  <r_i_glide_eff_state_penalty>  (392) 
0

>  <ligand_id>  (392) 
108

>  <original_smiles>  (392) 
N#CC1C(=N)OC2=CC(c3ccco3)CC(=O)C2C1c1cccs1

>  <smiles>  (392) 
[H]N=C1OC2=C([H])C([H])(c3oc([H])c([H])c3[H])C([H])([H])C(=O)C2([H])C([H])(c2sc([H])c([H])c2[H])C1([H])C#N

$$$$
108:1:1
     RDKit          3D

 38 41  0  0  1  0  0  0  0  0999 V2000
    7.9610   -6.6663    3.5131 N   0  0  0  0  0  0  0  0  0  0  0  0
    7.5239   -6.3007    2.5057 C   0  0  0  0  0  0  0  0  0  0  0  0
    6.9700   -5.8307    1.2244 C   0  0  2  0  0  0  0  0  0  0  0  0
    7.7785   -4.6379    0.7114 C   0  0  0  0  0  0  0  0  0  0  0  0
    8.9526   -4.3644    1.0958 N   0  0  0  0  0  0  0  0  0  0  0  0
    7.2003   -3.8514   -0.2557 O   0  0  0  0  0  0  0  0  0  0  0  0
    5.8347   -3.7487   -0.4070 C   0  0  0  0  0  0  0  0  0  0  0  0
    5.3807   -2.6077   -0.9590 C   0  0  0  0  0  0  0  0  0  0  0  0
    3.9200   -2.2745   -1.1856 C   0  0  1  0  0  0  0  0  0  0  0  0
    3.7390   -1.5597   -2.4848 C   0  0  0  0  0  0  0  0  0  0  0  0
    3.1938   -1.9000   -3.6948 C   0  0  0  0  0  0  0  0  0  0  0  0
    3.3283   -0.7580   -4.5327 C   0  0  0  0  0  0  0  0  0  0  0  0
    3.9143    0.1970   -3.7641 C   0  0  0  0  0  0  0  0  0  0  0  0
    4.2149   -0.2858   -2.5327 O   0  0  0  0  0  0  0  0  0  0  0  0
    3.0246   -3.5170   -1.0524 C   0  0  0  0  0  0  0  0  0  0  0  0
    3.4672   -4.4292    0.0910 C   0  0  0  0  0  0  0  0  0  0  0  0
    2.6748   -4.7581    0.9718 O   0  0  0  0  0  0  0  0  0  0  0  0
    4.9367   -4.9180    0.0317 C   0  0  2  0  0  0  0  0  0  0  0  0
    5.4578   -5.5725    1.3286 C   0  0  1  0  0  0  0  0  0  0  0  0
    4.7260   -6.8272    1.7285 C   0  0  0  0  0  0  0  0  0  0  0  0
    4.5879   -8.0016    1.0332 C   0  0  0  0  0  0  0  0  0  0  0  0
    3.8225   -8.9850    1.7290 C   0  0  0  0  0  0  0  0  0  0  0  0
    3.3920   -8.5543    2.9541 C   0  0  0  0  0  0  0  0  0  0  0  0
    3.9249   -6.9276    3.2772 S   0  0  0  0  0  0  0  0  0  0  0  0
    7.1419   -6.6424    0.5151 H   0  0  0  0  0  0  0  0  0  0  0  0
    9.3047   -4.9545    1.8395 H   0  0  0  0  0  0  0  0  0  0  0  0
    6.0835   -1.8341   -1.2289 H   0  0  0  0  0  0  0  0  0  0  0  0
    3.6413   -1.5839   -0.3888 H   0  0  0  0  0  0  0  0  0  0  0  0
    2.7489   -2.8549   -3.9385 H   0  0  0  0  0  0  0  0  0  0  0  0
    3.0161   -0.6263   -5.5581 H   0  0  0  0  0  0  0  0  0  0  0  0
    4.1978    1.2260   -3.9382 H   0  0  0  0  0  0  0  0  0  0  0  0
    1.9778   -3.2326   -0.9447 H   0  0  0  0  0  0  0  0  0  0  0  0
    3.1092   -4.1062   -1.9627 H   0  0  0  0  0  0  0  0  0  0  0  0
    4.9829   -5.6625   -0.7654 H   0  0  0  0  0  0  0  0  0  0  0  0
    5.3207   -4.8470    2.1309 H   0  0  0  0  0  0  0  0  0  0  0  0
    4.9985   -8.1979    0.0558 H   0  0  0  0  0  0  0  0  0  0  0  0
    3.6209   -9.9626    1.3125 H   0  0  0  0  0  0  0  0  0  0  0  0
    2.8029   -9.0940    3.6852 H   0  0  0  0  0  0  0  0  0  0  0  0
  1  2  3  0
  2  3  1  0
  3 19  1  0
  3  4  1  0
  3 25  1  6
  4  5  2  3
  4  6  1  0
  5 26  1  0
  6  7  1  0
  7 18  1  0
  7  8  2  0
  8  9  1  0
  8 27  1  0
  9 10  1  0
  9 15  1  0
  9 28  1  1
 10 14  1  0
 10 11  2  0
 11 12  1  0
 11 29  1  0
 12 13  2  0
 12 30  1  0
 13 14  1  0
 13 31  1  0
 15 16  1  0
 15 32  1  0
 15 33  1  0
 16 17  2  0
 16 18  1  0
 18 19  1  0
 18 34  1  6
 19 20  1  0
 19 35  1  1
 20 24  1  0
 20 21  2  0
 21 22  1  0
 21 36  1  0
 22 23  2  0
 22 37  1  0
 23 24  1  0
 23 38  1  0
M  END
>  <i_m_ct_stereo_status>  (393) 
1

>  <s_m_source_file>  (393) 
/var/tmp/pbs.5076255.sched01/tmp2gi29psn/132an720x3a.sdf

>  <i_m_source_file_index>  (393) 
27

>  <i_lp_mmshare_version>  (393) 
48012

>  <i_f3d_flags>  (393) 
0

>  <s_epik_input>  (393) 
czFbY0hdW2NIXVtjSF1jMVtDQEBIXShbQ0BIXShDI04pL0MoTzIpPU4vW0hdKVtDQEhdKEMyPTMpQyg9TylbQ0gyXVtDQEBIXShbQ0hdMyljNFtjSF1bY0hdW2NIXW80

>  <s_epik_cmdline>  (393) 
J2VwaWtfcHl0aG9uJywgJy1waHQnLCAnMi4wJywgJy1waCcsICc3LjAnLCAnLXRuJywgJzgnLCAnLW1hJywgJzIwMCcsICctaW1hZScsICc8aW5maWxlLm1hZT4nLCAnLW9tYWUnLCAnPG91dGZpbGUubWFlPic=

>  <r_lp_tautomer_probability>  (393) 
0.99995

>  <r_epik_Ionization_Penalty>  (393) 
0.0342816

>  <r_epik_Ionization_Penalty_Charging>  (393) 
0

>  <r_epik_Ionization_Penalty_Neutral>  (393) 
0.0342816

>  <r_epik_State_Penalty>  (393) 
0.659488

>  <r_epik_Charging_Adjusted_Penalty>  (393) 
0.659488

>  <i_epik_Tot_Q>  (393) 
0

>  <i_epik_Tot_abs_Q>  (393) 
0

>  <s_epik_Chemistry_Notes>  (393) 
This compound has an imine and may undergo hydrolysis.

>  <s_lp_Force_Field>  (393) 
OPLS3e

>  <r_lp_Energy>  (393) 
10.0935

>  <b_lp_Chiralities_Consistent>  (393) 
1

>  <s_lp_Variant>  (393) 
108:0-2

>  <s_i_glide_gridfile>  (393) 
pfpi4k_grid

>  <i_i_glide_lignum>  (393) 
27

>  <i_i_glide_rotatable_bonds>  (393) 
3

>  <r_i_docking_score>  (393) 
-3.66233

>  <r_i_glide_ligand_efficiency>  (393) 
-0.152597

>  <r_i_glide_ligand_efficiency_sa>  (393) 
-0.440166

>  <r_i_glide_ligand_efficiency_ln>  (393) 
-0.876563

>  <r_i_glide_gscore>  (393) 
-3.66233

>  <r_i_glide_lipo>  (393) 
-0.753712

>  <r_i_glide_hbond>  (393) 
0

>  <r_i_glide_metal>  (393) 
-0

>  <r_i_glide_rewards>  (393) 
-1.3038

>  <r_i_glide_evdw>  (393) 
-29.9354

>  <r_i_glide_ecoul>  (393) 
-2.7849

>  <r_i_glide_erotb>  (393) 
0.330322

>  <r_i_glide_esite>  (393) 
-0.02063

>  <r_i_glide_emodel>  (393) 
-38.8656

>  <r_i_glide_energy>  (393) 
-32.7203

>  <r_i_glide_einternal>  (393) 
3.377

>  <r_i_glide_intrahb_reward>  (393) 
-0

>  <i_i_glide_confnum>  (393) 
5

>  <i_i_glide_posenum>  (393) 
15

>  <r_i_glide_eff_state_penalty>  (393) 
0

>  <ligand_id>  (393) 
108

>  <original_smiles>  (393) 
N#CC1C(=N)OC2=CC(c3ccco3)CC(=O)C2C1c1cccs1

>  <smiles>  (393) 
[H]N=C1OC2=C([H])C([H])(c3oc([H])c([H])c3[H])C([H])([H])C(=O)C2([H])C([H])(c2sc([H])c([H])c2[H])C1([H])C#N

$$$$
108:1:2
     RDKit          3D

 38 41  0  0  1  0  0  0  0  0999 V2000
    3.2235  -11.0699    3.7686 N   0  0  0  0  0  0  0  0  0  0  0  0
    3.2111  -10.2615    2.9394 C   0  0  0  0  0  0  0  0  0  0  0  0
    3.1997   -9.2275    1.8898 C   0  0  2  0  0  0  0  0  0  0  0  0
    4.6189   -9.0379    1.3517 C   0  0  0  0  0  0  0  0  0  0  0  0
    5.5663   -9.8578    1.5050 N   0  0  0  0  0  0  0  0  0  0  0  0
    4.8542   -7.9132    0.6071 O   0  0  0  0  0  0  0  0  0  0  0  0
    4.1807   -6.7420    0.8337 C   0  0  0  0  0  0  0  0  0  0  0  0
    4.8363   -5.6092    0.5290 C   0  0  0  0  0  0  0  0  0  0  0  0
    4.2646   -4.2124    0.6820 C   0  0  1  0  0  0  0  0  0  0  0  0
    4.6958   -3.3154   -0.4410 C   0  0  0  0  0  0  0  0  0  0  0  0
    4.0881   -2.3074   -1.1401 C   0  0  0  0  0  0  0  0  0  0  0  0
    5.0362   -1.8598   -2.1033 C   0  0  0  0  0  0  0  0  0  0  0  0
    6.1540   -2.6222   -1.9191 C   0  0  0  0  0  0  0  0  0  0  0  0
    5.9746   -3.4851   -0.8889 O   0  0  0  0  0  0  0  0  0  0  0  0
    2.7371   -4.2410    0.8953 C   0  0  0  0  0  0  0  0  0  0  0  0
    2.3072   -5.3934    1.8065 C   0  0  0  0  0  0  0  0  0  0  0  0
    1.6195   -5.1894    2.8042 O   0  0  0  0  0  0  0  0  0  0  0  0
    2.7377   -6.8019    1.3473 C   0  0  2  0  0  0  0  0  0  0  0  0
    2.5618   -7.9196    2.3979 C   0  0  1  0  0  0  0  0  0  0  0  0
    1.1344   -8.1416    2.8283 C   0  0  0  0  0  0  0  0  0  0  0  0
   -0.0117   -8.0730    2.0794 C   0  0  0  0  0  0  0  0  0  0  0  0
   -1.1955   -8.3495    2.8222 C   0  0  0  0  0  0  0  0  0  0  0  0
   -0.9359   -8.6275    4.1370 C   0  0  0  0  0  0  0  0  0  0  0  0
    0.7634   -8.5361    4.4884 S   0  0  0  0  0  0  0  0  0  0  0  0
    2.5933   -9.6335    1.0777 H   0  0  0  0  0  0  0  0  0  0  0  0
    5.2980  -10.7074    1.9831 H   0  0  0  0  0  0  0  0  0  0  0  0
    5.8575   -5.6798    0.1875 H   0  0  0  0  0  0  0  0  0  0  0  0
    4.7120   -3.8157    1.5910 H   0  0  0  0  0  0  0  0  0  0  0  0
    3.0791   -1.9452   -0.9841 H   0  0  0  0  0  0  0  0  0  0  0  0
    4.9145   -1.0819   -2.8440 H   0  0  0  0  0  0  0  0  0  0  0  0
    7.1241   -2.6721   -2.3948 H   0  0  0  0  0  0  0  0  0  0  0  0
    2.3802   -3.2892    1.2899 H   0  0  0  0  0  0  0  0  0  0  0  0
    2.2458   -4.3951   -0.0652 H   0  0  0  0  0  0  0  0  0  0  0  0
    2.1118   -7.0392    0.4901 H   0  0  0  0  0  0  0  0  0  0  0  0
    3.1223   -7.6139    3.2814 H   0  0  0  0  0  0  0  0  0  0  0  0
   -0.0472   -7.8558    1.0216 H   0  0  0  0  0  0  0  0  0  0  0  0
   -2.1756   -8.3640    2.3712 H   0  0  0  0  0  0  0  0  0  0  0  0
   -1.6329   -8.9263    4.9077 H   0  0  0  0  0  0  0  0  0  0  0  0
  1  2  3  0
  2  3  1  0
  3 19  1  0
  3  4  1  0
  3 25  1  6
  4  5  2  3
  4  6  1  0
  5 26  1  0
  6  7  1  0
  7 18  1  0
  7  8  2  0
  8  9  1  0
  8 27  1  0
  9 10  1  0
  9 15  1  0
  9 28  1  1
 10 14  1  0
 10 11  2  0
 11 12  1  0
 11 29  1  0
 12 13  2  0
 12 30  1  0
 13 14  1  0
 13 31  1  0
 15 16  1  0
 15 32  1  0
 15 33  1  0
 16 17  2  0
 16 18  1  0
 18 19  1  0
 18 34  1  6
 19 20  1  0
 19 35  1  1
 20 24  1  0
 20 21  2  0
 21 22  1  0
 21 36  1  0
 22 23  2  0
 22 37  1  0
 23 24  1  0
 23 38  1  0
M  END
>  <i_m_ct_stereo_status>  (394) 
1

>  <s_m_source_file>  (394) 
/var/tmp/pbs.5076255.sched01/tmp2gi29psn/132an720x3a.sdf

>  <i_m_source_file_index>  (394) 
27

>  <i_lp_mmshare_version>  (394) 
48012

>  <i_f3d_flags>  (394) 
0

>  <s_epik_input>  (394) 
czFbY0hdW2NIXVtjSF1jMVtDQEBIXShbQ0BIXShDI04pL0MoTzIpPU4vW0hdKVtDQEhdKEMyPTMpQyg9TylbQ0gyXVtDQEBIXShbQ0hdMyljNFtjSF1bY0hdW2NIXW80

>  <s_epik_cmdline>  (394) 
J2VwaWtfcHl0aG9uJywgJy1waHQnLCAnMi4wJywgJy1waCcsICc3LjAnLCAnLXRuJywgJzgnLCAnLW1hJywgJzIwMCcsICctaW1hZScsICc8aW5maWxlLm1hZT4nLCAnLW9tYWUnLCAnPG91dGZpbGUubWFlPic=

>  <r_lp_tautomer_probability>  (394) 
0.99995

>  <r_epik_Ionization_Penalty>  (394) 
0.0342816

>  <r_epik_Ionization_Penalty_Charging>  (394) 
0

>  <r_epik_Ionization_Penalty_Neutral>  (394) 
0.0342816

>  <r_epik_State_Penalty>  (394) 
0.659488

>  <r_epik_Charging_Adjusted_Penalty>  (394) 
0.659488

>  <i_epik_Tot_Q>  (394) 
0

>  <i_epik_Tot_abs_Q>  (394) 
0

>  <s_epik_Chemistry_Notes>  (394) 
This compound has an imine and may undergo hydrolysis.

>  <s_lp_Force_Field>  (394) 
OPLS3e

>  <r_lp_Energy>  (394) 
10.0935

>  <b_lp_Chiralities_Consistent>  (394) 
1

>  <s_lp_Variant>  (394) 
108:0-2

>  <s_i_glide_gridfile>  (394) 
pfpi4k_grid

>  <i_i_glide_lignum>  (394) 
27

>  <i_i_glide_rotatable_bonds>  (394) 
3

>  <r_i_docking_score>  (394) 
-2.92784

>  <r_i_glide_ligand_efficiency>  (394) 
-0.121993

>  <r_i_glide_ligand_efficiency_sa>  (394) 
-0.351889

>  <r_i_glide_ligand_efficiency_ln>  (394) 
-0.700766

>  <r_i_glide_gscore>  (394) 
-2.92784

>  <r_i_glide_lipo>  (394) 
-0.299678

>  <r_i_glide_hbond>  (394) 
0

>  <r_i_glide_metal>  (394) 
-0

>  <r_i_glide_rewards>  (394) 
-1.10195

>  <r_i_glide_evdw>  (394) 
-30.9215

>  <r_i_glide_ecoul>  (394) 
-1.35502

>  <r_i_glide_erotb>  (394) 
0.330322

>  <r_i_glide_esite>  (394) 
-0.10721

>  <r_i_glide_emodel>  (394) 
-36.2688

>  <r_i_glide_energy>  (394) 
-32.2765

>  <r_i_glide_einternal>  (394) 
4.05488

>  <r_i_glide_intrahb_reward>  (394) 
-0

>  <i_i_glide_confnum>  (394) 
5

>  <i_i_glide_posenum>  (394) 
33

>  <r_i_glide_eff_state_penalty>  (394) 
0

>  <ligand_id>  (394) 
108

>  <original_smiles>  (394) 
N#CC1C(=N)OC2=CC(c3ccco3)CC(=O)C2C1c1cccs1

>  <smiles>  (394) 
[H]N=C1OC2=C([H])C([H])(c3oc([H])c([H])c3[H])C([H])([H])C(=O)C2([H])C([H])(c2sc([H])c([H])c2[H])C1([H])C#N

$$$$
108:2:0
     RDKit          3D

 38 41  0  0  1  0  0  0  0  0999 V2000
    7.5123   -6.2842    3.6534 N   0  0  0  0  0  0  0  0  0  0  0  0
    7.1518   -6.0456    2.5792 C   0  0  0  0  0  0  0  0  0  0  0  0
    6.6858   -5.7358    1.2148 C   0  0  2  0  0  0  0  0  0  0  0  0
    7.4881   -4.5758    0.6455 C   0  0  0  0  0  0  0  0  0  0  0  0
    8.7994   -4.7456    0.4258 N   0  0  0  0  0  0  0  0  0  0  0  0
    6.9583   -3.8036   -0.3498 O   0  0  0  0  0  0  0  0  0  0  0  0
    5.6113   -3.6777   -0.5503 C   0  0  0  0  0  0  0  0  0  0  0  0
    5.1925   -2.5295   -1.1104 C   0  0  0  0  0  0  0  0  0  0  0  0
    3.7477   -2.1772   -1.3697 C   0  0  1  0  0  0  0  0  0  0  0  0
    3.6261   -1.4676   -2.6746 C   0  0  0  0  0  0  0  0  0  0  0  0
    3.1065   -1.8067   -3.8947 C   0  0  0  0  0  0  0  0  0  0  0  0
    3.2797   -0.6605   -4.7225 C   0  0  0  0  0  0  0  0  0  0  0  0
    3.8475    0.2868   -3.9354 C   0  0  0  0  0  0  0  0  0  0  0  0
    4.1541   -0.2176   -2.7158 O   0  0  0  0  0  0  0  0  0  0  0  0
    2.8346   -3.4076   -1.2764 C   0  0  0  0  0  0  0  0  0  0  0  0
    3.2324   -4.3385   -0.1334 C   0  0  0  0  0  0  0  0  0  0  0  0
    2.4035   -4.6883    0.7039 O   0  0  0  0  0  0  0  0  0  0  0  0
    4.6999   -4.8371   -0.1316 C   0  0  2  0  0  0  0  0  0  0  0  0
    5.1633   -5.4864    1.1971 C   0  0  1  0  0  0  0  0  0  0  0  0
    4.4057   -6.7293    1.5835 C   0  0  0  0  0  0  0  0  0  0  0  0
    4.3864   -7.9538    0.9631 C   0  0  0  0  0  0  0  0  0  0  0  0
    3.5588   -8.9066    1.6224 C   0  0  0  0  0  0  0  0  0  0  0  0
    2.9535   -8.4036    2.7430 C   0  0  0  0  0  0  0  0  0  0  0  0
    3.4125   -6.7488    3.0199 S   0  0  0  0  0  0  0  0  0  0  0  0
    9.1199   -5.4302    1.1237 H   0  0  0  0  0  0  0  0  0  0  0  0
    5.9095   -1.7594   -1.3643 H   0  0  0  0  0  0  0  0  0  0  0  0
    3.4513   -1.4873   -0.5801 H   0  0  0  0  0  0  0  0  0  0  0  0
    2.6621   -2.7574   -4.1427 H   0  0  0  0  0  0  0  0  0  0  0  0
    3.0133   -0.5218   -5.7620 H   0  0  0  0  0  0  0  0  0  0  0  0
    4.1491    1.3150   -4.0990 H   0  0  0  0  0  0  0  0  0  0  0  0
    1.7939   -3.1081   -1.1909 H   0  0  0  0  0  0  0  0  0  0  0  0
    2.9268   -3.9692   -2.2016 H   0  0  0  0  0  0  0  0  0  0  0  0
    4.7660   -5.5950   -0.9167 H   0  0  0  0  0  0  0  0  0  0  0  0
    4.9752   -4.7484    1.9723 H   0  0  0  0  0  0  0  0  0  0  0  0
    4.9330   -8.2021    0.0673 H   0  0  0  0  0  0  0  0  0  0  0  0
    3.4422   -9.9177    1.2607 H   0  0  0  0  0  0  0  0  0  0  0  0
    2.2824   -8.9135    3.4248 H   0  0  0  0  0  0  0  0  0  0  0  0
    6.9158   -6.6127    0.6057 H   0  0  0  0  0  0  0  0  0  0  0  0
  1  2  3  0
  2  3  1  0
  3 19  1  0
  3  4  1  0
  3 38  1  6
  4  5  1  0
  4  6  1  0
  5 25  1  0
  6  7  1  0
  7 18  1  0
  7  8  2  0
  8  9  1  0
  8 26  1  0
  9 10  1  0
  9 15  1  0
  9 27  1  1
 10 14  1  0
 10 11  2  0
 11 12  1  0
 11 28  1  0
 12 13  2  0
 12 29  1  0
 13 14  1  0
 13 30  1  0
 15 16  1  0
 15 31  1  0
 15 32  1  0
 16 17  2  0
 16 18  1  0
 18 19  1  0
 18 33  1  6
 19 20  1  0
 19 34  1  1
 20 24  1  0
 20 21  2  0
 21 22  1  0
 21 35  1  0
 22 23  2  0
 22 36  1  0
 23 24  1  0
 23 37  1  0
M  CHG  2   4   1   5  -1
M  END
>  <i_m_ct_stereo_status>  (395) 
1

>  <s_m_source_file>  (395) 
/var/tmp/pbs.5076255.sched01/tmp2gi29psn/132an720x3a.sdf

>  <i_m_source_file_index>  (395) 
28

>  <i_lp_mmshare_version>  (395) 
48012

>  <i_f3d_flags>  (395) 
0

>  <s_epik_input>  (395) 
czFbY0hdW2NIXVtjSF1jMVtDQEBIXShbQ0BIXShDI04pL0MoTzIpPU4vW0hdKVtDQEhdKEMyPTMpQyg9TylbQ0gyXVtDQEBIXShbQ0hdMyljNFtjSF1bY0hdW2NIXW80

>  <s_epik_cmdline>  (395) 
J2VwaWtfcHl0aG9uJywgJy1waHQnLCAnMi4wJywgJy1waCcsICc3LjAnLCAnLXRuJywgJzgnLCAnLW1hJywgJzIwMCcsICctaW1hZScsICc8aW5maWxlLm1hZT4nLCAnLW9tYWUnLCAnPG91dGZpbGUubWFlPic=

>  <r_lp_tautomer_probability>  (395) 
0.99995

>  <r_epik_Ionization_Penalty>  (395) 
4.45778e-10

>  <r_epik_Ionization_Penalty_Charging>  (395) 
0

>  <r_epik_Ionization_Penalty_Neutral>  (395) 
4.45778e-10

>  <r_epik_State_Penalty>  (395) 
0.659488

>  <r_epik_Charging_Adjusted_Penalty>  (395) 
0.659488

>  <i_epik_Tot_Q>  (395) 
0

>  <i_epik_Tot_abs_Q>  (395) 
2

>  <s_lp_Force_Field>  (395) 
OPLS3e

>  <r_lp_Energy>  (395) 
11.3827

>  <b_lp_Chiralities_Consistent>  (395) 
1

>  <s_lp_Variant>  (395) 
108:0-3

>  <s_i_glide_gridfile>  (395) 
pfpi4k_grid

>  <i_i_glide_lignum>  (395) 
28

>  <i_i_glide_rotatable_bonds>  (395) 
3

>  <r_i_docking_score>  (395) 
-4.035

>  <r_i_glide_ligand_efficiency>  (395) 
-0.168125

>  <r_i_glide_ligand_efficiency_sa>  (395) 
-0.484956

>  <r_i_glide_ligand_efficiency_ln>  (395) 
-0.96576

>  <r_i_glide_gscore>  (395) 
-4.035

>  <r_i_glide_lipo>  (395) 
-0.830911

>  <r_i_glide_hbond>  (395) 
-0.00326646

>  <r_i_glide_metal>  (395) 
-0

>  <r_i_glide_rewards>  (395) 
-1.12778

>  <r_i_glide_evdw>  (395) 
-28.9805

>  <r_i_glide_ecoul>  (395) 
-6.16892

>  <r_i_glide_erotb>  (395) 
0.330322

>  <r_i_glide_esite>  (395) 
-0.0289942

>  <r_i_glide_emodel>  (395) 
-43.088

>  <r_i_glide_energy>  (395) 
-35.1494

>  <r_i_glide_einternal>  (395) 
2.9982

>  <r_i_glide_intrahb_reward>  (395) 
-0

>  <i_i_glide_confnum>  (395) 
6

>  <i_i_glide_posenum>  (395) 
1

>  <r_i_glide_eff_state_penalty>  (395) 
0

>  <ligand_id>  (395) 
108

>  <original_smiles>  (395) 
N#CC1C(=N)OC2=CC(c3ccco3)CC(=O)C2C1c1cccs1

>  <smiles>  (395) 
[H][N-][C+]1OC2=C([H])C([H])(c3oc([H])c([H])c3[H])C([H])([H])C(=O)C2([H])C([H])(c2sc([H])c([H])c2[H])C1([H])C#N

$$$$
108:2:1
     RDKit          3D

 38 41  0  0  1  0  0  0  0  0999 V2000
    7.6732   -6.4380    3.9145 N   0  0  0  0  0  0  0  0  0  0  0  0
    7.2924   -6.1981    2.8477 C   0  0  0  0  0  0  0  0  0  0  0  0
    6.8010   -5.8882    1.4922 C   0  0  2  0  0  0  0  0  0  0  0  0
    7.5880   -4.7202    0.9127 C   0  0  0  0  0  0  0  0  0  0  0  0
    8.8949   -4.8804    0.6686 N   0  0  0  0  0  0  0  0  0  0  0  0
    7.0310   -3.9288   -0.0526 O   0  0  0  0  0  0  0  0  0  0  0  0
    5.6811   -3.8280   -0.2368 C   0  0  0  0  0  0  0  0  0  0  0  0
    5.2346   -2.6773   -0.7771 C   0  0  0  0  0  0  0  0  0  0  0  0
    3.7825   -2.3439   -1.0101 C   0  0  1  0  0  0  0  0  0  0  0  0
    3.6254   -1.6101   -2.2987 C   0  0  0  0  0  0  0  0  0  0  0  0
    3.0088   -1.9004   -3.4823 C   0  0  0  0  0  0  0  0  0  0  0  0
    3.2165   -0.7722   -4.3200 C   0  0  0  0  0  0  0  0  0  0  0  0
    3.9178    0.1254   -3.5751 C   0  0  0  0  0  0  0  0  0  0  0  0
    4.2208   -0.3896   -2.3571 O   0  0  0  0  0  0  0  0  0  0  0  0
    2.8877   -3.5893   -0.9241 C   0  0  0  0  0  0  0  0  0  0  0  0
    3.3154   -4.5388    0.1947 C   0  0  0  0  0  0  0  0  0  0  0  0
    2.5036   -4.9143    1.0367 O   0  0  0  0  0  0  0  0  0  0  0  0
    4.7929   -5.0068    0.1789 C   0  0  2  0  0  0  0  0  0  0  0  0
    5.2726   -5.6617    1.5014 C   0  0  1  0  0  0  0  0  0  0  0  0
    4.5411   -6.9293    1.8646 C   0  0  0  0  0  0  0  0  0  0  0  0
    3.7570   -7.1520    2.9690 C   0  0  0  0  0  0  0  0  0  0  0  0
    3.2105   -8.4682    3.0193 C   0  0  0  0  0  0  0  0  0  0  0  0
    3.5896   -9.2412    1.9543 C   0  0  0  0  0  0  0  0  0  0  0  0
    4.6276   -8.3633    0.8776 S   0  0  0  0  0  0  0  0  0  0  0  0
    9.2336   -5.5575    1.3650 H   0  0  0  0  0  0  0  0  0  0  0  0
    5.9363   -1.8927   -1.0282 H   0  0  0  0  0  0  0  0  0  0  0  0
    3.4895   -1.6684   -0.2084 H   0  0  0  0  0  0  0  0  0  0  0  0
    2.4606   -2.8072   -3.6917 H   0  0  0  0  0  0  0  0  0  0  0  0
    2.8879   -0.6041   -5.3394 H   0  0  0  0  0  0  0  0  0  0  0  0
    4.2826    1.1251   -3.7598 H   0  0  0  0  0  0  0  0  0  0  0  0
    1.8447   -3.3041   -0.8221 H   0  0  0  0  0  0  0  0  0  0  0  0
    2.9774   -4.1502   -1.8503 H   0  0  0  0  0  0  0  0  0  0  0  0
    4.8732   -5.7549   -0.6134 H   0  0  0  0  0  0  0  0  0  0  0  0
    5.0767   -4.9402    2.2975 H   0  0  0  0  0  0  0  0  0  0  0  0
    3.5555   -6.4205    3.7384 H   0  0  0  0  0  0  0  0  0  0  0  0
    2.5751   -8.7995    3.8306 H   0  0  0  0  0  0  0  0  0  0  0  0
    3.3425  -10.2773    1.7349 H   0  0  0  0  0  0  0  0  0  0  0  0
    7.0395   -6.7548    0.8733 H   0  0  0  0  0  0  0  0  0  0  0  0
  1  2  3  0
  2  3  1  0
  3 19  1  0
  3  4  1  0
  3 38  1  6
  4  5  1  0
  4  6  1  0
  5 25  1  0
  6  7  1  0
  7 18  1  0
  7  8  2  0
  8  9  1  0
  8 26  1  0
  9 10  1  0
  9 15  1  0
  9 27  1  1
 10 14  1  0
 10 11  2  0
 11 12  1  0
 11 28  1  0
 12 13  2  0
 12 29  1  0
 13 14  1  0
 13 30  1  0
 15 16  1  0
 15 31  1  0
 15 32  1  0
 16 17  2  0
 16 18  1  0
 18 19  1  0
 18 33  1  6
 19 20  1  0
 19 34  1  1
 20 24  1  0
 20 21  2  0
 21 22  1  0
 21 35  1  0
 22 23  2  0
 22 36  1  0
 23 24  1  0
 23 37  1  0
M  CHG  2   4   1   5  -1
M  END
>  <i_m_ct_stereo_status>  (396) 
1

>  <s_m_source_file>  (396) 
/var/tmp/pbs.5076255.sched01/tmp2gi29psn/132an720x3a.sdf

>  <i_m_source_file_index>  (396) 
28

>  <i_lp_mmshare_version>  (396) 
48012

>  <i_f3d_flags>  (396) 
0

>  <s_epik_input>  (396) 
czFbY0hdW2NIXVtjSF1jMVtDQEBIXShbQ0BIXShDI04pL0MoTzIpPU4vW0hdKVtDQEhdKEMyPTMpQyg9TylbQ0gyXVtDQEBIXShbQ0hdMyljNFtjSF1bY0hdW2NIXW80

>  <s_epik_cmdline>  (396) 
J2VwaWtfcHl0aG9uJywgJy1waHQnLCAnMi4wJywgJy1waCcsICc3LjAnLCAnLXRuJywgJzgnLCAnLW1hJywgJzIwMCcsICctaW1hZScsICc8aW5maWxlLm1hZT4nLCAnLW9tYWUnLCAnPG91dGZpbGUubWFlPic=

>  <r_lp_tautomer_probability>  (396) 
0.99995

>  <r_epik_Ionization_Penalty>  (396) 
4.45778e-10

>  <r_epik_Ionization_Penalty_Charging>  (396) 
0

>  <r_epik_Ionization_Penalty_Neutral>  (396) 
4.45778e-10

>  <r_epik_State_Penalty>  (396) 
0.659488

>  <r_epik_Charging_Adjusted_Penalty>  (396) 
0.659488

>  <i_epik_Tot_Q>  (396) 
0

>  <i_epik_Tot_abs_Q>  (396) 
2

>  <s_lp_Force_Field>  (396) 
OPLS3e

>  <r_lp_Energy>  (396) 
11.3827

>  <b_lp_Chiralities_Consistent>  (396) 
1

>  <s_lp_Variant>  (396) 
108:0-3

>  <s_i_glide_gridfile>  (396) 
pfpi4k_grid

>  <i_i_glide_lignum>  (396) 
28

>  <i_i_glide_rotatable_bonds>  (396) 
3

>  <r_i_docking_score>  (396) 
-4.01025

>  <r_i_glide_ligand_efficiency>  (396) 
-0.167094

>  <r_i_glide_ligand_efficiency_sa>  (396) 
-0.481982

>  <r_i_glide_ligand_efficiency_ln>  (396) 
-0.959838

>  <r_i_glide_gscore>  (396) 
-4.01025

>  <r_i_glide_lipo>  (396) 
-0.786998

>  <r_i_glide_hbond>  (396) 
-2.75014e-06

>  <r_i_glide_metal>  (396) 
-0

>  <r_i_glide_rewards>  (396) 
-1.11271

>  <r_i_glide_evdw>  (396) 
-29.7839

>  <r_i_glide_ecoul>  (396) 
-6.22464

>  <r_i_glide_erotb>  (396) 
0.330322

>  <r_i_glide_esite>  (396) 
-0.0179707

>  <r_i_glide_emodel>  (396) 
-45.1633

>  <r_i_glide_energy>  (396) 
-36.0085

>  <r_i_glide_einternal>  (396) 
0.6111

>  <r_i_glide_intrahb_reward>  (396) 
-0

>  <i_i_glide_confnum>  (396) 
6

>  <i_i_glide_posenum>  (396) 
40

>  <r_i_glide_eff_state_penalty>  (396) 
0

>  <ligand_id>  (396) 
108

>  <original_smiles>  (396) 
N#CC1C(=N)OC2=CC(c3ccco3)CC(=O)C2C1c1cccs1

>  <smiles>  (396) 
[H][N-][C+]1OC2=C([H])C([H])(c3oc([H])c([H])c3[H])C([H])([H])C(=O)C2([H])C([H])(c2sc([H])c([H])c2[H])C1([H])C#N

$$$$
108:2:2
     RDKit          3D

 38 41  0  0  1  0  0  0  0  0999 V2000
    4.5243  -11.1279    4.9533 N   0  0  0  0  0  0  0  0  0  0  0  0
    4.4450  -10.5471    3.9550 C   0  0  0  0  0  0  0  0  0  0  0  0
    4.3450   -9.7959    2.6895 C   0  0  2  0  0  0  0  0  0  0  0  0
    5.7349   -9.5327    2.1242 C   0  0  0  0  0  0  0  0  0  0  0  0
    6.5803  -10.5315    1.8429 N   0  0  0  0  0  0  0  0  0  0  0  0
    5.9658   -8.4652    1.3048 O   0  0  0  0  0  0  0  0  0  0  0  0
    5.1639   -7.3606    1.3046 C   0  0  0  0  0  0  0  0  0  0  0  0
    5.7404   -6.1991    0.9373 C   0  0  0  0  0  0  0  0  0  0  0  0
    5.0310   -4.8683    0.8829 C   0  0  1  0  0  0  0  0  0  0  0  0
    5.4987   -4.0628   -0.2849 C   0  0  0  0  0  0  0  0  0  0  0  0
    4.8706   -3.5864   -1.4025 C   0  0  0  0  0  0  0  0  0  0  0  0
    5.8700   -2.9302   -2.1685 C   0  0  0  0  0  0  0  0  0  0  0  0
    7.0336   -3.0500   -1.4630 C   0  0  0  0  0  0  0  0  0  0  0  0
    6.8235   -3.7369   -0.3112 O   0  0  0  0  0  0  0  0  0  0  0  0
    3.4995   -5.0409    0.9141 C   0  0  0  0  0  0  0  0  0  0  0  0
    3.0637   -6.1248    1.8984 C   0  0  0  0  0  0  0  0  0  0  0  0
    2.2420   -5.8701    2.7736 O   0  0  0  0  0  0  0  0  0  0  0  0
    3.6889   -7.5270    1.7001 C   0  0  2  0  0  0  0  0  0  0  0  0
    3.5185   -8.5030    2.8907 C   0  0  1  0  0  0  0  0  0  0  0  0
    2.0861   -8.8237    3.2253 C   0  0  0  0  0  0  0  0  0  0  0  0
    1.1841   -9.5314    2.4787 C   0  0  0  0  0  0  0  0  0  0  0  0
   -0.0939   -9.6520    3.0989 C   0  0  0  0  0  0  0  0  0  0  0  0
   -0.1483   -9.0475    4.3244 C   0  0  0  0  0  0  0  0  0  0  0  0
    1.3781   -8.3264    4.7452 S   0  0  0  0  0  0  0  0  0  0  0  0
    6.2264  -11.3680    2.3236 H   0  0  0  0  0  0  0  0  0  0  0  0
    6.7948   -6.1880    0.6955 H   0  0  0  0  0  0  0  0  0  0  0  0
    5.3313   -4.3362    1.7843 H   0  0  0  0  0  0  0  0  0  0  0  0
    3.8239   -3.7243   -1.6380 H   0  0  0  0  0  0  0  0  0  0  0  0
    5.7572   -2.4486   -3.1282 H   0  0  0  0  0  0  0  0  0  0  0  0
    8.0574   -2.7490   -1.6502 H   0  0  0  0  0  0  0  0  0  0  0  0
    3.0191   -4.0959    1.1585 H   0  0  0  0  0  0  0  0  0  0  0  0
    3.1391   -5.3470   -0.0668 H   0  0  0  0  0  0  0  0  0  0  0  0
    3.1785   -7.9755    0.8517 H   0  0  0  0  0  0  0  0  0  0  0  0
    3.9394   -8.0008    3.7598 H   0  0  0  0  0  0  0  0  0  0  0  0
    1.4031   -9.9728    1.5185 H   0  0  0  0  0  0  0  0  0  0  0  0
   -0.9093  -10.1958    2.6484 H   0  0  0  0  0  0  0  0  0  0  0  0
   -0.9842   -9.0358    5.0109 H   0  0  0  0  0  0  0  0  0  0  0  0
    3.8358  -10.4489    1.9758 H   0  0  0  0  0  0  0  0  0  0  0  0
  1  2  3  0
  2  3  1  0
  3 19  1  0
  3  4  1  0
  3 38  1  6
  4  5  1  0
  4  6  1  0
  5 25  1  0
  6  7  1  0
  7 18  1  0
  7  8  2  0
  8  9  1  0
  8 26  1  0
  9 10  1  0
  9 15  1  0
  9 27  1  1
 10 14  1  0
 10 11  2  0
 11 12  1  0
 11 28  1  0
 12 13  2  0
 12 29  1  0
 13 14  1  0
 13 30  1  0
 15 16  1  0
 15 31  1  0
 15 32  1  0
 16 17  2  0
 16 18  1  0
 18 19  1  0
 18 33  1  6
 19 20  1  0
 19 34  1  1
 20 24  1  0
 20 21  2  0
 21 22  1  0
 21 35  1  0
 22 23  2  0
 22 36  1  0
 23 24  1  0
 23 37  1  0
M  CHG  2   4   1   5  -1
M  END
>  <i_m_ct_stereo_status>  (397) 
1

>  <s_m_source_file>  (397) 
/var/tmp/pbs.5076255.sched01/tmp2gi29psn/132an720x3a.sdf

>  <i_m_source_file_index>  (397) 
28

>  <i_lp_mmshare_version>  (397) 
48012

>  <i_f3d_flags>  (397) 
0

>  <s_epik_input>  (397) 
czFbY0hdW2NIXVtjSF1jMVtDQEBIXShbQ0BIXShDI04pL0MoTzIpPU4vW0hdKVtDQEhdKEMyPTMpQyg9TylbQ0gyXVtDQEBIXShbQ0hdMyljNFtjSF1bY0hdW2NIXW80

>  <s_epik_cmdline>  (397) 
J2VwaWtfcHl0aG9uJywgJy1waHQnLCAnMi4wJywgJy1waCcsICc3LjAnLCAnLXRuJywgJzgnLCAnLW1hJywgJzIwMCcsICctaW1hZScsICc8aW5maWxlLm1hZT4nLCAnLW9tYWUnLCAnPG91dGZpbGUubWFlPic=

>  <r_lp_tautomer_probability>  (397) 
0.99995

>  <r_epik_Ionization_Penalty>  (397) 
4.45778e-10

>  <r_epik_Ionization_Penalty_Charging>  (397) 
0

>  <r_epik_Ionization_Penalty_Neutral>  (397) 
4.45778e-10

>  <r_epik_State_Penalty>  (397) 
0.659488

>  <r_epik_Charging_Adjusted_Penalty>  (397) 
0.659488

>  <i_epik_Tot_Q>  (397) 
0

>  <i_epik_Tot_abs_Q>  (397) 
2

>  <s_lp_Force_Field>  (397) 
OPLS3e

>  <r_lp_Energy>  (397) 
11.3827

>  <b_lp_Chiralities_Consistent>  (397) 
1

>  <s_lp_Variant>  (397) 
108:0-3

>  <s_i_glide_gridfile>  (397) 
pfpi4k_grid

>  <i_i_glide_lignum>  (397) 
28

>  <i_i_glide_rotatable_bonds>  (397) 
3

>  <r_i_docking_score>  (397) 
-3.33915

>  <r_i_glide_ligand_efficiency>  (397) 
-0.139131

>  <r_i_glide_ligand_efficiency_sa>  (397) 
-0.401324

>  <r_i_glide_ligand_efficiency_ln>  (397) 
-0.799212

>  <r_i_glide_gscore>  (397) 
-3.33915

>  <r_i_glide_lipo>  (397) 
-0.561111

>  <r_i_glide_hbond>  (397) 
0

>  <r_i_glide_metal>  (397) 
-0

>  <r_i_glide_rewards>  (397) 
-1.12339

>  <r_i_glide_evdw>  (397) 
-27.1599

>  <r_i_glide_ecoul>  (397) 
-4.09125

>  <r_i_glide_erotb>  (397) 
0.330322

>  <r_i_glide_esite>  (397) 
-0.0132917

>  <r_i_glide_emodel>  (397) 
-37.414

>  <r_i_glide_energy>  (397) 
-31.2512

>  <r_i_glide_einternal>  (397) 
2.85909

>  <r_i_glide_intrahb_reward>  (397) 
-0

>  <i_i_glide_confnum>  (397) 
6

>  <i_i_glide_posenum>  (397) 
3

>  <r_i_glide_eff_state_penalty>  (397) 
0

>  <ligand_id>  (397) 
108

>  <original_smiles>  (397) 
N#CC1C(=N)OC2=CC(c3ccco3)CC(=O)C2C1c1cccs1

>  <smiles>  (397) 
[H][N-][C+]1OC2=C([H])C([H])(c3oc([H])c([H])c3[H])C([H])([H])C(=O)C2([H])C([H])(c2sc([H])c([H])c2[H])C1([H])C#N

$$$$
108:3:0
     RDKit          3D

 37 40  0  0  1  0  0  0  0  0999 V2000
    7.4996   -5.9228    4.3230 N   0  0  0  0  0  0  0  0  0  0  0  0
    7.1464   -5.9188    3.2184 C   0  0  0  0  0  0  0  0  0  0  0  0
    6.6709   -5.9173    1.8223 C   0  0  2  0  0  0  0  0  0  0  0  0
    7.6247   -5.1687    0.8862 C   0  0  0  0  0  0  0  0  0  0  0  0
    8.9405   -5.3979    0.8310 N   0  0  0  0  0  0  0  0  0  0  0  0
    7.2222   -4.1681    0.0444 O   0  0  0  0  0  0  0  0  0  0  0  0
    5.9111   -3.8041   -0.0228 C   0  0  0  0  0  0  0  0  0  0  0  0
    5.6386   -2.5225   -0.3333 C   0  0  0  0  0  0  0  0  0  0  0  0
    4.2526   -1.9319   -0.3491 C   0  0  1  0  0  0  0  0  0  0  0  0
    3.8473   -1.6319   -1.7511 C   0  0  0  0  0  0  0  0  0  0  0  0
    3.0149   -2.2409   -2.6530 C   0  0  0  0  0  0  0  0  0  0  0  0
    3.0172   -1.4074   -3.8019 C   0  0  0  0  0  0  0  0  0  0  0  0
    3.8376   -0.3575   -3.5167 C   0  0  0  0  0  0  0  0  0  0  0  0
    4.3932   -0.5100   -2.2950 O   0  0  0  0  0  0  0  0  0  0  0  0
    3.2643   -2.8125    0.4418 C   0  0  0  0  0  0  0  0  0  0  0  0
    3.4536   -4.3117    0.2189 C   0  0  0  0  0  0  0  0  0  0  0  0
    2.4772   -5.0380    0.0451 O   0  0  0  0  0  0  0  0  0  0  0  0
    4.8868   -4.8814    0.3363 C   0  0  2  0  0  0  0  0  0  0  0  0
    5.2040   -5.4383    1.7396 C   0  0  1  0  0  0  0  0  0  0  0  0
    4.2517   -6.5079    2.1901 C   0  0  0  0  0  0  0  0  0  0  0  0
    3.4304   -6.4648    3.2859 C   0  0  0  0  0  0  0  0  0  0  0  0
    2.6604   -7.6501    3.4583 C   0  0  0  0  0  0  0  0  0  0  0  0
    2.9071   -8.5895    2.4924 C   0  0  0  0  0  0  0  0  0  0  0  0
    4.0963   -8.0295    1.3496 S   0  0  0  0  0  0  0  0  0  0  0  0
    6.7203   -6.9585    1.5020 H   0  0  0  0  0  0  0  0  0  0  0  0
    6.4442   -1.8372   -0.5606 H   0  0  0  0  0  0  0  0  0  0  0  0
    4.3337   -0.9921    0.1949 H   0  0  0  0  0  0  0  0  0  0  0  0
    2.4770   -3.1593   -2.4753 H   0  0  0  0  0  0  0  0  0  0  0  0
    2.4651   -1.5231   -4.7073 H   0  0  0  0  0  0  0  0  0  0  0  0
    4.1250    0.5360   -4.0463 H   0  0  0  0  0  0  0  0  0  0  0  0
    3.4206   -2.6641    1.5070 H   0  0  0  0  0  0  0  0  0  0  0  0
    2.2411   -2.5252    0.2240 H   0  0  0  0  0  0  0  0  0  0  0  0
    5.0057   -5.6922   -0.3926 H   0  0  0  0  0  0  0  0  0  0  0  0
    5.1041   -4.5988    2.4307 H   0  0  0  0  0  0  0  0  0  0  0  0
    3.3586   -5.6368    3.9744 H   0  0  0  0  0  0  0  0  0  0  0  0
    1.9728   -7.7748    4.2845 H   0  0  0  0  0  0  0  0  0  0  0  0
    2.4735   -9.5793    2.3891 H   0  0  0  0  0  0  0  0  0  0  0  0
  1  2  3  0
  2  3  1  0
  3 19  1  0
  3  4  1  0
  3 25  1  6
  4  5  2  3
  4  6  1  0
  6  7  1  0
  7 18  1  0
  7  8  2  0
  8  9  1  0
  8 26  1  0
  9 10  1  0
  9 15  1  0
  9 27  1  1
 10 14  1  0
 10 11  2  0
 11 12  1  0
 11 28  1  0
 12 13  2  0
 12 29  1  0
 13 14  1  0
 13 30  1  0
 15 16  1  0
 15 31  1  0
 15 32  1  0
 16 17  2  0
 16 18  1  0
 18 19  1  0
 18 33  1  6
 19 20  1  0
 19 34  1  1
 20 24  1  0
 20 21  2  0
 21 22  1  0
 21 35  1  0
 22 23  2  0
 22 36  1  0
 23 24  1  0
 23 37  1  0
M  CHG  1   5  -1
M  END
>  <i_m_ct_stereo_status>  (398) 
1

>  <s_m_source_file>  (398) 
/var/tmp/pbs.5076255.sched01/tmp2gi29psn/132an720x3a.sdf

>  <i_m_source_file_index>  (398) 
29

>  <i_lp_mmshare_version>  (398) 
48012

>  <i_f3d_flags>  (398) 
0

>  <s_epik_input>  (398) 
czFbY0hdW2NIXVtjSF1jMVtDQEBIXShbQ0BIXShDI04pL0MoTzIpPU4vW0hdKVtDQEhdKEMyPTMpQyg9TylbQ0gyXVtDQEBIXShbQ0hdMyljNFtjSF1bY0hdW2NIXW80

>  <s_epik_cmdline>  (398) 
J2VwaWtfcHl0aG9uJywgJy1waHQnLCAnMi4wJywgJy1waCcsICc3LjAnLCAnLXRuJywgJzgnLCAnLW1hJywgJzIwMCcsICctaW1hZScsICc8aW5maWxlLm1hZT4nLCAnLW9tYWUnLCAnPG91dGZpbGUubWFlPic=

>  <r_lp_tautomer_probability>  (398) 
0.99995

>  <r_epik_Ionization_Penalty>  (398) 
1.76836

>  <r_epik_Ionization_Penalty_Charging>  (398) 
1.76836

>  <r_epik_Ionization_Penalty_Neutral>  (398) 
1.02144e-07

>  <r_epik_State_Penalty>  (398) 
2.51367

>  <r_epik_Charging_Adjusted_Penalty>  (398) 
4.28203

>  <i_epik_Tot_Q>  (398) 
-1

>  <i_epik_Tot_abs_Q>  (398) 
1

>  <s_epik_Chemistry_Notes>  (398) 
This compound has an imine and may undergo hydrolysis.

>  <s_lp_Force_Field>  (398) 
OPLS3e

>  <r_lp_Energy>  (398) 
15.2572

>  <b_lp_Chiralities_Consistent>  (398) 
1

>  <s_lp_Variant>  (398) 
108:0-4

>  <s_i_glide_gridfile>  (398) 
pfpi4k_grid

>  <i_i_glide_lignum>  (398) 
29

>  <i_i_glide_rotatable_bonds>  (398) 
3

>  <r_i_docking_score>  (398) 
-3.20888

>  <r_i_glide_ligand_efficiency>  (398) 
-0.133703

>  <r_i_glide_ligand_efficiency_sa>  (398) 
-0.385667

>  <r_i_glide_ligand_efficiency_ln>  (398) 
-0.768031

>  <r_i_glide_gscore>  (398) 
-3.20888

>  <r_i_glide_lipo>  (398) 
-0.633605

>  <r_i_glide_hbond>  (398) 
-0.00263827

>  <r_i_glide_metal>  (398) 
-0

>  <r_i_glide_rewards>  (398) 
-1.28325

>  <r_i_glide_evdw>  (398) 
-28.3409

>  <r_i_glide_ecoul>  (398) 
-1.28783

>  <r_i_glide_erotb>  (398) 
0.332072

>  <r_i_glide_esite>  (398) 
-0.0112402

>  <r_i_glide_emodel>  (398) 
-37.0438

>  <r_i_glide_energy>  (398) 
-29.6287

>  <r_i_glide_einternal>  (398) 
0.878641

>  <r_i_glide_intrahb_reward>  (398) 
-0

>  <i_i_glide_confnum>  (398) 
4

>  <i_i_glide_posenum>  (398) 
3

>  <r_i_glide_eff_state_penalty>  (398) 
0

>  <ligand_id>  (398) 
108

>  <original_smiles>  (398) 
N#CC1C(=N)OC2=CC(c3ccco3)CC(=O)C2C1c1cccs1

>  <smiles>  (398) 
[H]C1=C2OC(=[N-])C([H])(C#N)C([H])(c3sc([H])c([H])c3[H])C2([H])C(=O)C([H])([H])C1([H])c1oc([H])c([H])c1[H]

$$$$
108:3:1
     RDKit          3D

 37 40  0  0  1  0  0  0  0  0999 V2000
    7.4866   -5.9214    4.3126 N   0  0  0  0  0  0  0  0  0  0  0  0
    7.1347   -5.9189    3.2067 C   0  0  0  0  0  0  0  0  0  0  0  0
    6.6666   -5.9150    1.8086 C   0  0  2  0  0  0  0  0  0  0  0  0
    7.6216   -5.1584    0.8766 C   0  0  0  0  0  0  0  0  0  0  0  0
    8.9329   -5.3963    0.8153 N   0  0  0  0  0  0  0  0  0  0  0  0
    7.2141   -4.1539    0.0410 O   0  0  0  0  0  0  0  0  0  0  0  0
    5.9025   -3.7841   -0.0298 C   0  0  0  0  0  0  0  0  0  0  0  0
    5.6334   -2.5044   -0.3346 C   0  0  0  0  0  0  0  0  0  0  0  0
    4.2535   -1.9100   -0.3509 C   0  0  1  0  0  0  0  0  0  0  0  0
    3.8484   -1.5995   -1.7456 C   0  0  0  0  0  0  0  0  0  0  0  0
    3.0148   -2.2081   -2.6539 C   0  0  0  0  0  0  0  0  0  0  0  0
    3.0168   -1.3686   -3.8038 C   0  0  0  0  0  0  0  0  0  0  0  0
    3.8393   -0.3223   -3.5160 C   0  0  0  0  0  0  0  0  0  0  0  0
    4.3986   -0.4764   -2.2872 O   0  0  0  0  0  0  0  0  0  0  0  0
    3.2601   -2.7888    0.4440 C   0  0  0  0  0  0  0  0  0  0  0  0
    3.4433   -4.2891    0.2158 C   0  0  0  0  0  0  0  0  0  0  0  0
    2.4631   -5.0110    0.0352 O   0  0  0  0  0  0  0  0  0  0  0  0
    4.8786   -4.8650    0.3203 C   0  0  2  0  0  0  0  0  0  0  0  0
    5.1994   -5.4330    1.7181 C   0  0  1  0  0  0  0  0  0  0  0  0
    4.2394   -6.4866    2.1949 C   0  0  0  0  0  0  0  0  0  0  0  0
    3.9808   -7.7146    1.6485 C   0  0  0  0  0  0  0  0  0  0  0  0
    3.0255   -8.4677    2.3953 C   0  0  0  0  0  0  0  0  0  0  0  0
    2.5721   -7.8064    3.5019 C   0  0  0  0  0  0  0  0  0  0  0  0
    3.3067   -6.2326    3.6448 S   0  0  0  0  0  0  0  0  0  0  0  0
    6.7075   -6.9605    1.4867 H   0  0  0  0  0  0  0  0  0  0  0  0
    6.4431   -1.8187   -0.5563 H   0  0  0  0  0  0  0  0  0  0  0  0
    4.3347   -0.9685    0.1963 H   0  0  0  0  0  0  0  0  0  0  0  0
    2.4683   -3.1247   -2.4825 H   0  0  0  0  0  0  0  0  0  0  0  0
    2.4635   -1.4816   -4.7194 H   0  0  0  0  0  0  0  0  0  0  0  0
    4.1277    0.5824   -4.0424 H   0  0  0  0  0  0  0  0  0  0  0  0
    3.4209   -2.6407    1.5088 H   0  0  0  0  0  0  0  0  0  0  0  0
    2.2395   -2.4952    0.2295 H   0  0  0  0  0  0  0  0  0  0  0  0
    4.9875   -5.6700   -0.4167 H   0  0  0  0  0  0  0  0  0  0  0  0
    5.1112   -4.5918    2.4058 H   0  0  0  0  0  0  0  0  0  0  0  0
    4.4383   -8.1057    0.7527 H   0  0  0  0  0  0  0  0  0  0  0  0
    2.7203   -9.4620    2.1011 H   0  0  0  0  0  0  0  0  0  0  0  0
    1.8644   -8.1488    4.2467 H   0  0  0  0  0  0  0  0  0  0  0  0
  1  2  3  0
  2  3  1  0
  3 19  1  0
  3  4  1  0
  3 25  1  6
  4  5  2  3
  4  6  1  0
  6  7  1  0
  7 18  1  0
  7  8  2  0
  8  9  1  0
  8 26  1  0
  9 10  1  0
  9 15  1  0
  9 27  1  1
 10 14  1  0
 10 11  2  0
 11 12  1  0
 11 28  1  0
 12 13  2  0
 12 29  1  0
 13 14  1  0
 13 30  1  0
 15 16  1  0
 15 31  1  0
 15 32  1  0
 16 17  2  0
 16 18  1  0
 18 19  1  0
 18 33  1  6
 19 20  1  0
 19 34  1  1
 20 24  1  0
 20 21  2  0
 21 22  1  0
 21 35  1  0
 22 23  2  0
 22 36  1  0
 23 24  1  0
 23 37  1  0
M  CHG  1   5  -1
M  END
>  <i_m_ct_stereo_status>  (399) 
1

>  <s_m_source_file>  (399) 
/var/tmp/pbs.5076255.sched01/tmp2gi29psn/132an720x3a.sdf

>  <i_m_source_file_index>  (399) 
29

>  <i_lp_mmshare_version>  (399) 
48012

>  <i_f3d_flags>  (399) 
0

>  <s_epik_input>  (399) 
czFbY0hdW2NIXVtjSF1jMVtDQEBIXShbQ0BIXShDI04pL0MoTzIpPU4vW0hdKVtDQEhdKEMyPTMpQyg9TylbQ0gyXVtDQEBIXShbQ0hdMyljNFtjSF1bY0hdW2NIXW80

>  <s_epik_cmdline>  (399) 
J2VwaWtfcHl0aG9uJywgJy1waHQnLCAnMi4wJywgJy1waCcsICc3LjAnLCAnLXRuJywgJzgnLCAnLW1hJywgJzIwMCcsICctaW1hZScsICc8aW5maWxlLm1hZT4nLCAnLW9tYWUnLCAnPG91dGZpbGUubWFlPic=

>  <r_lp_tautomer_probability>  (399) 
0.99995

>  <r_epik_Ionization_Penalty>  (399) 
1.76836

>  <r_epik_Ionization_Penalty_Charging>  (399) 
1.76836

>  <r_epik_Ionization_Penalty_Neutral>  (399) 
1.02144e-07

>  <r_epik_State_Penalty>  (399) 
2.51367

>  <r_epik_Charging_Adjusted_Penalty>  (399) 
4.28203

>  <i_epik_Tot_Q>  (399) 
-1

>  <i_epik_Tot_abs_Q>  (399) 
1

>  <s_epik_Chemistry_Notes>  (399) 
This compound has an imine and may undergo hydrolysis.

>  <s_lp_Force_Field>  (399) 
OPLS3e

>  <r_lp_Energy>  (399) 
15.2572

>  <b_lp_Chiralities_Consistent>  (399) 
1

>  <s_lp_Variant>  (399) 
108:0-4

>  <s_i_glide_gridfile>  (399) 
pfpi4k_grid

>  <i_i_glide_lignum>  (399) 
29

>  <i_i_glide_rotatable_bonds>  (399) 
3

>  <r_i_docking_score>  (399) 
-3.12372

>  <r_i_glide_ligand_efficiency>  (399) 
-0.130155

>  <r_i_glide_ligand_efficiency_sa>  (399) 
-0.375432

>  <r_i_glide_ligand_efficiency_ln>  (399) 
-0.747649

>  <r_i_glide_gscore>  (399) 
-3.12372

>  <r_i_glide_lipo>  (399) 
-0.636724

>  <r_i_glide_hbond>  (399) 
-0.00179021

>  <r_i_glide_metal>  (399) 
-0

>  <r_i_glide_rewards>  (399) 
-1.2841

>  <r_i_glide_evdw>  (399) 
-27.2031

>  <r_i_glide_ecoul>  (399) 
-1.07806

>  <r_i_glide_erotb>  (399) 
0.332072

>  <r_i_glide_esite>  (399) 
-0.0113096

>  <r_i_glide_emodel>  (399) 
-34.3505

>  <r_i_glide_energy>  (399) 
-28.2812

>  <r_i_glide_einternal>  (399) 
3.07556

>  <r_i_glide_intrahb_reward>  (399) 
-0

>  <i_i_glide_confnum>  (399) 
6

>  <i_i_glide_posenum>  (399) 
10

>  <r_i_glide_eff_state_penalty>  (399) 
0

>  <ligand_id>  (399) 
108

>  <original_smiles>  (399) 
N#CC1C(=N)OC2=CC(c3ccco3)CC(=O)C2C1c1cccs1

>  <smiles>  (399) 
[H]C1=C2OC(=[N-])C([H])(C#N)C([H])(c3sc([H])c([H])c3[H])C2([H])C(=O)C([H])([H])C1([H])c1oc([H])c([H])c1[H]

$$$$
108:3:2
     RDKit          3D

 37 40  0  0  1  0  0  0  0  0999 V2000
    2.6345    0.3983    6.9487 N   0  0  0  0  0  0  0  0  0  0  0  0
    2.0061   -0.1924    6.1776 C   0  0  0  0  0  0  0  0  0  0  0  0
    1.2186   -0.9523    5.1886 C   0  0  2  0  0  0  0  0  0  0  0  0
   -0.1080   -1.4542    5.7690 C   0  0  0  0  0  0  0  0  0  0  0  0
   -0.9710   -0.6626    6.4219 N   0  0  0  0  0  0  0  0  0  0  0  0
   -0.4957   -2.7687    5.7149 O   0  0  0  0  0  0  0  0  0  0  0  0
    0.3090   -3.6992    5.1131 C   0  0  0  0  0  0  0  0  0  0  0  0
    0.2715   -4.9642    5.5660 C   0  0  0  0  0  0  0  0  0  0  0  0
    1.1554   -6.0776    5.0463 C   0  0  1  0  0  0  0  0  0  0  0  0
    0.3517   -7.1012    4.3092 C   0  0  0  0  0  0  0  0  0  0  0  0
    0.0523   -8.4106    4.5705 C   0  0  0  0  0  0  0  0  0  0  0  0
   -0.7471   -8.8616    3.4840 C   0  0  0  0  0  0  0  0  0  0  0  0
   -0.8790   -7.7953    2.6431 C   0  0  0  0  0  0  0  0  0  0  0  0
   -0.2247   -6.7062    3.1357 O   0  0  0  0  0  0  0  0  0  0  0  0
    2.3635   -5.5303    4.2564 C   0  0  0  0  0  0  0  0  0  0  0  0
    1.9891   -4.3531    3.3515 C   0  0  0  0  0  0  0  0  0  0  0  0
    2.2987   -4.3438    2.1630 O   0  0  0  0  0  0  0  0  0  0  0  0
    1.2070   -3.1823    3.9892 C   0  0  2  0  0  0  0  0  0  0  0  0
    2.0943   -2.0419    4.5233 C   0  0  1  0  0  0  0  0  0  0  0  0
    3.0234   -1.4529    3.4945 C   0  0  0  0  0  0  0  0  0  0  0  0
    4.3957   -1.4454    3.5173 C   0  0  0  0  0  0  0  0  0  0  0  0
    4.9800   -0.7826    2.3977 C   0  0  0  0  0  0  0  0  0  0  0  0
    4.0446   -0.2859    1.5287 C   0  0  0  0  0  0  0  0  0  0  0  0
    2.4244   -0.6247    2.0796 S   0  0  0  0  0  0  0  0  0  0  0  0
    0.9211   -0.2289    4.4276 H   0  0  0  0  0  0  0  0  0  0  0  0
   -0.3972   -5.2264    6.3741 H   0  0  0  0  0  0  0  0  0  0  0  0
    1.5618   -6.5558    5.9378 H   0  0  0  0  0  0  0  0  0  0  0  0
    0.3648   -8.9735    5.4377 H   0  0  0  0  0  0  0  0  0  0  0  0
   -1.1767   -9.8428    3.3320 H   0  0  0  0  0  0  0  0  0  0  0  0
   -1.3798   -7.6604    1.6960 H   0  0  0  0  0  0  0  0  0  0  0  0
    3.1086   -5.1549    4.9557 H   0  0  0  0  0  0  0  0  0  0  0  0
    2.8409   -6.3220    3.6819 H   0  0  0  0  0  0  0  0  0  0  0  0
    0.5550   -2.7779    3.2116 H   0  0  0  0  0  0  0  0  0  0  0  0
    2.7137   -2.4827    5.3069 H   0  0  0  0  0  0  0  0  0  0  0  0
    5.0002   -1.8832    4.2946 H   0  0  0  0  0  0  0  0  0  0  0  0
    6.0511   -0.6896    2.2749 H   0  0  0  0  0  0  0  0  0  0  0  0
    4.2026    0.2595    0.6064 H   0  0  0  0  0  0  0  0  0  0  0  0
  1  2  3  0
  2  3  1  0
  3 19  1  0
  3  4  1  0
  3 25  1  6
  4  5  2  3
  4  6  1  0
  6  7  1  0
  7 18  1  0
  7  8  2  0
  8  9  1  0
  8 26  1  0
  9 10  1  0
  9 15  1  0
  9 27  1  1
 10 14  1  0
 10 11  2  0
 11 12  1  0
 11 28  1  0
 12 13  2  0
 12 29  1  0
 13 14  1  0
 13 30  1  0
 15 16  1  0
 15 31  1  0
 15 32  1  0
 16 17  2  0
 16 18  1  0
 18 19  1  0
 18 33  1  6
 19 20  1  0
 19 34  1  1
 20 24  1  0
 20 21  2  0
 21 22  1  0
 21 35  1  0
 22 23  2  0
 22 36  1  0
 23 24  1  0
 23 37  1  0
M  CHG  1   5  -1
M  END
>  <i_m_ct_stereo_status>  (400) 
1

>  <s_m_source_file>  (400) 
/var/tmp/pbs.5076255.sched01/tmp2gi29psn/132an720x3a.sdf

>  <i_m_source_file_index>  (400) 
29

>  <i_lp_mmshare_version>  (400) 
48012

>  <i_f3d_flags>  (400) 
0

>  <s_epik_input>  (400) 
czFbY0hdW2NIXVtjSF1jMVtDQEBIXShbQ0BIXShDI04pL0MoTzIpPU4vW0hdKVtDQEhdKEMyPTMpQyg9TylbQ0gyXVtDQEBIXShbQ0hdMyljNFtjSF1bY0hdW2NIXW80

>  <s_epik_cmdline>  (400) 
J2VwaWtfcHl0aG9uJywgJy1waHQnLCAnMi4wJywgJy1waCcsICc3LjAnLCAnLXRuJywgJzgnLCAnLW1hJywgJzIwMCcsICctaW1hZScsICc8aW5maWxlLm1hZT4nLCAnLW9tYWUnLCAnPG91dGZpbGUubWFlPic=

>  <r_lp_tautomer_probability>  (400) 
0.99995

>  <r_epik_Ionization_Penalty>  (400) 
1.76836

>  <r_epik_Ionization_Penalty_Charging>  (400) 
1.76836

>  <r_epik_Ionization_Penalty_Neutral>  (400) 
1.02144e-07

>  <r_epik_State_Penalty>  (400) 
2.51367

>  <r_epik_Charging_Adjusted_Penalty>  (400) 
4.28203

>  <i_epik_Tot_Q>  (400) 
-1

>  <i_epik_Tot_abs_Q>  (400) 
1

>  <s_epik_Chemistry_Notes>  (400) 
This compound has an imine and may undergo hydrolysis.

>  <s_lp_Force_Field>  (400) 
OPLS3e

>  <r_lp_Energy>  (400) 
15.2572

>  <b_lp_Chiralities_Consistent>  (400) 
1

>  <s_lp_Variant>  (400) 
108:0-4

>  <s_i_glide_gridfile>  (400) 
pfpi4k_grid

>  <i_i_glide_lignum>  (400) 
29

>  <i_i_glide_rotatable_bonds>  (400) 
3

>  <r_i_docking_score>  (400) 
-2.92949

>  <r_i_glide_ligand_efficiency>  (400) 
-0.122062

>  <r_i_glide_ligand_efficiency_sa>  (400) 
-0.352088

>  <r_i_glide_ligand_efficiency_ln>  (400) 
-0.701161

>  <r_i_glide_gscore>  (400) 
-2.92949

>  <r_i_glide_lipo>  (400) 
-0.25058

>  <r_i_glide_hbond>  (400) 
-0.215094

>  <r_i_glide_metal>  (400) 
-0

>  <r_i_glide_rewards>  (400) 
-1.10882

>  <r_i_glide_evdw>  (400) 
-21.1706

>  <r_i_glide_ecoul>  (400) 
-4.00708

>  <r_i_glide_erotb>  (400) 
0.332072

>  <r_i_glide_esite>  (400) 
-0.0274755

>  <r_i_glide_emodel>  (400) 
-32.2415

>  <r_i_glide_energy>  (400) 
-25.1777

>  <r_i_glide_einternal>  (400) 
0.455285

>  <r_i_glide_intrahb_reward>  (400) 
-0

>  <i_i_glide_confnum>  (400) 
3

>  <i_i_glide_posenum>  (400) 
16

>  <r_i_glide_eff_state_penalty>  (400) 
0

>  <ligand_id>  (400) 
108

>  <original_smiles>  (400) 
N#CC1C(=N)OC2=CC(c3ccco3)CC(=O)C2C1c1cccs1

>  <smiles>  (400) 
[H]C1=C2OC(=[N-])C([H])(C#N)C([H])(c3sc([H])c([H])c3[H])C2([H])C(=O)C([H])([H])C1([H])c1oc([H])c([H])c1[H]

$$$$
109:0:0
     RDKit          3D

 45 49  0  0  1  0  0  0  0  0999 V2000
    5.9841   -5.7294    2.7664 C   0  0  0  0  0  0  0  0  0  0  0  0
    5.1167   -5.1323    1.6636 C   0  0  0  0  0  0  0  0  0  0  0  0
    4.0476   -4.3515    1.8010 C   0  0  0  0  0  0  0  0  0  0  0  0
    4.3928   -2.9968    2.4208 C   0  0  1  0  0  0  0  0  0  0  0  0
    4.3158   -3.0384    3.9685 C   0  0  0  0  0  0  0  0  0  0  0  0
    5.7955   -2.5302    1.8936 C   0  0  2  0  0  0  0  0  0  0  0  0
    5.9308   -1.0581    1.4470 C   0  0  0  0  0  0  0  0  0  0  0  0
    5.4758   -0.9228   -0.0047 C   0  0  1  0  0  0  0  0  0  0  0  0
    6.4230   -1.6414   -0.7352 O   0  0  0  0  0  0  0  0  0  0  0  0
    5.9893   -2.3910   -1.8291 C   0  0  0  0  0  0  0  0  0  0  0  0
    4.7046   -3.1397   -1.5141 C   0  0  1  0  0  0  0  0  0  0  0  0
    4.2266   -3.6235   -2.9085 C   0  0  0  0  0  0  0  0  0  0  0  0
    4.7313   -4.3650   -0.5321 C   0  0  1  0  0  0  0  0  0  0  0  0
    5.8683   -4.6170    0.4972 C   0  0  1  0  0  0  0  0  0  0  0  0
    6.5125   -3.4395    1.0093 O   0  0  0  0  0  0  0  0  0  0  0  0
    3.4743   -4.3006    0.3617 C   0  0  1  0  0  0  0  0  0  0  0  0
    2.5081   -5.4886    0.2911 C   0  0  0  0  0  0  0  0  0  0  0  0
    2.6932   -3.0530   -0.1344 C   0  0  0  0  0  0  0  0  0  0  0  0
    3.6662   -2.1430   -0.9109 C   0  0  2  0  0  0  0  0  0  0  0  0
    3.0272   -1.3256   -1.9052 O   0  0  0  0  0  0  0  0  0  0  0  0
    4.1850   -1.3973    0.1088 O   0  0  0  0  0  0  0  0  0  0  0  0
    6.0535   -6.7951    2.5229 H   0  0  0  0  0  0  0  0  0  0  0  0
    5.5238   -5.6482    3.7519 H   0  0  0  0  0  0  0  0  0  0  0  0
    6.9948   -5.3102    2.7702 H   0  0  0  0  0  0  0  0  0  0  0  0
    3.5962   -2.2958    2.1757 H   0  0  0  0  0  0  0  0  0  0  0  0
    3.3534   -3.4384    4.3013 H   0  0  0  0  0  0  0  0  0  0  0  0
    4.4228   -2.0406    4.3943 H   0  0  0  0  0  0  0  0  0  0  0  0
    5.1021   -3.6486    4.4163 H   0  0  0  0  0  0  0  0  0  0  0  0
    6.3885   -2.5363    2.7863 H   0  0  0  0  0  0  0  0  0  0  0  0
    5.3653   -0.3886    2.0977 H   0  0  0  0  0  0  0  0  0  0  0  0
    6.9762   -0.7657    1.4879 H   0  0  0  0  0  0  0  0  0  0  0  0
    5.4136    0.1042   -0.3370 H   0  0  0  0  0  0  0  0  0  0  0  0
    5.7922   -1.7028   -2.6447 H   0  0  0  0  0  0  0  0  0  0  0  0
    6.7798   -3.0673   -2.1539 H   0  0  0  0  0  0  0  0  0  0  0  0
    3.2224   -4.0227   -2.8182 H   0  0  0  0  0  0  0  0  0  0  0  0
    4.8897   -4.4141   -3.2996 H   0  0  0  0  0  0  0  0  0  0  0  0
    4.1568   -2.8422   -3.6708 H   0  0  0  0  0  0  0  0  0  0  0  0
    4.6596   -5.2804   -1.1143 H   0  0  0  0  0  0  0  0  0  0  0  0
    6.5931   -5.3378    0.1210 H   0  0  0  0  0  0  0  0  0  0  0  0
    2.1105   -5.6234   -0.7112 H   0  0  0  0  0  0  0  0  0  0  0  0
    1.6614   -5.3529    0.9607 H   0  0  0  0  0  0  0  0  0  0  0  0
    2.9903   -6.4193    0.5810 H   0  0  0  0  0  0  0  0  0  0  0  0
    1.9776   -3.4016   -0.8939 H   0  0  0  0  0  0  0  0  0  0  0  0
    2.1401   -2.4900    0.6217 H   0  0  0  0  0  0  0  0  0  0  0  0
    2.1350   -1.1348   -1.5854 H   0  0  0  0  0  0  0  0  0  0  0  0
  1  2  1  0
  1 22  1  0
  1 23  1  0
  1 24  1  0
  2 14  1  0
  2  3  2  0
  3 16  1  0
  3  4  1  0
  4  5  1  0
  4  6  1  0
  4 25  1  6
  5 26  1  0
  5 27  1  0
  5 28  1  0
  6 15  1  0
  6  7  1  0
  6 29  1  1
  7  8  1  0
  7 30  1  0
  7 31  1  0
  8 21  1  0
  8  9  1  0
  8 32  1  6
  9 10  1  0
 10 11  1  0
 10 33  1  0
 10 34  1  0
 11 19  1  0
 11 12  1  6
 11 13  1  0
 12 35  1  0
 12 36  1  0
 12 37  1  0
 13 14  1  0
 13 16  1  0
 13 38  1  6
 14 15  1  0
 14 39  1  6
 16 17  1  6
 16 18  1  0
 17 40  1  0
 17 41  1  0
 17 42  1  0
 18 19  1  0
 18 43  1  0
 18 44  1  0
 19 20  1  6
 19 21  1  0
 20 45  1  0
M  END
>  <i_m_ct_stereo_status>  (401) 
1

>  <s_m_source_file>  (401) 
/var/tmp/pbs.5076255.sched01/tmp2gi29psn/132an720x3a.sdf

>  <i_m_source_file_index>  (401) 
30

>  <i_lp_mmshare_version>  (401) 
48012

>  <i_f3d_flags>  (401) 
0

>  <s_epik_input>  (401) 
W0NIM11bQ0BAXTEyW0NASF0zW0NAQEhdNEMoW0NIM10pPUM1W0NAQF0zKFtDSDNdKVtDSDJdW0NAQF0yKFtPSF0pT1tDQEhdKE9bQ0gyXTEpW0NIMl1bQ0BIXShPNClbQ0BASF01W0NIM10=

>  <s_epik_cmdline>  (401) 
J2VwaWtfcHl0aG9uJywgJy1waHQnLCAnMi4wJywgJy1waCcsICc3LjAnLCAnLXRuJywgJzgnLCAnLW1hJywgJzIwMCcsICctaW1hZScsICc8aW5maWxlLm1hZT4nLCAnLW9tYWUnLCAnPG91dGZpbGUubWFlPic=

>  <r_lp_tautomer_probability>  (401) 
1

>  <r_epik_Ionization_Penalty>  (401) 
4.63021e-08

>  <r_epik_Ionization_Penalty_Charging>  (401) 
0

>  <r_epik_Ionization_Penalty_Neutral>  (401) 
4.63021e-08

>  <r_epik_State_Penalty>  (401) 
-0

>  <r_epik_Charging_Adjusted_Penalty>  (401) 
0

>  <i_epik_Tot_Q>  (401) 
0

>  <i_epik_Tot_abs_Q>  (401) 
0

>  <s_epik_Chemistry_Notes>  (401) 
This compound contains an acetal/aminal-like group ( X-CH(R)-Y where X, Y are N, S, or O) that may be acid/base labile, releasing an aldehyde.

>  <s_lp_Force_Field>  (401) 
OPLS3e

>  <r_lp_Energy>  (401) 
105.325

>  <b_lp_Chiralities_Consistent>  (401) 
1

>  <s_lp_Variant>  (401) 
109:0-1

>  <s_i_glide_gridfile>  (401) 
pfpi4k_grid

>  <i_i_glide_lignum>  (401) 
30

>  <i_i_glide_rotatable_bonds>  (401) 
1

>  <r_i_docking_score>  (401) 
-3.80681

>  <r_i_glide_ligand_efficiency>  (401) 
-0.181276

>  <r_i_glide_ligand_efficiency_sa>  (401) 
-0.500128

>  <r_i_glide_ligand_efficiency_ln>  (401) 
-0.941225

>  <r_i_glide_gscore>  (401) 
-3.80681

>  <r_i_glide_lipo>  (401) 
-0.388688

>  <r_i_glide_hbond>  (401) 
-0.136537

>  <r_i_glide_metal>  (401) 
-0

>  <r_i_glide_rewards>  (401) 
-1.42299

>  <r_i_glide_evdw>  (401) 
-14.2954

>  <r_i_glide_ecoul>  (401) 
-7.24308

>  <r_i_glide_erotb>  (401) 
0

>  <r_i_glide_esite>  (401) 
-0.0573625

>  <r_i_glide_emodel>  (401) 
-24.6038

>  <r_i_glide_energy>  (401) 
-21.5385

>  <r_i_glide_einternal>  (401) 
0.234771

>  <r_i_glide_intrahb_reward>  (401) 
-0

>  <i_i_glide_confnum>  (401) 
1

>  <i_i_glide_posenum>  (401) 
2

>  <r_i_glide_eff_state_penalty>  (401) 
0

>  <ligand_id>  (401) 
109

>  <original_smiles>  (401) 
CC1=C2C(C)C3CC4OCC5(C)C(C1O3)C2(C)CC5(O)O4

>  <smiles>  (401) 
[H]OC12OC3([H])OC([H])([H])C1(C([H])([H])[H])C1([H])C4([H])OC([H])(C3([H])[H])C([H])(C([H])([H])[H])C(=C4C([H])([H])[H])C1(C([H])([H])[H])C2([H])[H]

$$$$
109:0:1
     RDKit          3D

 45 49  0  0  1  0  0  0  0  0999 V2000
    7.5070   -2.9125   -1.0690 C   0  0  0  0  0  0  0  0  0  0  0  0
    6.4466   -2.5676   -0.0541 C   0  0  0  0  0  0  0  0  0  0  0  0
    5.1552   -2.2582   -0.2429 C   0  0  0  0  0  0  0  0  0  0  0  0
    4.3771   -3.4468   -0.8255 C   0  0  1  0  0  0  0  0  0  0  0  0
    4.4270   -3.4330   -2.3662 C   0  0  0  0  0  0  0  0  0  0  0  0
    4.9017   -4.8056   -0.1808 C   0  0  2  0  0  0  0  0  0  0  0  0
    3.8215   -5.7878    0.3618 C   0  0  0  0  0  0  0  0  0  0  0  0
    3.3672   -5.3723    1.7663 C   0  0  1  0  0  0  0  0  0  0  0  0
    4.4919   -5.5648    2.5782 O   0  0  0  0  0  0  0  0  0  0  0  0
    4.7400   -4.6530    3.6111 C   0  0  0  0  0  0  0  0  0  0  0  0
    4.5223   -3.2100    3.1555 C   0  0  1  0  0  0  0  0  0  0  0  0
    4.5915   -2.3210    4.4276 C   0  0  0  0  0  0  0  0  0  0  0  0
    5.5063   -2.5729    2.1098 C   0  0  1  0  0  0  0  0  0  0  0  0
    6.4516   -3.3922    1.1940 C   0  0  1  0  0  0  0  0  0  0  0  0
    5.9949   -4.6846    0.7750 O   0  0  0  0  0  0  0  0  0  0  0  0
    4.6701   -1.7385    1.1196 C   0  0  1  0  0  0  0  0  0  0  0  0
    5.0288   -0.2400    1.1235 C   0  0  0  0  0  0  0  0  0  0  0  0
    3.2010   -1.8425    1.6201 C   0  0  0  0  0  0  0  0  0  0  0  0
    3.1164   -3.1076    2.4837 C   0  0  2  0  0  0  0  0  0  0  0  0
    2.0663   -3.0611    3.4375 O   0  0  0  0  0  0  0  0  0  0  0  0
    2.9256   -4.0853    1.5327 O   0  0  0  0  0  0  0  0  0  0  0  0
    8.3716   -2.2754   -0.8745 H   0  0  0  0  0  0  0  0  0  0  0  0
    7.1947   -2.7282   -2.0986 H   0  0  0  0  0  0  0  0  0  0  0  0
    7.8471   -3.9425   -0.9638 H   0  0  0  0  0  0  0  0  0  0  0  0
    3.3273   -3.2921   -0.6134 H   0  0  0  0  0  0  0  0  0  0  0  0
    4.1270   -2.4619   -2.7617 H   0  0  0  0  0  0  0  0  0  0  0  0
    3.7476   -4.1667   -2.7942 H   0  0  0  0  0  0  0  0  0  0  0  0
    5.4083   -3.6831   -2.7657 H   0  0  0  0  0  0  0  0  0  0  0  0
    5.3699   -5.3482   -1.0037 H   0  0  0  0  0  0  0  0  0  0  0  0
    2.9638   -5.8237   -0.3144 H   0  0  0  0  0  0  0  0  0  0  0  0
    4.2237   -6.7963    0.4191 H   0  0  0  0  0  0  0  0  0  0  0  0
    2.5343   -5.9589    2.1473 H   0  0  0  0  0  0  0  0  0  0  0  0
    4.0774   -4.8919    4.4443 H   0  0  0  0  0  0  0  0  0  0  0  0
    5.7601   -4.8085    3.9595 H   0  0  0  0  0  0  0  0  0  0  0  0
    4.3802   -1.2699    4.2189 H   0  0  0  0  0  0  0  0  0  0  0  0
    5.5867   -2.3622    4.8784 H   0  0  0  0  0  0  0  0  0  0  0  0
    3.8933   -2.6478    5.2034 H   0  0  0  0  0  0  0  0  0  0  0  0
    6.1655   -1.8864    2.6359 H   0  0  0  0  0  0  0  0  0  0  0  0
    7.4456   -3.4712    1.6321 H   0  0  0  0  0  0  0  0  0  0  0  0
    4.9027    0.2051    2.1058 H   0  0  0  0  0  0  0  0  0  0  0  0
    4.3856    0.3047    0.4286 H   0  0  0  0  0  0  0  0  0  0  0  0
    6.0563   -0.0514    0.8087 H   0  0  0  0  0  0  0  0  0  0  0  0
    3.0096   -1.0166    2.3026 H   0  0  0  0  0  0  0  0  0  0  0  0
    2.4208   -1.8061    0.8510 H   0  0  0  0  0  0  0  0  0  0  0  0
    1.2920   -2.7492    2.9787 H   0  0  0  0  0  0  0  0  0  0  0  0
  1  2  1  0
  1 22  1  0
  1 23  1  0
  1 24  1  0
  2 14  1  0
  2  3  2  0
  3 16  1  0
  3  4  1  0
  4  5  1  0
  4  6  1  0
  4 25  1  6
  5 26  1  0
  5 27  1  0
  5 28  1  0
  6 15  1  0
  6  7  1  0
  6 29  1  6
  7  8  1  0
  7 30  1  0
  7 31  1  0
  8 21  1  0
  8  9  1  0
  8 32  1  1
  9 10  1  0
 10 11  1  0
 10 33  1  0
 10 34  1  0
 11 19  1  0
 11 12  1  1
 11 13  1  0
 12 35  1  0
 12 36  1  0
 12 37  1  0
 13 14  1  0
 13 16  1  0
 13 38  1  1
 14 15  1  0
 14 39  1  1
 16 17  1  6
 16 18  1  0
 17 40  1  0
 17 41  1  0
 17 42  1  0
 18 19  1  0
 18 43  1  0
 18 44  1  0
 19 20  1  1
 19 21  1  0
 20 45  1  0
M  END
>  <i_m_ct_stereo_status>  (402) 
1

>  <s_m_source_file>  (402) 
/var/tmp/pbs.5076255.sched01/tmp2gi29psn/132an720x3a.sdf

>  <i_m_source_file_index>  (402) 
30

>  <i_lp_mmshare_version>  (402) 
48012

>  <i_f3d_flags>  (402) 
0

>  <s_epik_input>  (402) 
W0NIM11bQ0BAXTEyW0NASF0zW0NAQEhdNEMoW0NIM10pPUM1W0NAQF0zKFtDSDNdKVtDSDJdW0NAQF0yKFtPSF0pT1tDQEhdKE9bQ0gyXTEpW0NIMl1bQ0BIXShPNClbQ0BASF01W0NIM10=

>  <s_epik_cmdline>  (402) 
J2VwaWtfcHl0aG9uJywgJy1waHQnLCAnMi4wJywgJy1waCcsICc3LjAnLCAnLXRuJywgJzgnLCAnLW1hJywgJzIwMCcsICctaW1hZScsICc8aW5maWxlLm1hZT4nLCAnLW9tYWUnLCAnPG91dGZpbGUubWFlPic=

>  <r_lp_tautomer_probability>  (402) 
1

>  <r_epik_Ionization_Penalty>  (402) 
4.63021e-08

>  <r_epik_Ionization_Penalty_Charging>  (402) 
0

>  <r_epik_Ionization_Penalty_Neutral>  (402) 
4.63021e-08

>  <r_epik_State_Penalty>  (402) 
-0

>  <r_epik_Charging_Adjusted_Penalty>  (402) 
0

>  <i_epik_Tot_Q>  (402) 
0

>  <i_epik_Tot_abs_Q>  (402) 
0

>  <s_epik_Chemistry_Notes>  (402) 
This compound contains an acetal/aminal-like group ( X-CH(R)-Y where X, Y are N, S, or O) that may be acid/base labile, releasing an aldehyde.

>  <s_lp_Force_Field>  (402) 
OPLS3e

>  <r_lp_Energy>  (402) 
105.325

>  <b_lp_Chiralities_Consistent>  (402) 
1

>  <s_lp_Variant>  (402) 
109:0-1

>  <s_i_glide_gridfile>  (402) 
pfpi4k_grid

>  <i_i_glide_lignum>  (402) 
30

>  <i_i_glide_rotatable_bonds>  (402) 
1

>  <r_i_docking_score>  (402) 
-3.22532

>  <r_i_glide_ligand_efficiency>  (402) 
-0.153587

>  <r_i_glide_ligand_efficiency_sa>  (402) 
-0.423734

>  <r_i_glide_ligand_efficiency_ln>  (402) 
-0.797455

>  <r_i_glide_gscore>  (402) 
-3.22532

>  <r_i_glide_lipo>  (402) 
-0.440873

>  <r_i_glide_hbond>  (402) 
0

>  <r_i_glide_metal>  (402) 
-0

>  <r_i_glide_rewards>  (402) 
-1.42346

>  <r_i_glide_evdw>  (402) 
-20.573

>  <r_i_glide_ecoul>  (402) 
-2.21562

>  <r_i_glide_erotb>  (402) 
0

>  <r_i_glide_esite>  (402) 
0

>  <r_i_glide_emodel>  (402) 
-25.8003

>  <r_i_glide_energy>  (402) 
-22.7886

>  <r_i_glide_einternal>  (402) 
0.125471

>  <r_i_glide_intrahb_reward>  (402) 
-0

>  <i_i_glide_confnum>  (402) 
1

>  <i_i_glide_posenum>  (402) 
8

>  <r_i_glide_eff_state_penalty>  (402) 
0

>  <ligand_id>  (402) 
109

>  <original_smiles>  (402) 
CC1=C2C(C)C3CC4OCC5(C)C(C1O3)C2(C)CC5(O)O4

>  <smiles>  (402) 
[H]OC12OC3([H])OC([H])([H])C1(C([H])([H])[H])C1([H])C4([H])OC([H])(C3([H])[H])C([H])(C([H])([H])[H])C(=C4C([H])([H])[H])C1(C([H])([H])[H])C2([H])[H]

$$$$
109:0:2
     RDKit          3D

 45 49  0  0  1  0  0  0  0  0999 V2000
    7.4554   -2.8638   -1.0584 C   0  0  0  0  0  0  0  0  0  0  0  0
    6.4001   -2.5518   -0.0238 C   0  0  0  0  0  0  0  0  0  0  0  0
    5.0995   -2.2657   -0.1919 C   0  0  0  0  0  0  0  0  0  0  0  0
    4.3429   -3.4586   -0.7910 C   0  0  1  0  0  0  0  0  0  0  0  0
    4.3770   -3.4224   -2.3333 C   0  0  0  0  0  0  0  0  0  0  0  0
    4.9006   -4.8175   -0.1776 C   0  0  2  0  0  0  0  0  0  0  0  0
    3.8434   -5.8308    0.3525 C   0  0  0  0  0  0  0  0  0  0  0  0
    3.3990   -5.4593    1.7700 C   0  0  1  0  0  0  0  0  0  0  0  0
    4.5286   -5.6445    2.5685 O   0  0  0  0  0  0  0  0  0  0  0  0
    4.7791   -4.7449    3.6137 C   0  0  0  0  0  0  0  0  0  0  0  0
    4.5276   -3.2994    3.1903 C   0  0  1  0  0  0  0  0  0  0  0  0
    4.5882   -2.4311    4.4786 C   0  0  0  0  0  0  0  0  0  0  0  0
    5.4812   -2.6177    2.1456 C   0  0  1  0  0  0  0  0  0  0  0  0
    6.4360   -3.3968    1.2062 C   0  0  1  0  0  0  0  0  0  0  0  0
    5.9988   -4.6903    0.7702 O   0  0  0  0  0  0  0  0  0  0  0  0
    4.6184   -1.7764    1.1851 C   0  0  1  0  0  0  0  0  0  0  0  0
    4.9501   -0.2568    1.2114 C   0  0  0  0  0  0  0  0  0  0  0  0
    3.1552   -1.9297    1.7004 C   0  0  0  0  0  0  0  0  0  0  0  0
    3.1143   -3.2188    2.5388 C   0  0  2  0  0  0  0  0  0  0  0  0
    2.0634   -3.2204    3.5000 O   0  0  0  0  0  0  0  0  0  0  0  0
    2.9334   -4.1793    1.5689 O   0  0  0  0  0  0  0  0  0  0  0  0
    8.3152   -2.2230   -0.8510 H   0  0  0  0  0  0  0  0  0  0  0  0
    7.1299   -2.6565   -2.0797 H   0  0  0  0  0  0  0  0  0  0  0  0
    7.8071   -3.8957   -0.9836 H   0  0  0  0  0  0  0  0  0  0  0  0
    3.2917   -3.3244   -0.5669 H   0  0  0  0  0  0  0  0  0  0  0  0
    4.0565   -2.4443   -2.7063 H   0  0  0  0  0  0  0  0  0  0  0  0
    3.7046   -4.1537   -2.7689 H   0  0  0  0  0  0  0  0  0  0  0  0
    5.3597   -3.6440   -2.7451 H   0  0  0  0  0  0  0  0  0  0  0  0
    5.3698   -5.3354   -1.0159 H   0  0  0  0  0  0  0  0  0  0  0  0
    2.9814   -5.8635   -0.3172 H   0  0  0  0  0  0  0  0  0  0  0  0
    4.2650   -6.8317    0.3868 H   0  0  0  0  0  0  0  0  0  0  0  0
    2.5749   -6.0639    2.1411 H   0  0  0  0  0  0  0  0  0  0  0  0
    4.1310   -5.0093    4.4493 H   0  0  0  0  0  0  0  0  0  0  0  0
    5.8051   -4.8847    3.9477 H   0  0  0  0  0  0  0  0  0  0  0  0
    4.3521   -1.3807    4.2893 H   0  0  0  0  0  0  0  0  0  0  0  0
    5.5905   -2.4620    4.9150 H   0  0  0  0  0  0  0  0  0  0  0  0
    3.9064   -2.7866    5.2561 H   0  0  0  0  0  0  0  0  0  0  0  0
    6.1329   -1.9297    2.6798 H   0  0  0  0  0  0  0  0  0  0  0  0
    7.4352   -3.4657    1.6332 H   0  0  0  0  0  0  0  0  0  0  0  0
    4.8259    0.1609    2.2052 H   0  0  0  0  0  0  0  0  0  0  0  0
    4.2944    0.2820    0.5257 H   0  0  0  0  0  0  0  0  0  0  0  0
    5.9756   -0.0544    0.8946 H   0  0  0  0  0  0  0  0  0  0  0  0
    2.9455   -1.1191    2.3952 H   0  0  0  0  0  0  0  0  0  0  0  0
    2.3687   -1.8974    0.9380 H   0  0  0  0  0  0  0  0  0  0  0  0
    2.1678   -4.0089    4.0270 H   0  0  0  0  0  0  0  0  0  0  0  0
  1  2  1  0
  1 22  1  0
  1 23  1  0
  1 24  1  0
  2 14  1  0
  2  3  2  0
  3 16  1  0
  3  4  1  0
  4  5  1  0
  4  6  1  0
  4 25  1  6
  5 26  1  0
  5 27  1  0
  5 28  1  0
  6 15  1  0
  6  7  1  0
  6 29  1  6
  7  8  1  0
  7 30  1  0
  7 31  1  0
  8 21  1  0
  8  9  1  0
  8 32  1  1
  9 10  1  0
 10 11  1  0
 10 33  1  0
 10 34  1  0
 11 19  1  0
 11 12  1  1
 11 13  1  0
 12 35  1  0
 12 36  1  0
 12 37  1  0
 13 14  1  0
 13 16  1  0
 13 38  1  1
 14 15  1  0
 14 39  1  1
 16 17  1  6
 16 18  1  0
 17 40  1  0
 17 41  1  0
 17 42  1  0
 18 19  1  0
 18 43  1  0
 18 44  1  0
 19 20  1  1
 19 21  1  0
 20 45  1  0
M  END
>  <i_m_ct_stereo_status>  (403) 
1

>  <s_m_source_file>  (403) 
/var/tmp/pbs.5076255.sched01/tmp2gi29psn/132an720x3a.sdf

>  <i_m_source_file_index>  (403) 
30

>  <i_lp_mmshare_version>  (403) 
48012

>  <i_f3d_flags>  (403) 
0

>  <s_epik_input>  (403) 
W0NIM11bQ0BAXTEyW0NASF0zW0NAQEhdNEMoW0NIM10pPUM1W0NAQF0zKFtDSDNdKVtDSDJdW0NAQF0yKFtPSF0pT1tDQEhdKE9bQ0gyXTEpW0NIMl1bQ0BIXShPNClbQ0BASF01W0NIM10=

>  <s_epik_cmdline>  (403) 
J2VwaWtfcHl0aG9uJywgJy1waHQnLCAnMi4wJywgJy1waCcsICc3LjAnLCAnLXRuJywgJzgnLCAnLW1hJywgJzIwMCcsICctaW1hZScsICc8aW5maWxlLm1hZT4nLCAnLW9tYWUnLCAnPG91dGZpbGUubWFlPic=

>  <r_lp_tautomer_probability>  (403) 
1

>  <r_epik_Ionization_Penalty>  (403) 
4.63021e-08

>  <r_epik_Ionization_Penalty_Charging>  (403) 
0

>  <r_epik_Ionization_Penalty_Neutral>  (403) 
4.63021e-08

>  <r_epik_State_Penalty>  (403) 
-0

>  <r_epik_Charging_Adjusted_Penalty>  (403) 
0

>  <i_epik_Tot_Q>  (403) 
0

>  <i_epik_Tot_abs_Q>  (403) 
0

>  <s_epik_Chemistry_Notes>  (403) 
This compound contains an acetal/aminal-like group ( X-CH(R)-Y where X, Y are N, S, or O) that may be acid/base labile, releasing an aldehyde.

>  <s_lp_Force_Field>  (403) 
OPLS3e

>  <r_lp_Energy>  (403) 
105.325

>  <b_lp_Chiralities_Consistent>  (403) 
1

>  <s_lp_Variant>  (403) 
109:0-1

>  <s_i_glide_gridfile>  (403) 
pfpi4k_grid

>  <i_i_glide_lignum>  (403) 
30

>  <i_i_glide_rotatable_bonds>  (403) 
1

>  <r_i_docking_score>  (403) 
-2.86842

>  <r_i_glide_ligand_efficiency>  (403) 
-0.136591

>  <r_i_glide_ligand_efficiency_sa>  (403) 
-0.376845

>  <r_i_glide_ligand_efficiency_ln>  (403) 
-0.70921

>  <r_i_glide_gscore>  (403) 
-2.86842

>  <r_i_glide_lipo>  (403) 
-0.440519

>  <r_i_glide_hbond>  (403) 
0

>  <r_i_glide_metal>  (403) 
-0

>  <r_i_glide_rewards>  (403) 
-1.42747

>  <r_i_glide_evdw>  (403) 
-20.4889

>  <r_i_glide_ecoul>  (403) 
0.160096

>  <r_i_glide_erotb>  (403) 
0

>  <r_i_glide_esite>  (403) 
-8.60402e-07

>  <r_i_glide_emodel>  (403) 
-23.1389

>  <r_i_glide_energy>  (403) 
-20.3288

>  <r_i_glide_einternal>  (403) 
0.00638208

>  <r_i_glide_intrahb_reward>  (403) 
-0

>  <i_i_glide_confnum>  (403) 
1

>  <i_i_glide_posenum>  (403) 
6

>  <r_i_glide_eff_state_penalty>  (403) 
0

>  <ligand_id>  (403) 
109

>  <original_smiles>  (403) 
CC1=C2C(C)C3CC4OCC5(C)C(C1O3)C2(C)CC5(O)O4

>  <smiles>  (403) 
[H]OC12OC3([H])OC([H])([H])C1(C([H])([H])[H])C1([H])C4([H])OC([H])(C3([H])[H])C([H])(C([H])([H])[H])C(=C4C([H])([H])[H])C1(C([H])([H])[H])C2([H])[H]

$$$$
110:0:0
     RDKit          3D

 28 31  0  0  1  0  0  0  0  0999 V2000
    3.8092    0.5427   -4.2145 C   0  0  0  0  0  0  0  0  0  0  0  0
    3.9035   -0.7715   -3.6055 N   0  0  0  0  0  0  0  0  0  0  0  0
    4.3569   -1.1302   -2.3486 C   0  0  0  0  0  0  0  0  0  0  0  0
    4.2595   -2.4909   -2.2269 C   0  0  0  0  0  0  0  0  0  0  0  0
    4.6137   -3.3547   -1.0832 C   0  0  0  0  0  0  0  0  0  0  0  0
    3.8603   -4.2707   -0.2422 C   0  0  0  0  0  0  0  0  0  0  0  0
    2.4810   -4.6351   -0.2489 C   0  0  0  0  0  0  0  0  0  0  0  0
    1.5060   -4.1442   -1.1251 N   0  0  0  0  0  0  0  0  0  0  0  0
    2.0367   -5.5182    0.6721 N   0  0  0  0  0  0  0  0  0  0  0  0
    2.9617   -5.9974    1.5502 C   0  0  0  0  0  0  0  0  0  0  0  0
    4.2851   -5.7080    1.6185 N   0  0  0  0  0  0  0  0  0  0  0  0
    4.7048   -4.8372    0.7072 N   0  0  0  0  0  0  0  0  0  0  0  0
    5.9341   -4.3453    0.5104 C   0  0  0  0  0  0  0  0  0  0  0  0
    7.1692   -4.3992    0.9546 N   0  0  0  0  0  0  0  0  0  0  0  0
    7.9297   -3.5173    0.1268 N   0  0  0  0  0  0  0  0  0  0  0  0
    7.0711   -2.9942   -0.7690 C   0  0  0  0  0  0  0  0  0  0  0  0
    5.8630   -3.4831   -0.5327 N   0  0  0  0  0  0  0  0  0  0  0  0
    3.7227   -2.8720   -3.4966 C   0  0  0  0  0  0  0  0  0  0  0  0
    3.5315   -1.8514   -4.3106 N   0  0  0  0  0  0  0  0  0  0  0  0
    4.1907    1.3003   -3.5309 H   0  0  0  0  0  0  0  0  0  0  0  0
    2.7701    0.7721   -4.4666 H   0  0  0  0  0  0  0  0  0  0  0  0
    4.4057    0.5804   -5.1286 H   0  0  0  0  0  0  0  0  0  0  0  0
    4.6885   -0.3781   -1.6496 H   0  0  0  0  0  0  0  0  0  0  0  0
    0.5988   -4.5891   -1.1798 H   0  0  0  0  0  0  0  0  0  0  0  0
    2.6223   -6.6912    2.2967 H   0  0  0  0  0  0  0  0  0  0  0  0
    7.3186   -2.3008   -1.5600 H   0  0  0  0  0  0  0  0  0  0  0  0
    3.4676   -3.8507   -3.8617 H   0  0  0  0  0  0  0  0  0  0  0  0
    1.7200   -3.5899   -1.9455 H   0  0  0  0  0  0  0  0  0  0  0  0
  1  2  1  0
  1 20  1  0
  1 21  1  0
  1 22  1  0
  2 19  1  0
  2  3  1  0
  3  4  2  0
  3 23  1  0
  4  5  1  0
  4 18  1  0
  5 17  1  0
  5  6  2  0
  6 12  1  0
  6  7  1  0
  7  8  1  0
  7  9  2  0
  8 24  1  0
  8 28  1  0
  9 10  1  0
 10 11  2  0
 10 25  1  0
 11 12  1  0
 12 13  1  0
 13 17  1  0
 13 14  2  0
 14 15  1  0
 15 16  2  0
 16 17  1  0
 16 26  1  0
 18 19  2  0
 18 27  1  0
M  END
>  <i_m_ct_stereo_status>  (404) 
1

>  <s_m_source_file>  (404) 
/var/tmp/pbs.5076255.sched01/tmp2gi29psn/132an720x3a.sdf

>  <i_m_source_file_index>  (404) 
31

>  <i_lp_mmshare_version>  (404) 
48012

>  <i_f3d_flags>  (404) 
0

>  <s_epik_input>  (404) 
W0NIM11uMVtjSF1jKFtjSF1uMSktYzJuKFtjSF1ubjMpYzNuKGMyNCluW2NIXVtuSF1jXDQ9Ti9bSF0=

>  <s_epik_cmdline>  (404) 
J2VwaWtfcHl0aG9uJywgJy1waHQnLCAnMi4wJywgJy1waCcsICc3LjAnLCAnLXRuJywgJzgnLCAnLW1hJywgJzIwMCcsICctaW1hZScsICc8aW5maWxlLm1hZT4nLCAnLW9tYWUnLCAnPG91dGZpbGUubWFlPic=

>  <r_lp_tautomer_probability>  (404) 
1

>  <r_epik_Ionization_Penalty>  (404) 
9.76738e-05

>  <r_epik_Ionization_Penalty_Charging>  (404) 
0

>  <r_epik_Ionization_Penalty_Neutral>  (404) 
9.76738e-05

>  <r_epik_State_Penalty>  (404) 
-0

>  <r_epik_Charging_Adjusted_Penalty>  (404) 
0

>  <i_epik_Tot_Q>  (404) 
0

>  <i_epik_Tot_abs_Q>  (404) 
0

>  <s_lp_Force_Field>  (404) 
OPLS3e

>  <r_lp_Energy>  (404) 
12.1319

>  <b_lp_Chiralities_Consistent>  (404) 
1

>  <s_lp_Variant>  (404) 
110:0-1

>  <s_i_glide_gridfile>  (404) 
pfpi4k_grid

>  <i_i_glide_lignum>  (404) 
31

>  <i_i_glide_rotatable_bonds>  (404) 
1

>  <r_i_docking_score>  (404) 
-4.68925

>  <r_i_glide_ligand_efficiency>  (404) 
-0.246803

>  <r_i_glide_ligand_efficiency_sa>  (404) 
-0.658569

>  <r_i_glide_ligand_efficiency_ln>  (404) 
-1.18883

>  <r_i_glide_gscore>  (404) 
-4.68925

>  <r_i_glide_lipo>  (404) 
-0.258466

>  <r_i_glide_hbond>  (404) 
-0.361651

>  <r_i_glide_metal>  (404) 
-0

>  <r_i_glide_rewards>  (404) 
-2.3649

>  <r_i_glide_evdw>  (404) 
-25.9224

>  <r_i_glide_ecoul>  (404) 
-4.08249

>  <r_i_glide_erotb>  (404) 
0.270209

>  <r_i_glide_esite>  (404) 
-0.065952

>  <r_i_glide_emodel>  (404) 
-37.4087

>  <r_i_glide_energy>  (404) 
-30.0049

>  <r_i_glide_einternal>  (404) 
2.50662

>  <r_i_glide_intrahb_reward>  (404) 
-0

>  <i_i_glide_confnum>  (404) 
4

>  <i_i_glide_posenum>  (404) 
16

>  <r_i_glide_eff_state_penalty>  (404) 
0

>  <ligand_id>  (404) 
110

>  <original_smiles>  (404) 
Cn1cc(-c2c3c(=N)[nH]cnn3c3nncn23)cn1

>  <smiles>  (404) 
[H]c1nc(N([H])[H])c2c(-c3c([H])nn(C([H])([H])[H])c3[H])n3c([H])nnc3n2n1

$$$$
110:0:1
     RDKit          3D

 28 31  0  0  1  0  0  0  0  0999 V2000
    4.5875   -0.9228    0.0636 C   0  0  0  0  0  0  0  0  0  0  0  0
    3.7173   -1.3390    1.1368 N   0  0  0  0  0  0  0  0  0  0  0  0
    2.6635   -0.6505    1.6705 C   0  0  0  0  0  0  0  0  0  0  0  0
    2.0936   -1.3902    2.6706 C   0  0  0  0  0  0  0  0  0  0  0  0
    0.9358   -1.0982    3.5623 C   0  0  0  0  0  0  0  0  0  0  0  0
    0.0375    0.0521    3.7320 C   0  0  0  0  0  0  0  0  0  0  0  0
   -0.0576    1.3201    3.0797 C   0  0  0  0  0  0  0  0  0  0  0  0
    0.7527    1.7614    2.0427 N   0  0  0  0  0  0  0  0  0  0  0  0
   -0.9941    2.2048    3.4738 N   0  0  0  0  0  0  0  0  0  0  0  0
   -1.8002    1.8204    4.4878 C   0  0  0  0  0  0  0  0  0  0  0  0
   -1.7857    0.6444    5.1590 N   0  0  0  0  0  0  0  0  0  0  0  0
   -0.8634   -0.2180    4.7485 N   0  0  0  0  0  0  0  0  0  0  0  0
   -0.6168   -1.4383    5.2135 C   0  0  0  0  0  0  0  0  0  0  0  0
   -1.0430   -2.3021    6.1023 N   0  0  0  0  0  0  0  0  0  0  0  0
   -0.1996   -3.4383    5.9818 N   0  0  0  0  0  0  0  0  0  0  0  0
    0.6748   -3.1685    4.9964 C   0  0  0  0  0  0  0  0  0  0  0  0
    0.4295   -1.9481    4.5233 N   0  0  0  0  0  0  0  0  0  0  0  0
    2.9260   -2.5560    2.6465 C   0  0  0  0  0  0  0  0  0  0  0  0
    3.8881   -2.5250    1.7396 N   0  0  0  0  0  0  0  0  0  0  0  0
    4.2997    0.0700   -0.2920 H   0  0  0  0  0  0  0  0  0  0  0  0
    4.5074   -1.6277   -0.7637 H   0  0  0  0  0  0  0  0  0  0  0  0
    5.6152   -0.8806    0.4241 H   0  0  0  0  0  0  0  0  0  0  0  0
    2.4651    0.3077    1.2286 H   0  0  0  0  0  0  0  0  0  0  0  0
    0.5767    2.6710    1.6046 H   0  0  0  0  0  0  0  0  0  0  0  0
   -2.5523    2.5303    4.7864 H   0  0  0  0  0  0  0  0  0  0  0  0
    1.4341   -3.8635    4.6740 H   0  0  0  0  0  0  0  0  0  0  0  0
    2.8777   -3.4364    3.2622 H   0  0  0  0  0  0  0  0  0  0  0  0
    1.4261    1.1650    1.5924 H   0  0  0  0  0  0  0  0  0  0  0  0
  1  2  1  0
  1 20  1  0
  1 21  1  0
  1 22  1  0
  2 19  1  0
  2  3  1  0
  3  4  2  0
  3 23  1  0
  4  5  1  0
  4 18  1  0
  5 17  1  0
  5  6  2  0
  6 12  1  0
  6  7  1  0
  7  8  1  0
  7  9  2  0
  8 24  1  0
  8 28  1  0
  9 10  1  0
 10 11  2  0
 10 25  1  0
 11 12  1  0
 12 13  1  0
 13 17  1  0
 13 14  2  0
 14 15  1  0
 15 16  2  0
 16 17  1  0
 16 26  1  0
 18 19  2  0
 18 27  1  0
M  END
>  <i_m_ct_stereo_status>  (405) 
1

>  <s_m_source_file>  (405) 
/var/tmp/pbs.5076255.sched01/tmp2gi29psn/132an720x3a.sdf

>  <i_m_source_file_index>  (405) 
31

>  <i_lp_mmshare_version>  (405) 
48012

>  <i_f3d_flags>  (405) 
0

>  <s_epik_input>  (405) 
W0NIM11uMVtjSF1jKFtjSF1uMSktYzJuKFtjSF1ubjMpYzNuKGMyNCluW2NIXVtuSF1jXDQ9Ti9bSF0=

>  <s_epik_cmdline>  (405) 
J2VwaWtfcHl0aG9uJywgJy1waHQnLCAnMi4wJywgJy1waCcsICc3LjAnLCAnLXRuJywgJzgnLCAnLW1hJywgJzIwMCcsICctaW1hZScsICc8aW5maWxlLm1hZT4nLCAnLW9tYWUnLCAnPG91dGZpbGUubWFlPic=

>  <r_lp_tautomer_probability>  (405) 
1

>  <r_epik_Ionization_Penalty>  (405) 
9.76738e-05

>  <r_epik_Ionization_Penalty_Charging>  (405) 
0

>  <r_epik_Ionization_Penalty_Neutral>  (405) 
9.76738e-05

>  <r_epik_State_Penalty>  (405) 
-0

>  <r_epik_Charging_Adjusted_Penalty>  (405) 
0

>  <i_epik_Tot_Q>  (405) 
0

>  <i_epik_Tot_abs_Q>  (405) 
0

>  <s_lp_Force_Field>  (405) 
OPLS3e

>  <r_lp_Energy>  (405) 
12.1319

>  <b_lp_Chiralities_Consistent>  (405) 
1

>  <s_lp_Variant>  (405) 
110:0-1

>  <s_i_glide_gridfile>  (405) 
pfpi4k_grid

>  <i_i_glide_lignum>  (405) 
31

>  <i_i_glide_rotatable_bonds>  (405) 
1

>  <r_i_docking_score>  (405) 
-3.64638

>  <r_i_glide_ligand_efficiency>  (405) 
-0.191915

>  <r_i_glide_ligand_efficiency_sa>  (405) 
-0.512106

>  <r_i_glide_ligand_efficiency_ln>  (405) 
-0.924436

>  <r_i_glide_gscore>  (405) 
-3.64638

>  <r_i_glide_lipo>  (405) 
-0.00379058

>  <r_i_glide_hbond>  (405) 
-0.16

>  <r_i_glide_metal>  (405) 
-0

>  <r_i_glide_rewards>  (405) 
-1.69866

>  <r_i_glide_evdw>  (405) 
-21.9576

>  <r_i_glide_ecoul>  (405) 
-4.80044

>  <r_i_glide_erotb>  (405) 
0.270209

>  <r_i_glide_esite>  (405) 
-0.236188

>  <r_i_glide_emodel>  (405) 
-33.5485

>  <r_i_glide_energy>  (405) 
-26.758

>  <r_i_glide_einternal>  (405) 
0.0135169

>  <r_i_glide_intrahb_reward>  (405) 
-0

>  <i_i_glide_confnum>  (405) 
3

>  <i_i_glide_posenum>  (405) 
12

>  <r_i_glide_eff_state_penalty>  (405) 
0

>  <ligand_id>  (405) 
110

>  <original_smiles>  (405) 
Cn1cc(-c2c3c(=N)[nH]cnn3c3nncn23)cn1

>  <smiles>  (405) 
[H]c1nc(N([H])[H])c2c(-c3c([H])nn(C([H])([H])[H])c3[H])n3c([H])nnc3n2n1

$$$$
110:0:2
     RDKit          3D

 28 31  0  0  1  0  0  0  0  0999 V2000
    4.7572   -3.2721    0.8227 C   0  0  0  0  0  0  0  0  0  0  0  0
    3.7965   -2.3542    1.3759 N   0  0  0  0  0  0  0  0  0  0  0  0
    2.7795   -2.5704    2.2803 C   0  0  0  0  0  0  0  0  0  0  0  0
    2.1353   -1.3801    2.5129 C   0  0  0  0  0  0  0  0  0  0  0  0
    0.9838   -1.0900    3.4091 C   0  0  0  0  0  0  0  0  0  0  0  0
    0.0739    0.0533    3.5754 C   0  0  0  0  0  0  0  0  0  0  0  0
   -0.0380    1.3053    2.8912 C   0  0  0  0  0  0  0  0  0  0  0  0
    0.7279    1.7458    1.8180 N   0  0  0  0  0  0  0  0  0  0  0  0
   -0.9825    2.1827    3.2813 N   0  0  0  0  0  0  0  0  0  0  0  0
   -1.7881    1.8052    4.2960 C   0  0  0  0  0  0  0  0  0  0  0  0
   -1.7745    0.6404    4.9875 N   0  0  0  0  0  0  0  0  0  0  0  0
   -0.8288   -0.2105    4.5990 N   0  0  0  0  0  0  0  0  0  0  0  0
   -0.5695   -1.4339    5.0812 C   0  0  0  0  0  0  0  0  0  0  0  0
   -0.9824   -2.2929    5.9783 N   0  0  0  0  0  0  0  0  0  0  0  0
   -0.1255   -3.4218    5.8478 N   0  0  0  0  0  0  0  0  0  0  0  0
    0.7481   -3.1410    4.8627 C   0  0  0  0  0  0  0  0  0  0  0  0
    0.4827   -1.9327    4.3814 N   0  0  0  0  0  0  0  0  0  0  0  0
    2.9028   -0.4966    1.6786 C   0  0  0  0  0  0  0  0  0  0  0  0
    3.8698   -1.0762    1.0025 N   0  0  0  0  0  0  0  0  0  0  0  0
    4.5767   -4.2624    1.2336 H   0  0  0  0  0  0  0  0  0  0  0  0
    5.7653   -2.9412    1.0835 H   0  0  0  0  0  0  0  0  0  0  0  0
    4.6488   -3.2958   -0.2645 H   0  0  0  0  0  0  0  0  0  0  0  0
    2.6225   -3.5631    2.6792 H   0  0  0  0  0  0  0  0  0  0  0  0
    0.5747    2.6641    1.4129 H   0  0  0  0  0  0  0  0  0  0  0  0
   -2.5476    2.5080    4.5909 H   0  0  0  0  0  0  0  0  0  0  0  0
    1.5322   -3.8071    4.5305 H   0  0  0  0  0  0  0  0  0  0  0  0
    2.8421    0.5606    1.5238 H   0  0  0  0  0  0  0  0  0  0  0  0
    1.4356    1.1682    1.3779 H   0  0  0  0  0  0  0  0  0  0  0  0
  1  2  1  0
  1 20  1  0
  1 21  1  0
  1 22  1  0
  2 19  1  0
  2  3  1  0
  3  4  2  0
  3 23  1  0
  4  5  1  0
  4 18  1  0
  5 17  1  0
  5  6  2  0
  6 12  1  0
  6  7  1  0
  7  8  1  0
  7  9  2  0
  8 24  1  0
  8 28  1  0
  9 10  1  0
 10 11  2  0
 10 25  1  0
 11 12  1  0
 12 13  1  0
 13 17  1  0
 13 14  2  0
 14 15  1  0
 15 16  2  0
 16 17  1  0
 16 26  1  0
 18 19  2  0
 18 27  1  0
M  END
>  <i_m_ct_stereo_status>  (406) 
1

>  <s_m_source_file>  (406) 
/var/tmp/pbs.5076255.sched01/tmp2gi29psn/132an720x3a.sdf

>  <i_m_source_file_index>  (406) 
31

>  <i_lp_mmshare_version>  (406) 
48012

>  <i_f3d_flags>  (406) 
0

>  <s_epik_input>  (406) 
W0NIM11uMVtjSF1jKFtjSF1uMSktYzJuKFtjSF1ubjMpYzNuKGMyNCluW2NIXVtuSF1jXDQ9Ti9bSF0=

>  <s_epik_cmdline>  (406) 
J2VwaWtfcHl0aG9uJywgJy1waHQnLCAnMi4wJywgJy1waCcsICc3LjAnLCAnLXRuJywgJzgnLCAnLW1hJywgJzIwMCcsICctaW1hZScsICc8aW5maWxlLm1hZT4nLCAnLW9tYWUnLCAnPG91dGZpbGUubWFlPic=

>  <r_lp_tautomer_probability>  (406) 
1

>  <r_epik_Ionization_Penalty>  (406) 
9.76738e-05

>  <r_epik_Ionization_Penalty_Charging>  (406) 
0

>  <r_epik_Ionization_Penalty_Neutral>  (406) 
9.76738e-05

>  <r_epik_State_Penalty>  (406) 
-0

>  <r_epik_Charging_Adjusted_Penalty>  (406) 
0

>  <i_epik_Tot_Q>  (406) 
0

>  <i_epik_Tot_abs_Q>  (406) 
0

>  <s_lp_Force_Field>  (406) 
OPLS3e

>  <r_lp_Energy>  (406) 
12.1319

>  <b_lp_Chiralities_Consistent>  (406) 
1

>  <s_lp_Variant>  (406) 
110:0-1

>  <s_i_glide_gridfile>  (406) 
pfpi4k_grid

>  <i_i_glide_lignum>  (406) 
31

>  <i_i_glide_rotatable_bonds>  (406) 
1

>  <r_i_docking_score>  (406) 
-3.56152

>  <r_i_glide_ligand_efficiency>  (406) 
-0.187448

>  <r_i_glide_ligand_efficiency_sa>  (406) 
-0.500188

>  <r_i_glide_ligand_efficiency_ln>  (406) 
-0.902922

>  <r_i_glide_gscore>  (406) 
-3.56152

>  <r_i_glide_lipo>  (406) 
-0.026766

>  <r_i_glide_hbond>  (406) 
-0.16

>  <r_i_glide_metal>  (406) 
-0

>  <r_i_glide_rewards>  (406) 
-1.71172

>  <r_i_glide_evdw>  (406) 
-21.5726

>  <r_i_glide_ecoul>  (406) 
-4.30464

>  <r_i_glide_erotb>  (406) 
0.270209

>  <r_i_glide_esite>  (406) 
-0.208913

>  <r_i_glide_emodel>  (406) 
-32.1664

>  <r_i_glide_energy>  (406) 
-25.8772

>  <r_i_glide_einternal>  (406) 
0.0637925

>  <r_i_glide_intrahb_reward>  (406) 
-0

>  <i_i_glide_confnum>  (406) 
4

>  <i_i_glide_posenum>  (406) 
32

>  <r_i_glide_eff_state_penalty>  (406) 
0

>  <ligand_id>  (406) 
110

>  <original_smiles>  (406) 
Cn1cc(-c2c3c(=N)[nH]cnn3c3nncn23)cn1

>  <smiles>  (406) 
[H]c1nc(N([H])[H])c2c(-c3c([H])nn(C([H])([H])[H])c3[H])n3c([H])nnc3n2n1

$$$$
111:0:0
     RDKit          3D

 41 43  0  0  1  0  0  0  0  0999 V2000
   -4.5949   -8.6570   -5.9088 C   0  0  0  0  0  0  0  0  0  0  0  0
   -5.7697   -7.7126   -6.1001 C   0  0  0  0  0  0  0  0  0  0  0  0
   -6.0092   -7.8515   -7.6076 C   0  0  0  0  0  0  0  0  0  0  0  0
   -6.9815   -7.6910   -5.1382 C   0  0  2  0  0  0  0  0  0  0  0  0
   -7.9720   -6.6307   -5.4918 C   0  0  0  0  0  0  0  0  0  0  0  0
   -6.8790   -5.6263   -5.7383 C   0  0  0  0  0  0  0  0  0  0  0  0
   -7.1088   -4.3137   -6.2129 N   0  0  0  0  0  0  0  0  0  0  0  0
   -8.4457   -3.7238   -6.3785 C   0  0  0  0  0  0  0  0  0  0  0  0
   -8.9686   -3.6888   -7.8499 C   0  0  0  0  0  0  0  0  0  0  0  0
   -9.5781   -4.9157   -8.3703 N   0  0  0  0  0  0  0  0  0  0  0  0
  -10.6311   -5.4315   -7.5143 C   0  0  0  0  0  0  0  0  0  0  0  0
  -11.1582   -6.8071   -7.9569 C   0  0  0  0  0  0  0  0  0  0  0  0
  -10.0876   -7.7350   -8.0051 O   0  0  0  0  0  0  0  0  0  0  0  0
   -9.0747   -7.3351   -8.9261 C   0  0  0  0  0  0  0  0  0  0  0  0
   -8.5724   -5.9071   -8.6320 C   0  0  0  0  0  0  0  0  0  0  0  0
   -5.6986   -6.2629   -5.4997 C   0  0  0  0  0  0  0  0  0  0  0  0
   -5.9884   -7.0094   -4.1790 C   0  0  0  0  0  0  0  0  0  0  0  0
   -4.9010   -9.6691   -6.1737 H   0  0  0  0  0  0  0  0  0  0  0  0
   -4.1133   -8.6880   -4.9343 H   0  0  0  0  0  0  0  0  0  0  0  0
   -3.8218   -8.3626   -6.6049 H   0  0  0  0  0  0  0  0  0  0  0  0
   -6.4433   -8.8096   -7.8756 H   0  0  0  0  0  0  0  0  0  0  0  0
   -5.1380   -7.6685   -8.2301 H   0  0  0  0  0  0  0  0  0  0  0  0
   -6.6513   -7.0816   -7.9425 H   0  0  0  0  0  0  0  0  0  0  0  0
   -7.3629   -8.6810   -4.9240 H   0  0  0  0  0  0  0  0  0  0  0  0
   -8.6040   -6.2671   -4.7108 H   0  0  0  0  0  0  0  0  0  0  0  0
   -8.4057   -2.7001   -6.0051 H   0  0  0  0  0  0  0  0  0  0  0  0
   -9.1353   -4.1883   -5.6875 H   0  0  0  0  0  0  0  0  0  0  0  0
   -9.7273   -2.9167   -7.9018 H   0  0  0  0  0  0  0  0  0  0  0  0
   -8.1664   -3.3762   -8.5206 H   0  0  0  0  0  0  0  0  0  0  0  0
  -10.3100   -5.5439   -6.4827 H   0  0  0  0  0  0  0  0  0  0  0  0
  -11.4315   -4.7039   -7.4983 H   0  0  0  0  0  0  0  0  0  0  0  0
  -11.9132   -7.1727   -7.2560 H   0  0  0  0  0  0  0  0  0  0  0  0
  -11.6010   -6.7452   -8.9482 H   0  0  0  0  0  0  0  0  0  0  0  0
   -8.3107   -8.1024   -8.8579 H   0  0  0  0  0  0  0  0  0  0  0  0
   -9.4315   -7.3616   -9.9490 H   0  0  0  0  0  0  0  0  0  0  0  0
   -7.7582   -5.5686   -9.2663 H   0  0  0  0  0  0  0  0  0  0  0  0
   -8.0844   -5.9068   -7.6937 H   0  0  0  0  0  0  0  0  0  0  0  0
   -6.5313   -6.4670   -3.3873 H   0  0  0  0  0  0  0  0  0  0  0  0
   -5.2837   -7.6709   -3.6995 H   0  0  0  0  0  0  0  0  0  0  0  0
   -8.6084   -7.0265   -6.2739 H   0  0  0  0  0  0  0  0  0  0  0  0
   -6.3329   -3.7752   -6.5085 H   0  0  0  0  0  0  0  0  0  0  0  0
  1  2  1  0
  1 18  1  0
  1 19  1  0
  1 20  1  0
  2  3  1  0
  2  4  1  0
  2 16  1  0
  3 21  1  0
  3 22  1  0
  3 23  1  0
  4 17  1  0
  4 24  1  1
  4  5  1  0
  5  6  1  0
  5 25  1  0
  5 40  1  0
  6 16  2  0
  6  7  1  0
  7  8  1  0
  7 41  1  0
  8  9  1  0
  8 26  1  0
  8 27  1  0
  9 10  1  0
  9 28  1  0
  9 29  1  0
 10 15  1  0
 10 11  1  0
 11 12  1  0
 11 30  1  0
 11 31  1  0
 12 13  1  0
 12 32  1  0
 12 33  1  0
 13 14  1  0
 14 15  1  0
 14 34  1  0
 14 35  1  0
 15 36  1  0
 15 37  1  0
 16 17  1  0
 17 38  1  0
 17 39  1  0
M  END
>  <i_m_ct_stereo_status>  (407) 
1

>  <s_m_source_file>  (407) 
/var/tmp/pbs.5076255.sched01/tmp2gi29psn/132an720x3a.sdf

>  <i_m_source_file_index>  (407) 
32

>  <i_lp_mmshare_version>  (407) 
48012

>  <i_f3d_flags>  (407) 
0

>  <s_epik_input>  (407) 
W0NIM11DKFtDSDNdKShbQ0BIXTEyKVtDQEhdKFtDSDJdMilDKFxbQ0gyXTEpPU4vW0NIMl1bQ0gyXU4zW0NIMl1bQ0gyXU9bQ0gyXVtDSDJdMw==

>  <s_epik_cmdline>  (407) 
J2VwaWtfcHl0aG9uJywgJy1waHQnLCAnMi4wJywgJy1waCcsICc3LjAnLCAnLXRuJywgJzgnLCAnLW1hJywgJzIwMCcsICctaW1hZScsICc8aW5maWxlLm1hZT4nLCAnLW9tYWUnLCAnPG91dGZpbGUubWFlPic=

>  <r_lp_tautomer_probability>  (407) 
1

>  <r_epik_Ionization_Penalty>  (407) 
0.0816421

>  <r_epik_Ionization_Penalty_Charging>  (407) 
4.37221e-05

>  <r_epik_Ionization_Penalty_Neutral>  (407) 
0.0815984

>  <r_epik_State_Penalty>  (407) 
-0

>  <r_epik_Charging_Adjusted_Penalty>  (407) 
4.37221e-05

>  <i_epik_Tot_Q>  (407) 
0

>  <i_epik_Tot_abs_Q>  (407) 
0

>  <s_epik_Chemistry_Notes>  (407) 
This compound has an imine and may undergo hydrolysis.

>  <s_lp_Force_Field>  (407) 
OPLS3e

>  <r_lp_Energy>  (407) 
61.2303

>  <b_lp_Chiralities_Consistent>  (407) 
1

>  <s_lp_Variant>  (407) 
111:0-1

>  <s_i_glide_gridfile>  (407) 
pfpi4k_grid

>  <i_i_glide_lignum>  (407) 
32

>  <i_i_glide_rotatable_bonds>  (407) 
4

>  <r_i_docking_score>  (407) 
-3.10835

>  <r_i_glide_ligand_efficiency>  (407) 
-0.182844

>  <r_i_glide_ligand_efficiency_sa>  (407) 
-0.470144

>  <r_i_glide_ligand_efficiency_ln>  (407) 
-0.8109

>  <r_i_glide_gscore>  (407) 
-3.10835

>  <r_i_glide_lipo>  (407) 
-2.05311

>  <r_i_glide_hbond>  (407) 
0

>  <r_i_glide_metal>  (407) 
-0

>  <r_i_glide_rewards>  (407) 
-1.79759

>  <r_i_glide_evdw>  (407) 
-4.43223

>  <r_i_glide_ecoul>  (407) 
-0.378806

>  <r_i_glide_erotb>  (407) 
0.92455

>  <r_i_glide_esite>  (407) 
0

>  <r_i_glide_emodel>  (407) 
2.50029

>  <r_i_glide_energy>  (407) 
-4.81103

>  <r_i_glide_einternal>  (407) 
12.2537

>  <r_i_glide_intrahb_reward>  (407) 
-0

>  <i_i_glide_confnum>  (407) 
6

>  <i_i_glide_posenum>  (407) 
1

>  <r_i_glide_eff_state_penalty>  (407) 
0

>  <ligand_id>  (407) 
111

>  <original_smiles>  (407) 
CC1(C)C2CC(=NCCN3CCOCC3)C1C2

>  <smiles>  (407) 
[H]N(C1=C2C([H])([H])C([H])(C1([H])[H])C2(C([H])([H])[H])C([H])([H])[H])C([H])([H])C([H])([H])N1C([H])([H])C([H])([H])OC([H])([H])C1([H])[H]

$$$$
111:0:1
     RDKit          3D

 41 43  0  0  1  0  0  0  0  0999 V2000
  -10.8396   -7.8059  -10.2772 C   0  0  0  0  0  0  0  0  0  0  0  0
   -9.5908   -7.2440   -9.5231 C   0  0  0  0  0  0  0  0  0  0  0  0
   -8.3783   -7.6873  -10.3589 C   0  0  0  0  0  0  0  0  0  0  0  0
   -9.5568   -5.8538   -8.8523 C   0  0  2  0  0  0  0  0  0  0  0  0
   -8.2346   -5.6480   -8.1039 C   0  0  0  0  0  0  0  0  0  0  0  0
   -8.3013   -7.0207   -7.5198 C   0  0  0  0  0  0  0  0  0  0  0  0
   -7.3272   -7.5506   -6.7132 N   0  0  0  0  0  0  0  0  0  0  0  0
   -7.1636   -8.9732   -6.4395 C   0  0  0  0  0  0  0  0  0  0  0  0
   -5.6887   -9.4200   -6.4543 C   0  0  0  0  0  0  0  0  0  0  0  0
   -5.4787  -10.8590   -6.6300 N   0  0  0  0  0  0  0  0  0  0  0  0
   -4.0766  -11.2295   -6.4285 C   0  0  0  0  0  0  0  0  0  0  0  0
   -3.8328  -12.7336   -6.6674 C   0  0  0  0  0  0  0  0  0  0  0  0
   -4.2688  -13.0909   -7.9751 O   0  0  0  0  0  0  0  0  0  0  0  0
   -5.6511  -12.8121   -8.1633 C   0  0  0  0  0  0  0  0  0  0  0  0
   -5.8984  -11.3143   -7.9538 C   0  0  0  0  0  0  0  0  0  0  0  0
   -9.4506   -7.5795   -8.0066 C   0  0  0  0  0  0  0  0  0  0  0  0
  -10.5296   -6.4907   -7.8634 C   0  0  0  0  0  0  0  0  0  0  0  0
  -10.9430   -7.2920  -11.2292 H   0  0  0  0  0  0  0  0  0  0  0  0
  -11.8068   -7.7159   -9.7941 H   0  0  0  0  0  0  0  0  0  0  0  0
  -10.7241   -8.8647  -10.4971 H   0  0  0  0  0  0  0  0  0  0  0  0
   -8.3509   -7.1617  -11.3095 H   0  0  0  0  0  0  0  0  0  0  0  0
   -8.3937   -8.7559  -10.5695 H   0  0  0  0  0  0  0  0  0  0  0  0
   -7.4141   -7.4948   -9.8794 H   0  0  0  0  0  0  0  0  0  0  0  0
   -9.9664   -5.0518   -9.4411 H   0  0  0  0  0  0  0  0  0  0  0  0
   -8.2846   -4.8652   -7.3508 H   0  0  0  0  0  0  0  0  0  0  0  0
   -7.7549   -9.5030   -7.1844 H   0  0  0  0  0  0  0  0  0  0  0  0
   -7.6118   -9.2484   -5.4864 H   0  0  0  0  0  0  0  0  0  0  0  0
   -5.1399   -8.8833   -7.2272 H   0  0  0  0  0  0  0  0  0  0  0  0
   -5.2444   -9.1072   -5.5077 H   0  0  0  0  0  0  0  0  0  0  0  0
   -3.4432  -10.6642   -7.1104 H   0  0  0  0  0  0  0  0  0  0  0  0
   -3.7537  -10.9672   -5.4200 H   0  0  0  0  0  0  0  0  0  0  0  0
   -2.7736  -12.9726   -6.5708 H   0  0  0  0  0  0  0  0  0  0  0  0
   -4.3708  -13.3293   -5.9286 H   0  0  0  0  0  0  0  0  0  0  0  0
   -5.9472  -13.0957   -9.1720 H   0  0  0  0  0  0  0  0  0  0  0  0
   -6.2647  -13.3940   -7.4726 H   0  0  0  0  0  0  0  0  0  0  0  0
   -6.9604  -11.1527   -8.1154 H   0  0  0  0  0  0  0  0  0  0  0  0
   -5.3792  -10.7399   -8.7173 H   0  0  0  0  0  0  0  0  0  0  0  0
  -10.5724   -5.9059   -6.9464 H   0  0  0  0  0  0  0  0  0  0  0  0
  -11.5702   -6.6258   -8.1727 H   0  0  0  0  0  0  0  0  0  0  0  0
   -7.3868   -5.5065   -8.7718 H   0  0  0  0  0  0  0  0  0  0  0  0
   -6.5275   -6.9555   -6.5057 H   0  0  0  0  0  0  0  0  0  0  0  0
  1  2  1  0
  1 18  1  0
  1 19  1  0
  1 20  1  0
  2  3  1  0
  2  4  1  0
  2 16  1  0
  3 21  1  0
  3 22  1  0
  3 23  1  0
  4 17  1  0
  4 24  1  6
  4  5  1  0
  5  6  1  0
  5 25  1  0
  5 40  1  0
  6 16  2  0
  6  7  1  0
  7  8  1  0
  7 41  1  0
  8  9  1  0
  8 26  1  0
  8 27  1  0
  9 10  1  0
  9 28  1  0
  9 29  1  0
 10 15  1  0
 10 11  1  0
 11 12  1  0
 11 30  1  0
 11 31  1  0
 12 13  1  0
 12 32  1  0
 12 33  1  0
 13 14  1  0
 14 15  1  0
 14 34  1  0
 14 35  1  0
 15 36  1  0
 15 37  1  0
 16 17  1  0
 17 38  1  0
 17 39  1  0
M  END
>  <i_m_ct_stereo_status>  (408) 
1

>  <s_m_source_file>  (408) 
/var/tmp/pbs.5076255.sched01/tmp2gi29psn/132an720x3a.sdf

>  <i_m_source_file_index>  (408) 
32

>  <i_lp_mmshare_version>  (408) 
48012

>  <i_f3d_flags>  (408) 
0

>  <s_epik_input>  (408) 
W0NIM11DKFtDSDNdKShbQ0BIXTEyKVtDQEhdKFtDSDJdMilDKFxbQ0gyXTEpPU4vW0NIMl1bQ0gyXU4zW0NIMl1bQ0gyXU9bQ0gyXVtDSDJdMw==

>  <s_epik_cmdline>  (408) 
J2VwaWtfcHl0aG9uJywgJy1waHQnLCAnMi4wJywgJy1waCcsICc3LjAnLCAnLXRuJywgJzgnLCAnLW1hJywgJzIwMCcsICctaW1hZScsICc8aW5maWxlLm1hZT4nLCAnLW9tYWUnLCAnPG91dGZpbGUubWFlPic=

>  <r_lp_tautomer_probability>  (408) 
1

>  <r_epik_Ionization_Penalty>  (408) 
0.0816421

>  <r_epik_Ionization_Penalty_Charging>  (408) 
4.37221e-05

>  <r_epik_Ionization_Penalty_Neutral>  (408) 
0.0815984

>  <r_epik_State_Penalty>  (408) 
-0

>  <r_epik_Charging_Adjusted_Penalty>  (408) 
4.37221e-05

>  <i_epik_Tot_Q>  (408) 
0

>  <i_epik_Tot_abs_Q>  (408) 
0

>  <s_epik_Chemistry_Notes>  (408) 
This compound has an imine and may undergo hydrolysis.

>  <s_lp_Force_Field>  (408) 
OPLS3e

>  <r_lp_Energy>  (408) 
61.2303

>  <b_lp_Chiralities_Consistent>  (408) 
1

>  <s_lp_Variant>  (408) 
111:0-1

>  <s_i_glide_gridfile>  (408) 
pfpi4k_grid

>  <i_i_glide_lignum>  (408) 
32

>  <i_i_glide_rotatable_bonds>  (408) 
4

>  <r_i_docking_score>  (408) 
-2.84601

>  <r_i_glide_ligand_efficiency>  (408) 
-0.167412

>  <r_i_glide_ligand_efficiency_sa>  (408) 
-0.430464

>  <r_i_glide_ligand_efficiency_ln>  (408) 
-0.74246

>  <r_i_glide_gscore>  (408) 
-2.84601

>  <r_i_glide_lipo>  (408) 
-0.976567

>  <r_i_glide_hbond>  (408) 
0

>  <r_i_glide_metal>  (408) 
-0

>  <r_i_glide_rewards>  (408) 
-1.79759

>  <r_i_glide_evdw>  (408) 
-16.4713

>  <r_i_glide_ecoul>  (408) 
-1.15223

>  <r_i_glide_erotb>  (408) 
0.92455

>  <r_i_glide_esite>  (408) 
0

>  <r_i_glide_emodel>  (408) 
-18.9843

>  <r_i_glide_energy>  (408) 
-17.6235

>  <r_i_glide_einternal>  (408) 
2.187

>  <r_i_glide_intrahb_reward>  (408) 
-0

>  <i_i_glide_confnum>  (408) 
6

>  <i_i_glide_posenum>  (408) 
37

>  <r_i_glide_eff_state_penalty>  (408) 
0

>  <ligand_id>  (408) 
111

>  <original_smiles>  (408) 
CC1(C)C2CC(=NCCN3CCOCC3)C1C2

>  <smiles>  (408) 
[H]N(C1=C2C([H])([H])C([H])(C1([H])[H])C2(C([H])([H])[H])C([H])([H])[H])C([H])([H])C([H])([H])N1C([H])([H])C([H])([H])OC([H])([H])C1([H])[H]

$$$$
112:0:0
     RDKit          3D

 11 12  0  0  1  0  0  0  0  0999 V2000
    1.5955   -6.2959    1.3413 C   0  0  0  0  0  0  0  0  0  0  0  0
    2.2031   -7.4695    1.7087 C   0  0  0  0  0  0  0  0  0  0  0  0
    1.1206   -8.2053    2.1068 N   0  0  0  0  0  0  0  0  0  0  0  0
    1.0675   -9.4761    2.5675 C   0  0  0  0  0  0  0  0  0  0  0  0
   -0.1435   -9.9308    2.8751 N   0  0  0  0  0  0  0  0  0  0  0  0
   -1.2505   -8.6731    2.5334 S   0  0  0  0  0  0  0  0  0  0  0  0
   -0.0413   -7.5279    1.9817 C   0  0  0  0  0  0  0  0  0  0  0  0
    0.1861   -6.3333    1.5122 N   0  0  0  0  0  0  0  0  0  0  0  0
    2.0639   -5.3956    0.9512 H   0  0  0  0  0  0  0  0  0  0  0  0
    3.2370   -7.8297    1.7177 H   0  0  0  0  0  0  0  0  0  0  0  0
    1.9993  -10.0237    2.6592 H   0  0  0  0  0  0  0  0  0  0  0  0
  1  8  1  0
  1  2  2  0
  1  9  1  0
  2  3  1  0
  2 10  1  0
  3  7  1  0
  3  4  1  0
  4  5  2  0
  4 11  1  0
  5  6  1  0
  6  7  1  0
  7  8  2  0
M  END
>  <i_m_ct_stereo_status>  (409) 
1

>  <s_m_source_file>  (409) 
/var/tmp/pbs.5076255.sched01/tmp2gi29psn/132an720x3a.sdf

>  <i_m_source_file_index>  (409) 
33

>  <i_lp_mmshare_version>  (409) 
48012

>  <i_f3d_flags>  (409) 
0

>  <s_epik_input>  (409) 
W2NIXTFbY0hdbmMobjEyKXNuW2NIXTI=

>  <s_epik_cmdline>  (409) 
J2VwaWtfcHl0aG9uJywgJy1waHQnLCAnMi4wJywgJy1waCcsICc3LjAnLCAnLXRuJywgJzgnLCAnLW1hJywgJzIwMCcsICctaW1hZScsICc8aW5maWxlLm1hZT4nLCAnLW9tYWUnLCAnPG91dGZpbGUubWFlPic=

>  <r_epik_Ionization_Penalty>  (409) 
0.0168118

>  <r_epik_Ionization_Penalty_Charging>  (409) 
0.0168118

>  <r_epik_Ionization_Penalty_Neutral>  (409) 
4.64318e-10

>  <r_epik_State_Penalty>  (409) 
0.0132906

>  <r_epik_Charging_Adjusted_Penalty>  (409) 
0.0301024

>  <i_epik_Tot_Q>  (409) 
0

>  <i_epik_Tot_abs_Q>  (409) 
0

>  <s_lp_Force_Field>  (409) 
OPLS3e

>  <r_lp_Energy>  (409) 
2.89899

>  <b_lp_Chiralities_Consistent>  (409) 
1

>  <s_lp_Variant>  (409) 
112:0-1

>  <s_i_glide_gridfile>  (409) 
pfpi4k_grid

>  <i_i_glide_lignum>  (409) 
33

>  <i_i_glide_rotatable_bonds>  (409) 
0

>  <r_i_docking_score>  (409) 
-4.23534

>  <r_i_glide_ligand_efficiency>  (409) 
-0.529417

>  <r_i_glide_ligand_efficiency_sa>  (409) 
-1.05883

>  <r_i_glide_ligand_efficiency_ln>  (409) 
-1.37536

>  <r_i_glide_gscore>  (409) 
-4.23534

>  <r_i_glide_lipo>  (409) 
-0.0287663

>  <r_i_glide_hbond>  (409) 
-0.245102

>  <r_i_glide_metal>  (409) 
-0

>  <r_i_glide_rewards>  (409) 
-2.3492

>  <r_i_glide_evdw>  (409) 
-13.8864

>  <r_i_glide_ecoul>  (409) 
-5.38488

>  <r_i_glide_erotb>  (409) 
0

>  <r_i_glide_esite>  (409) 
-0.110213

>  <r_i_glide_emodel>  (409) 
-25.6349

>  <r_i_glide_energy>  (409) 
-19.2712

>  <r_i_glide_einternal>  (409) 
0

>  <r_i_glide_intrahb_reward>  (409) 
-0

>  <i_i_glide_confnum>  (409) 
2

>  <i_i_glide_posenum>  (409) 
7

>  <r_i_glide_eff_state_penalty>  (409) 
0

>  <ligand_id>  (409) 
112

>  <original_smiles>  (409) 
c1cn2cnsc2n1

>  <smiles>  (409) 
[H]c1nc2snc([H])n2c1[H]

$$$$
112:0:1
     RDKit          3D

 11 12  0  0  1  0  0  0  0  0999 V2000
   -0.5341   -7.7932    1.7825 C   0  0  0  0  0  0  0  0  0  0  0  0
   -0.5498   -8.9282    2.5535 C   0  0  0  0  0  0  0  0  0  0  0  0
   -0.2476   -8.4115    3.7831 N   0  0  0  0  0  0  0  0  0  0  0  0
   -0.0878   -9.0443    4.9621 C   0  0  0  0  0  0  0  0  0  0  0  0
    0.2156   -8.2724    6.0001 N   0  0  0  0  0  0  0  0  0  0  0  0
    0.2981   -6.6589    5.4133 S   0  0  0  0  0  0  0  0  0  0  0  0
   -0.0654   -7.0708    3.7473 C   0  0  0  0  0  0  0  0  0  0  0  0
   -0.2241   -6.6312    2.5285 N   0  0  0  0  0  0  0  0  0  0  0  0
   -0.7116   -7.7038    0.7168 H   0  0  0  0  0  0  0  0  0  0  0  0
   -0.7212   -9.9882    2.3424 H   0  0  0  0  0  0  0  0  0  0  0  0
   -0.1816  -10.1249    4.9749 H   0  0  0  0  0  0  0  0  0  0  0  0
  1  8  1  0
  1  2  2  0
  1  9  1  0
  2  3  1  0
  2 10  1  0
  3  7  1  0
  3  4  1  0
  4  5  2  0
  4 11  1  0
  5  6  1  0
  6  7  1  0
  7  8  2  0
M  END
>  <i_m_ct_stereo_status>  (410) 
1

>  <s_m_source_file>  (410) 
/var/tmp/pbs.5076255.sched01/tmp2gi29psn/132an720x3a.sdf

>  <i_m_source_file_index>  (410) 
33

>  <i_lp_mmshare_version>  (410) 
48012

>  <i_f3d_flags>  (410) 
0

>  <s_epik_input>  (410) 
W2NIXTFbY0hdbmMobjEyKXNuW2NIXTI=

>  <s_epik_cmdline>  (410) 
J2VwaWtfcHl0aG9uJywgJy1waHQnLCAnMi4wJywgJy1waCcsICc3LjAnLCAnLXRuJywgJzgnLCAnLW1hJywgJzIwMCcsICctaW1hZScsICc8aW5maWxlLm1hZT4nLCAnLW9tYWUnLCAnPG91dGZpbGUubWFlPic=

>  <r_epik_Ionization_Penalty>  (410) 
0.0168118

>  <r_epik_Ionization_Penalty_Charging>  (410) 
0.0168118

>  <r_epik_Ionization_Penalty_Neutral>  (410) 
4.64318e-10

>  <r_epik_State_Penalty>  (410) 
0.0132906

>  <r_epik_Charging_Adjusted_Penalty>  (410) 
0.0301024

>  <i_epik_Tot_Q>  (410) 
0

>  <i_epik_Tot_abs_Q>  (410) 
0

>  <s_lp_Force_Field>  (410) 
OPLS3e

>  <r_lp_Energy>  (410) 
2.89899

>  <b_lp_Chiralities_Consistent>  (410) 
1

>  <s_lp_Variant>  (410) 
112:0-1

>  <s_i_glide_gridfile>  (410) 
pfpi4k_grid

>  <i_i_glide_lignum>  (410) 
33

>  <i_i_glide_rotatable_bonds>  (410) 
0

>  <r_i_docking_score>  (410) 
-3.96235

>  <r_i_glide_ligand_efficiency>  (410) 
-0.495294

>  <r_i_glide_ligand_efficiency_sa>  (410) 
-0.990588

>  <r_i_glide_ligand_efficiency_ln>  (410) 
-1.28671

>  <r_i_glide_gscore>  (410) 
-3.96235

>  <r_i_glide_lipo>  (410) 
0

>  <r_i_glide_hbond>  (410) 
-0.16

>  <r_i_glide_metal>  (410) 
-0

>  <r_i_glide_rewards>  (410) 
-2.25

>  <r_i_glide_evdw>  (410) 
-10.3192

>  <r_i_glide_ecoul>  (410) 
-5.80119

>  <r_i_glide_erotb>  (410) 
0

>  <r_i_glide_esite>  (410) 
-0.166213

>  <r_i_glide_emodel>  (410) 
-22.0651

>  <r_i_glide_energy>  (410) 
-16.1204

>  <r_i_glide_einternal>  (410) 
0

>  <r_i_glide_intrahb_reward>  (410) 
-0

>  <i_i_glide_confnum>  (410) 
1

>  <i_i_glide_posenum>  (410) 
8

>  <r_i_glide_eff_state_penalty>  (410) 
0

>  <ligand_id>  (410) 
112

>  <original_smiles>  (410) 
c1cn2cnsc2n1

>  <smiles>  (410) 
[H]c1nc2snc([H])n2c1[H]

$$$$
112:0:2
     RDKit          3D

 11 12  0  0  1  0  0  0  0  0999 V2000
   -1.1181   -0.7357    5.2309 C   0  0  0  0  0  0  0  0  0  0  0  0
   -0.6594   -0.1699    4.0685 C   0  0  0  0  0  0  0  0  0  0  0  0
   -1.0890    1.1220    4.2140 N   0  0  0  0  0  0  0  0  0  0  0  0
   -0.9531    2.1791    3.3735 C   0  0  0  0  0  0  0  0  0  0  0  0
   -1.4882    3.3246    3.8035 N   0  0  0  0  0  0  0  0  0  0  0  0
   -2.1778    3.0045    5.3377 S   0  0  0  0  0  0  0  0  0  0  0  0
   -1.7420    1.3109    5.3838 C   0  0  0  0  0  0  0  0  0  0  0  0
   -1.7948    0.1997    6.0667 N   0  0  0  0  0  0  0  0  0  0  0  0
   -1.0237   -1.7650    5.5606 H   0  0  0  0  0  0  0  0  0  0  0  0
   -0.1122   -0.5531    3.2008 H   0  0  0  0  0  0  0  0  0  0  0  0
   -0.4295    2.0483    2.4305 H   0  0  0  0  0  0  0  0  0  0  0  0
  1  8  1  0
  1  2  2  0
  1  9  1  0
  2  3  1  0
  2 10  1  0
  3  7  1  0
  3  4  1  0
  4  5  2  0
  4 11  1  0
  5  6  1  0
  6  7  1  0
  7  8  2  0
M  END
>  <i_m_ct_stereo_status>  (411) 
1

>  <s_m_source_file>  (411) 
/var/tmp/pbs.5076255.sched01/tmp2gi29psn/132an720x3a.sdf

>  <i_m_source_file_index>  (411) 
33

>  <i_lp_mmshare_version>  (411) 
48012

>  <i_f3d_flags>  (411) 
0

>  <s_epik_input>  (411) 
W2NIXTFbY0hdbmMobjEyKXNuW2NIXTI=

>  <s_epik_cmdline>  (411) 
J2VwaWtfcHl0aG9uJywgJy1waHQnLCAnMi4wJywgJy1waCcsICc3LjAnLCAnLXRuJywgJzgnLCAnLW1hJywgJzIwMCcsICctaW1hZScsICc8aW5maWxlLm1hZT4nLCAnLW9tYWUnLCAnPG91dGZpbGUubWFlPic=

>  <r_epik_Ionization_Penalty>  (411) 
0.0168118

>  <r_epik_Ionization_Penalty_Charging>  (411) 
0.0168118

>  <r_epik_Ionization_Penalty_Neutral>  (411) 
4.64318e-10

>  <r_epik_State_Penalty>  (411) 
0.0132906

>  <r_epik_Charging_Adjusted_Penalty>  (411) 
0.0301024

>  <i_epik_Tot_Q>  (411) 
0

>  <i_epik_Tot_abs_Q>  (411) 
0

>  <s_lp_Force_Field>  (411) 
OPLS3e

>  <r_lp_Energy>  (411) 
2.89899

>  <b_lp_Chiralities_Consistent>  (411) 
1

>  <s_lp_Variant>  (411) 
112:0-1

>  <s_i_glide_gridfile>  (411) 
pfpi4k_grid

>  <i_i_glide_lignum>  (411) 
33

>  <i_i_glide_rotatable_bonds>  (411) 
0

>  <r_i_docking_score>  (411) 
-3.84554

>  <r_i_glide_ligand_efficiency>  (411) 
-0.480693

>  <r_i_glide_ligand_efficiency_sa>  (411) 
-0.961386

>  <r_i_glide_ligand_efficiency_ln>  (411) 
-1.24878

>  <r_i_glide_gscore>  (411) 
-3.84554

>  <r_i_glide_lipo>  (411) 
0

>  <r_i_glide_hbond>  (411) 
-0.137949

>  <r_i_glide_metal>  (411) 
-0

>  <r_i_glide_rewards>  (411) 
-2.25

>  <r_i_glide_evdw>  (411) 
-12.4219

>  <r_i_glide_ecoul>  (411) 
-4.9384

>  <r_i_glide_erotb>  (411) 
0

>  <r_i_glide_esite>  (411) 
-0.0957387

>  <r_i_glide_emodel>  (411) 
-23.1372

>  <r_i_glide_energy>  (411) 
-17.3603

>  <r_i_glide_einternal>  (411) 
0

>  <r_i_glide_intrahb_reward>  (411) 
-0

>  <i_i_glide_confnum>  (411) 
1

>  <i_i_glide_posenum>  (411) 
33

>  <r_i_glide_eff_state_penalty>  (411) 
0

>  <ligand_id>  (411) 
112

>  <original_smiles>  (411) 
c1cn2cnsc2n1

>  <smiles>  (411) 
[H]c1nc2snc([H])n2c1[H]

$$$$
112:1:0
     RDKit          3D

 12 13  0  0  1  0  0  0  0  0999 V2000
    2.3105   -2.5287   -3.6896 C   0  0  0  0  0  0  0  0  0  0  0  0
    3.0431   -1.3370   -3.5883 C   0  0  0  0  0  0  0  0  0  0  0  0
    3.9724   -1.6206   -2.6311 N   0  0  0  0  0  0  0  0  0  0  0  0
    4.9505   -0.9026   -2.0530 C   0  0  0  0  0  0  0  0  0  0  0  0
    5.6787   -1.5644   -1.1325 N   0  0  0  0  0  0  0  0  0  0  0  0
    5.0294   -3.1529   -0.9899 S   0  0  0  0  0  0  0  0  0  0  0  0
    3.8234   -2.8494   -2.1802 C   0  0  0  0  0  0  0  0  0  0  0  0
    2.8250   -3.4524   -2.7867 N   0  0  0  0  0  0  0  0  0  0  0  0
    1.4726   -2.7640   -4.3191 H   0  0  0  0  0  0  0  0  0  0  0  0
    2.9670   -0.3814   -4.0842 H   0  0  0  0  0  0  0  0  0  0  0  0
    5.0548    0.1245   -2.3480 H   0  0  0  0  0  0  0  0  0  0  0  0
    2.5732   -4.4364   -2.6501 H   0  0  0  0  0  0  0  0  0  0  0  0
  1  8  1  0
  1  2  2  0
  1  9  1  0
  2  3  1  0
  2 10  1  0
  3  7  1  0
  3  4  1  0
  4  5  2  0
  4 11  1  0
  5  6  1  0
  6  7  1  0
  7  8  2  0
  8 12  1  0
M  CHG  1   8   1
M  END
>  <i_m_ct_stereo_status>  (412) 
1

>  <s_m_source_file>  (412) 
/var/tmp/pbs.5076255.sched01/tmp2gi29psn/132an720x3a.sdf

>  <i_m_source_file_index>  (412) 
34

>  <i_lp_mmshare_version>  (412) 
48012

>  <i_f3d_flags>  (412) 
0

>  <s_epik_input>  (412) 
W2NIXTFbY0hdbmMobjEyKXNuW2NIXTI=

>  <s_epik_cmdline>  (412) 
J2VwaWtfcHl0aG9uJywgJy1waHQnLCAnMi4wJywgJy1waCcsICc3LjAnLCAnLXRuJywgJzgnLCAnLW1hJywgJzIwMCcsICctaW1hZScsICc8aW5maWxlLm1hZT4nLCAnLW9tYWUnLCAnPG91dGZpbGUubWFlPic=

>  <r_epik_Ionization_Penalty>  (412) 
2.11897

>  <r_epik_Ionization_Penalty_Charging>  (412) 
0

>  <r_epik_Ionization_Penalty_Neutral>  (412) 
2.11897

>  <r_epik_State_Penalty>  (412) 
2.25646

>  <r_epik_Charging_Adjusted_Penalty>  (412) 
2.25646

>  <i_epik_Tot_Q>  (412) 
1

>  <i_epik_Tot_abs_Q>  (412) 
1

>  <s_lp_Force_Field>  (412) 
OPLS3e

>  <r_lp_Energy>  (412) 
6.77796

>  <b_lp_Chiralities_Consistent>  (412) 
1

>  <s_lp_Variant>  (412) 
112:0-2

>  <s_i_glide_gridfile>  (412) 
pfpi4k_grid

>  <i_i_glide_lignum>  (412) 
34

>  <i_i_glide_rotatable_bonds>  (412) 
0

>  <r_i_docking_score>  (412) 
-4.68799

>  <r_i_glide_ligand_efficiency>  (412) 
-0.585998

>  <r_i_glide_ligand_efficiency_sa>  (412) 
-1.172

>  <r_i_glide_ligand_efficiency_ln>  (412) 
-1.52235

>  <r_i_glide_gscore>  (412) 
-4.68799

>  <r_i_glide_lipo>  (412) 
-0.518959

>  <r_i_glide_hbond>  (412) 
-0.0225281

>  <r_i_glide_metal>  (412) 
-0

>  <r_i_glide_rewards>  (412) 
-2.25

>  <r_i_glide_evdw>  (412) 
-12.5174

>  <r_i_glide_ecoul>  (412) 
-7.8807

>  <r_i_glide_erotb>  (412) 
0

>  <r_i_glide_esite>  (412) 
-0.0885228

>  <r_i_glide_emodel>  (412) 
-28.3158

>  <r_i_glide_energy>  (412) 
-20.3981

>  <r_i_glide_einternal>  (412) 
0

>  <r_i_glide_intrahb_reward>  (412) 
-0

>  <i_i_glide_confnum>  (412) 
1

>  <i_i_glide_posenum>  (412) 
8

>  <r_i_glide_eff_state_penalty>  (412) 
0

>  <ligand_id>  (412) 
112

>  <original_smiles>  (412) 
c1cn2cnsc2n1

>  <smiles>  (412) 
[H]c1nsc2n1c([H])c([H])[n+]2[H]

$$$$
112:1:1
     RDKit          3D

 12 13  0  0  1  0  0  0  0  0999 V2000
    0.8372    0.9699    1.8112 C   0  0  0  0  0  0  0  0  0  0  0  0
    0.5478    0.0227    2.8072 C   0  0  0  0  0  0  0  0  0  0  0  0
   -0.3219    0.6629    3.6160 N   0  0  0  0  0  0  0  0  0  0  0  0
   -0.9801    0.3050    4.7393 C   0  0  0  0  0  0  0  0  0  0  0  0
   -1.7610    1.2599    5.2677 N   0  0  0  0  0  0  0  0  0  0  0  0
   -1.6424    2.6523    4.2480 S   0  0  0  0  0  0  0  0  0  0  0  0
   -0.5374    1.8879    3.1697 C   0  0  0  0  0  0  0  0  0  0  0  0
    0.1495    2.1483    2.0814 N   0  0  0  0  0  0  0  0  0  0  0  0
    1.4764    0.8551    0.9450 H   0  0  0  0  0  0  0  0  0  0  0  0
    0.8808   -0.9908    2.9308 H   0  0  0  0  0  0  0  0  0  0  0  0
   -0.8270   -0.6942    5.1291 H   0  0  0  0  0  0  0  0  0  0  0  0
    0.1580    3.0615    1.5835 H   0  0  0  0  0  0  0  0  0  0  0  0
  1  8  1  0
  1  2  2  0
  1  9  1  0
  2  3  1  0
  2 10  1  0
  3  7  1  0
  3  4  1  0
  4  5  2  0
  4 11  1  0
  5  6  1  0
  6  7  1  0
  7  8  2  0
  8 12  1  0
M  CHG  1   8   1
M  END
>  <i_m_ct_stereo_status>  (413) 
1

>  <s_m_source_file>  (413) 
/var/tmp/pbs.5076255.sched01/tmp2gi29psn/132an720x3a.sdf

>  <i_m_source_file_index>  (413) 
34

>  <i_lp_mmshare_version>  (413) 
48012

>  <i_f3d_flags>  (413) 
0

>  <s_epik_input>  (413) 
W2NIXTFbY0hdbmMobjEyKXNuW2NIXTI=

>  <s_epik_cmdline>  (413) 
J2VwaWtfcHl0aG9uJywgJy1waHQnLCAnMi4wJywgJy1waCcsICc3LjAnLCAnLXRuJywgJzgnLCAnLW1hJywgJzIwMCcsICctaW1hZScsICc8aW5maWxlLm1hZT4nLCAnLW9tYWUnLCAnPG91dGZpbGUubWFlPic=

>  <r_epik_Ionization_Penalty>  (413) 
2.11897

>  <r_epik_Ionization_Penalty_Charging>  (413) 
0

>  <r_epik_Ionization_Penalty_Neutral>  (413) 
2.11897

>  <r_epik_State_Penalty>  (413) 
2.25646

>  <r_epik_Charging_Adjusted_Penalty>  (413) 
2.25646

>  <i_epik_Tot_Q>  (413) 
1

>  <i_epik_Tot_abs_Q>  (413) 
1

>  <s_lp_Force_Field>  (413) 
OPLS3e

>  <r_lp_Energy>  (413) 
6.77796

>  <b_lp_Chiralities_Consistent>  (413) 
1

>  <s_lp_Variant>  (413) 
112:0-2

>  <s_i_glide_gridfile>  (413) 
pfpi4k_grid

>  <i_i_glide_lignum>  (413) 
34

>  <i_i_glide_rotatable_bonds>  (413) 
0

>  <r_i_docking_score>  (413) 
-4.3412

>  <r_i_glide_ligand_efficiency>  (413) 
-0.54265

>  <r_i_glide_ligand_efficiency_sa>  (413) 
-1.0853

>  <r_i_glide_ligand_efficiency_ln>  (413) 
-1.40974

>  <r_i_glide_gscore>  (413) 
-4.3412

>  <r_i_glide_lipo>  (413) 
0

>  <r_i_glide_hbond>  (413) 
-0.189551

>  <r_i_glide_metal>  (413) 
-0

>  <r_i_glide_rewards>  (413) 
-2.25

>  <r_i_glide_evdw>  (413) 
-10.2878

>  <r_i_glide_ecoul>  (413) 
-7.9591

>  <r_i_glide_erotb>  (413) 
0

>  <r_i_glide_esite>  (413) 
-0.193391

>  <r_i_glide_emodel>  (413) 
-25.5775

>  <r_i_glide_energy>  (413) 
-18.2469

>  <r_i_glide_einternal>  (413) 
0

>  <r_i_glide_intrahb_reward>  (413) 
-0

>  <i_i_glide_confnum>  (413) 
2

>  <i_i_glide_posenum>  (413) 
27

>  <r_i_glide_eff_state_penalty>  (413) 
0

>  <ligand_id>  (413) 
112

>  <original_smiles>  (413) 
c1cn2cnsc2n1

>  <smiles>  (413) 
[H]c1nsc2n1c([H])c([H])[n+]2[H]

$$$$
112:1:2
     RDKit          3D

 12 13  0  0  1  0  0  0  0  0999 V2000
    3.0440   -1.0742   -4.1275 C   0  0  0  0  0  0  0  0  0  0  0  0
    3.3463   -2.4125   -3.8293 C   0  0  0  0  0  0  0  0  0  0  0  0
    4.0397   -2.3345   -2.6608 N   0  0  0  0  0  0  0  0  0  0  0  0
    4.6010   -3.2543   -1.8520 C   0  0  0  0  0  0  0  0  0  0  0  0
    5.1909   -2.7695   -0.7488 N   0  0  0  0  0  0  0  0  0  0  0  0
    4.9651   -1.0577   -0.7410 S   0  0  0  0  0  0  0  0  0  0  0  0
    4.1325   -1.0778   -2.2605 C   0  0  0  0  0  0  0  0  0  0  0  0
    3.5460   -0.2569   -3.1193 N   0  0  0  0  0  0  0  0  0  0  0  0
    2.4956   -0.6474   -4.9527 H   0  0  0  0  0  0  0  0  0  0  0  0
    3.1169   -3.3523   -4.3105 H   0  0  0  0  0  0  0  0  0  0  0  0
    4.5704   -4.2940   -2.1301 H   0  0  0  0  0  0  0  0  0  0  0  0
    3.4233    0.7447   -3.0210 H   0  0  0  0  0  0  0  0  0  0  0  0
  1  8  1  0
  1  2  2  0
  1  9  1  0
  2  3  1  0
  2 10  1  0
  3  7  1  0
  3  4  1  0
  4  5  2  0
  4 11  1  0
  5  6  1  0
  6  7  1  0
  7  8  2  0
  8 12  1  0
M  CHG  1   8   1
M  END
>  <i_m_ct_stereo_status>  (414) 
1

>  <s_m_source_file>  (414) 
/var/tmp/pbs.5076255.sched01/tmp2gi29psn/132an720x3a.sdf

>  <i_m_source_file_index>  (414) 
34

>  <i_lp_mmshare_version>  (414) 
48012

>  <i_f3d_flags>  (414) 
0

>  <s_epik_input>  (414) 
W2NIXTFbY0hdbmMobjEyKXNuW2NIXTI=

>  <s_epik_cmdline>  (414) 
J2VwaWtfcHl0aG9uJywgJy1waHQnLCAnMi4wJywgJy1waCcsICc3LjAnLCAnLXRuJywgJzgnLCAnLW1hJywgJzIwMCcsICctaW1hZScsICc8aW5maWxlLm1hZT4nLCAnLW9tYWUnLCAnPG91dGZpbGUubWFlPic=

>  <r_epik_Ionization_Penalty>  (414) 
2.11897

>  <r_epik_Ionization_Penalty_Charging>  (414) 
0

>  <r_epik_Ionization_Penalty_Neutral>  (414) 
2.11897

>  <r_epik_State_Penalty>  (414) 
2.25646

>  <r_epik_Charging_Adjusted_Penalty>  (414) 
2.25646

>  <i_epik_Tot_Q>  (414) 
1

>  <i_epik_Tot_abs_Q>  (414) 
1

>  <s_lp_Force_Field>  (414) 
OPLS3e

>  <r_lp_Energy>  (414) 
6.77796

>  <b_lp_Chiralities_Consistent>  (414) 
1

>  <s_lp_Variant>  (414) 
112:0-2

>  <s_i_glide_gridfile>  (414) 
pfpi4k_grid

>  <i_i_glide_lignum>  (414) 
34

>  <i_i_glide_rotatable_bonds>  (414) 
0

>  <r_i_docking_score>  (414) 
-4.17071

>  <r_i_glide_ligand_efficiency>  (414) 
-0.521339

>  <r_i_glide_ligand_efficiency_sa>  (414) 
-1.04268

>  <r_i_glide_ligand_efficiency_ln>  (414) 
-1.35437

>  <r_i_glide_gscore>  (414) 
-4.17071

>  <r_i_glide_lipo>  (414) 
-0.230493

>  <r_i_glide_hbond>  (414) 
0

>  <r_i_glide_metal>  (414) 
-0

>  <r_i_glide_rewards>  (414) 
-2.39768

>  <r_i_glide_evdw>  (414) 
-15.2292

>  <r_i_glide_ecoul>  (414) 
-5.05306

>  <r_i_glide_erotb>  (414) 
0

>  <r_i_glide_esite>  (414) 
-0.0231213

>  <r_i_glide_emodel>  (414) 
-27.3293

>  <r_i_glide_energy>  (414) 
-20.2822

>  <r_i_glide_einternal>  (414) 
0

>  <r_i_glide_intrahb_reward>  (414) 
-0

>  <i_i_glide_confnum>  (414) 
1

>  <i_i_glide_posenum>  (414) 
2

>  <r_i_glide_eff_state_penalty>  (414) 
0

>  <ligand_id>  (414) 
112

>  <original_smiles>  (414) 
c1cn2cnsc2n1

>  <smiles>  (414) 
[H]c1nsc2n1c([H])c([H])[n+]2[H]

$$$$
114:0:0
     RDKit          3D

 30 31  0  0  1  0  0  0  0  0999 V2000
    3.5569    0.8497   -5.3228 C   0  0  0  0  0  0  0  0  0  0  0  0
    3.2833   -0.4556   -4.5850 C   0  0  0  0  0  0  0  0  0  0  0  0
    4.0368   -0.4636   -3.3821 O   0  0  0  0  0  0  0  0  0  0  0  0
    3.7965   -1.4691   -2.4754 C   0  0  0  0  0  0  0  0  0  0  0  0
    4.5783   -1.4630   -1.3045 C   0  0  0  0  0  0  0  0  0  0  0  0
    4.3889   -2.4438   -0.3114 C   0  0  0  0  0  0  0  0  0  0  0  0
    3.4054   -3.4447   -0.4590 C   0  0  0  0  0  0  0  0  0  0  0  0
    3.2843   -4.3914    0.5997 N   0  0  0  0  0  0  0  0  0  0  0  0
    2.3776   -5.3685    0.7925 C   0  0  0  0  0  0  0  0  0  0  0  0
    1.4223   -5.6115    0.0531 O   0  0  0  0  0  0  0  0  0  0  0  0
    2.5618   -6.1954    2.0726 C   0  0  0  0  0  0  0  0  0  0  0  0
    1.3062   -6.7699    2.5315 N   0  0  0  0  0  0  0  0  0  0  0  0
    0.6054   -6.2505    3.5303 N   0  0  0  0  0  0  0  0  0  0  0  0
   -0.5001   -7.0660    3.6381 N   0  0  0  0  0  0  0  0  0  0  0  0
   -0.4137   -8.0376    2.6732 N   0  0  0  0  0  0  0  0  0  0  0  0
    0.7556   -7.8433    1.9723 N   0  0  0  0  0  0  0  0  0  0  0  0
    2.6179   -3.4549   -1.6390 C   0  0  0  0  0  0  0  0  0  0  0  0
    2.8199   -2.4846   -2.6417 C   0  0  0  0  0  0  0  0  0  0  0  0
    3.0225    0.8848   -6.2715 H   0  0  0  0  0  0  0  0  0  0  0  0
    4.6179    0.9457   -5.5228 H   0  0  0  0  0  0  0  0  0  0  0  0
    3.2564    1.7107   -4.7226 H   0  0  0  0  0  0  0  0  0  0  0  0
    2.2147   -0.5191   -4.3954 H   0  0  0  0  0  0  0  0  0  0  0  0
    3.5729   -1.3170   -5.1851 H   0  0  0  0  0  0  0  0  0  0  0  0
    5.3212   -0.6931   -1.1631 H   0  0  0  0  0  0  0  0  0  0  0  0
    5.0048   -2.4202    0.5756 H   0  0  0  0  0  0  0  0  0  0  0  0
    3.9838   -4.3223    1.3271 H   0  0  0  0  0  0  0  0  0  0  0  0
    3.2710   -6.9981    1.8735 H   0  0  0  0  0  0  0  0  0  0  0  0
    2.9734   -5.5676    2.8644 H   0  0  0  0  0  0  0  0  0  0  0  0
    1.8496   -4.1875   -1.8182 H   0  0  0  0  0  0  0  0  0  0  0  0
    2.1780   -2.5343   -3.5061 H   0  0  0  0  0  0  0  0  0  0  0  0
  1  2  1  0
  1 19  1  0
  1 20  1  0
  1 21  1  0
  2  3  1  0
  2 22  1  0
  2 23  1  0
  3  4  1  0
  4 18  2  0
  4  5  1  0
  5  6  2  0
  5 24  1  0
  6  7  1  0
  6 25  1  0
  7  8  1  0
  7 17  2  0
  8  9  1  0
  8 26  1  0
  9 10  2  0
  9 11  1  0
 11 12  1  0
 11 27  1  0
 11 28  1  0
 12 16  1  0
 12 13  1  0
 13 14  2  0
 14 15  1  0
 15 16  2  0
 17 18  1  0
 17 29  1  0
 18 30  1  0
M  END
>  <i_m_ct_stereo_status>  (415) 
1

>  <s_m_source_file>  (415) 
/var/tmp/pbs.5076255.sched01/tmp2gi29psn/132an720x3a.sdf

>  <i_m_source_file_index>  (415) 
36

>  <i_lp_mmshare_version>  (415) 
48012

>  <i_f3d_flags>  (415) 
0

>  <s_epik_input>  (415) 
W0NIM11bQ0gyXU9jMVtjSF1bY0hdYyhbY0hdW2NIXTEpW05IXUMoPU8pW0NIMl1uMm5ubm4y

>  <s_epik_cmdline>  (415) 
J2VwaWtfcHl0aG9uJywgJy1waHQnLCAnMi4wJywgJy1waCcsICc3LjAnLCAnLXRuJywgJzgnLCAnLW1hJywgJzIwMCcsICctaW1hZScsICc8aW5maWxlLm1hZT4nLCAnLW9tYWUnLCAnPG91dGZpbGUubWFlPic=

>  <r_lp_tautomer_probability>  (415) 
1

>  <r_epik_Ionization_Penalty>  (415) 
0.000212827

>  <r_epik_Ionization_Penalty_Charging>  (415) 
0

>  <r_epik_Ionization_Penalty_Neutral>  (415) 
0.000212827

>  <r_epik_State_Penalty>  (415) 
0.395579

>  <r_epik_Charging_Adjusted_Penalty>  (415) 
0.395579

>  <i_epik_Tot_Q>  (415) 
0

>  <i_epik_Tot_abs_Q>  (415) 
0

>  <s_lp_Force_Field>  (415) 
OPLS3e

>  <r_lp_Energy>  (415) 
14.0028

>  <b_lp_Chiralities_Consistent>  (415) 
1

>  <s_lp_Variant>  (415) 
114:0-1

>  <s_i_glide_gridfile>  (415) 
pfpi4k_grid

>  <i_i_glide_lignum>  (415) 
36

>  <i_i_glide_rotatable_bonds>  (415) 
6

>  <r_i_docking_score>  (415) 
-3.39039

>  <r_i_glide_ligand_efficiency>  (415) 
-0.188355

>  <r_i_glide_ligand_efficiency_sa>  (415) 
-0.493629

>  <r_i_glide_ligand_efficiency_ln>  (415) 
-0.871481

>  <r_i_glide_gscore>  (415) 
-3.39039

>  <r_i_glide_lipo>  (415) 
-0.588704

>  <r_i_glide_hbond>  (415) 
-0.147396

>  <r_i_glide_metal>  (415) 
-0

>  <r_i_glide_rewards>  (415) 
-1.71654

>  <r_i_glide_evdw>  (415) 
-27.3772

>  <r_i_glide_ecoul>  (415) 
-2.71193

>  <r_i_glide_erotb>  (415) 
1.13363

>  <r_i_glide_esite>  (415) 
-0.295733

>  <r_i_glide_emodel>  (415) 
-36.7371

>  <r_i_glide_energy>  (415) 
-30.0891

>  <r_i_glide_einternal>  (415) 
0.859166

>  <r_i_glide_intrahb_reward>  (415) 
-0

>  <i_i_glide_confnum>  (415) 
1

>  <i_i_glide_posenum>  (415) 
29

>  <r_i_glide_eff_state_penalty>  (415) 
0

>  <ligand_id>  (415) 
114

>  <original_smiles>  (415) 
CCOc1ccc(NC(=O)Cn2nnnn2)cc1

>  <smiles>  (415) 
[H]c1c([H])c(N([H])C(=O)C([H])([H])n2nnnn2)c([H])c([H])c1OC([H])([H])C([H])([H])[H]

$$$$
114:0:1
     RDKit          3D

 30 31  0  0  1  0  0  0  0  0999 V2000
    3.8177   -1.6736   -3.7360 C   0  0  0  0  0  0  0  0  0  0  0  0
    4.3638   -1.0471   -2.4367 C   0  0  0  0  0  0  0  0  0  0  0  0
    5.1727   -1.9565   -1.7036 O   0  0  0  0  0  0  0  0  0  0  0  0
    4.5519   -2.9674   -1.0063 C   0  0  0  0  0  0  0  0  0  0  0  0
    5.3709   -3.8455   -0.2670 C   0  0  0  0  0  0  0  0  0  0  0  0
    4.8041   -4.9082    0.4656 C   0  0  0  0  0  0  0  0  0  0  0  0
    3.4126   -5.1258    0.4551 C   0  0  0  0  0  0  0  0  0  0  0  0
    2.9085   -6.2129    1.2209 N   0  0  0  0  0  0  0  0  0  0  0  0
    1.6597   -6.6937    1.3126 C   0  0  0  0  0  0  0  0  0  0  0  0
    0.6807   -6.2627    0.6949 O   0  0  0  0  0  0  0  0  0  0  0  0
    1.5029   -7.8730    2.2877 C   0  0  0  0  0  0  0  0  0  0  0  0
    0.1817   -7.9167    2.8809 N   0  0  0  0  0  0  0  0  0  0  0  0
   -0.2053   -7.0715    3.8266 N   0  0  0  0  0  0  0  0  0  0  0  0
   -1.5117   -7.4213    4.0819 N   0  0  0  0  0  0  0  0  0  0  0  0
   -1.8483   -8.4630    3.2530 N   0  0  0  0  0  0  0  0  0  0  0  0
   -0.7534   -8.7645    2.4803 N   0  0  0  0  0  0  0  0  0  0  0  0
    2.5975   -4.2553   -0.3008 C   0  0  0  0  0  0  0  0  0  0  0  0
    3.1534   -3.1771   -0.9979 C   0  0  0  0  0  0  0  0  0  0  0  0
    3.2288   -0.9499   -4.3003 H   0  0  0  0  0  0  0  0  0  0  0  0
    3.1762   -2.5451   -3.5696 H   0  0  0  0  0  0  0  0  0  0  0  0
    4.6325   -2.0136   -4.3670 H   0  0  0  0  0  0  0  0  0  0  0  0
    4.9869   -0.1898   -2.6877 H   0  0  0  0  0  0  0  0  0  0  0  0
    3.5671   -0.6606   -1.8045 H   0  0  0  0  0  0  0  0  0  0  0  0
    6.4381   -3.6951   -0.2542 H   0  0  0  0  0  0  0  0  0  0  0  0
    5.4497   -5.5575    1.0349 H   0  0  0  0  0  0  0  0  0  0  0  0
    3.5902   -6.6905    1.7857 H   0  0  0  0  0  0  0  0  0  0  0  0
    1.6965   -8.8107    1.7630 H   0  0  0  0  0  0  0  0  0  0  0  0
    2.2309   -7.8035    3.0996 H   0  0  0  0  0  0  0  0  0  0  0  0
    1.5352   -4.3835   -0.3896 H   0  0  0  0  0  0  0  0  0  0  0  0
    2.4618   -2.5392   -1.5250 H   0  0  0  0  0  0  0  0  0  0  0  0
  1  2  1  0
  1 19  1  0
  1 20  1  0
  1 21  1  0
  2  3  1  0
  2 22  1  0
  2 23  1  0
  3  4  1  0
  4 18  2  0
  4  5  1  0
  5  6  2  0
  5 24  1  0
  6  7  1  0
  6 25  1  0
  7  8  1  0
  7 17  2  0
  8  9  1  0
  8 26  1  0
  9 10  2  0
  9 11  1  0
 11 12  1  0
 11 27  1  0
 11 28  1  0
 12 16  1  0
 12 13  1  0
 13 14  2  0
 14 15  1  0
 15 16  2  0
 17 18  1  0
 17 29  1  0
 18 30  1  0
M  END
>  <i_m_ct_stereo_status>  (416) 
1

>  <s_m_source_file>  (416) 
/var/tmp/pbs.5076255.sched01/tmp2gi29psn/132an720x3a.sdf

>  <i_m_source_file_index>  (416) 
36

>  <i_lp_mmshare_version>  (416) 
48012

>  <i_f3d_flags>  (416) 
0

>  <s_epik_input>  (416) 
W0NIM11bQ0gyXU9jMVtjSF1bY0hdYyhbY0hdW2NIXTEpW05IXUMoPU8pW0NIMl1uMm5ubm4y

>  <s_epik_cmdline>  (416) 
J2VwaWtfcHl0aG9uJywgJy1waHQnLCAnMi4wJywgJy1waCcsICc3LjAnLCAnLXRuJywgJzgnLCAnLW1hJywgJzIwMCcsICctaW1hZScsICc8aW5maWxlLm1hZT4nLCAnLW9tYWUnLCAnPG91dGZpbGUubWFlPic=

>  <r_lp_tautomer_probability>  (416) 
1

>  <r_epik_Ionization_Penalty>  (416) 
0.000212827

>  <r_epik_Ionization_Penalty_Charging>  (416) 
0

>  <r_epik_Ionization_Penalty_Neutral>  (416) 
0.000212827

>  <r_epik_State_Penalty>  (416) 
0.395579

>  <r_epik_Charging_Adjusted_Penalty>  (416) 
0.395579

>  <i_epik_Tot_Q>  (416) 
0

>  <i_epik_Tot_abs_Q>  (416) 
0

>  <s_lp_Force_Field>  (416) 
OPLS3e

>  <r_lp_Energy>  (416) 
14.0028

>  <b_lp_Chiralities_Consistent>  (416) 
1

>  <s_lp_Variant>  (416) 
114:0-1

>  <s_i_glide_gridfile>  (416) 
pfpi4k_grid

>  <i_i_glide_lignum>  (416) 
36

>  <i_i_glide_rotatable_bonds>  (416) 
6

>  <r_i_docking_score>  (416) 
-3.32575

>  <r_i_glide_ligand_efficiency>  (416) 
-0.184764

>  <r_i_glide_ligand_efficiency_sa>  (416) 
-0.484218

>  <r_i_glide_ligand_efficiency_ln>  (416) 
-0.854866

>  <r_i_glide_gscore>  (416) 
-3.32575

>  <r_i_glide_lipo>  (416) 
-0.328487

>  <r_i_glide_hbond>  (416) 
-0.16

>  <r_i_glide_metal>  (416) 
-0

>  <r_i_glide_rewards>  (416) 
-1.71654

>  <r_i_glide_evdw>  (416) 
-27.7872

>  <r_i_glide_ecoul>  (416) 
-3.93591

>  <r_i_glide_erotb>  (416) 
1.13363

>  <r_i_glide_esite>  (416) 
-0.274611

>  <r_i_glide_emodel>  (416) 
-38.2437

>  <r_i_glide_energy>  (416) 
-31.7231

>  <r_i_glide_einternal>  (416) 
0.637487

>  <r_i_glide_intrahb_reward>  (416) 
-0

>  <i_i_glide_confnum>  (416) 
1

>  <i_i_glide_posenum>  (416) 
28

>  <r_i_glide_eff_state_penalty>  (416) 
0

>  <ligand_id>  (416) 
114

>  <original_smiles>  (416) 
CCOc1ccc(NC(=O)Cn2nnnn2)cc1

>  <smiles>  (416) 
[H]c1c([H])c(N([H])C(=O)C([H])([H])n2nnnn2)c([H])c([H])c1OC([H])([H])C([H])([H])[H]

$$$$
114:0:2
     RDKit          3D

 30 31  0  0  1  0  0  0  0  0999 V2000
    3.4184   -0.2346   -3.1599 C   0  0  0  0  0  0  0  0  0  0  0  0
    4.1309   -1.4408   -3.7958 C   0  0  0  0  0  0  0  0  0  0  0  0
    5.0050   -2.0956   -2.8914 O   0  0  0  0  0  0  0  0  0  0  0  0
    4.4497   -2.9316   -1.9300 C   0  0  0  0  0  0  0  0  0  0  0  0
    5.3437   -3.6474   -1.1178 C   0  0  0  0  0  0  0  0  0  0  0  0
    4.8669   -4.5134   -0.1166 C   0  0  0  0  0  0  0  0  0  0  0  0
    3.4818   -4.6679    0.0998 C   0  0  0  0  0  0  0  0  0  0  0  0
    3.0672   -5.5471    1.1390 N   0  0  0  0  0  0  0  0  0  0  0  0
    1.9011   -6.2121    1.2627 C   0  0  0  0  0  0  0  0  0  0  0  0
    0.9696   -6.1398    0.4657 O   0  0  0  0  0  0  0  0  0  0  0  0
    1.8020   -7.1208    2.4904 C   0  0  0  0  0  0  0  0  0  0  0  0
    0.4317   -7.3088    2.9318 N   0  0  0  0  0  0  0  0  0  0  0  0
   -0.0830   -6.6543    3.9622 N   0  0  0  0  0  0  0  0  0  0  0  0
   -1.3780   -7.1109    4.0541 N   0  0  0  0  0  0  0  0  0  0  0  0
   -1.5867   -8.0146    3.0473 N   0  0  0  0  0  0  0  0  0  0  0  0
   -0.4143   -8.1374    2.3355 N   0  0  0  0  0  0  0  0  0  0  0  0
    2.5888   -3.9261   -0.7021 C   0  0  0  0  0  0  0  0  0  0  0  0
    3.0626   -3.0995   -1.7275 C   0  0  0  0  0  0  0  0  0  0  0  0
    2.7840    0.2654   -3.8863 H   0  0  0  0  0  0  0  0  0  0  0  0
    4.1395    0.4914   -2.7859 H   0  0  0  0  0  0  0  0  0  0  0  0
    2.7670   -0.4959   -2.3249 H   0  0  0  0  0  0  0  0  0  0  0  0
    3.4364   -2.1464   -4.2506 H   0  0  0  0  0  0  0  0  0  0  0  0
    4.7371   -1.0674   -4.6124 H   0  0  0  0  0  0  0  0  0  0  0  0
    6.4137   -3.5444   -1.2701 H   0  0  0  0  0  0  0  0  0  0  0  0
    5.5730   -5.0885    0.4762 H   0  0  0  0  0  0  0  0  0  0  0  0
    3.7728   -5.7922    1.8038 H   0  0  0  0  0  0  0  0  0  0  0  0
    2.2367   -8.0938    2.2485 H   0  0  0  0  0  0  0  0  0  0  0  0
    2.3833   -6.7011    3.3130 H   0  0  0  0  0  0  0  0  0  0  0  0
    1.5149   -4.0054   -0.5923 H   0  0  0  0  0  0  0  0  0  0  0  0
    2.3076   -2.6051   -2.3317 H   0  0  0  0  0  0  0  0  0  0  0  0
  1  2  1  0
  1 19  1  0
  1 20  1  0
  1 21  1  0
  2  3  1  0
  2 22  1  0
  2 23  1  0
  3  4  1  0
  4 18  2  0
  4  5  1  0
  5  6  2  0
  5 24  1  0
  6  7  1  0
  6 25  1  0
  7  8  1  0
  7 17  2  0
  8  9  1  0
  8 26  1  0
  9 10  2  0
  9 11  1  0
 11 12  1  0
 11 27  1  0
 11 28  1  0
 12 16  1  0
 12 13  1  0
 13 14  2  0
 14 15  1  0
 15 16  2  0
 17 18  1  0
 17 29  1  0
 18 30  1  0
M  END
>  <i_m_ct_stereo_status>  (417) 
1

>  <s_m_source_file>  (417) 
/var/tmp/pbs.5076255.sched01/tmp2gi29psn/132an720x3a.sdf

>  <i_m_source_file_index>  (417) 
36

>  <i_lp_mmshare_version>  (417) 
48012

>  <i_f3d_flags>  (417) 
0

>  <s_epik_input>  (417) 
W0NIM11bQ0gyXU9jMVtjSF1bY0hdYyhbY0hdW2NIXTEpW05IXUMoPU8pW0NIMl1uMm5ubm4y

>  <s_epik_cmdline>  (417) 
J2VwaWtfcHl0aG9uJywgJy1waHQnLCAnMi4wJywgJy1waCcsICc3LjAnLCAnLXRuJywgJzgnLCAnLW1hJywgJzIwMCcsICctaW1hZScsICc8aW5maWxlLm1hZT4nLCAnLW9tYWUnLCAnPG91dGZpbGUubWFlPic=

>  <r_lp_tautomer_probability>  (417) 
1

>  <r_epik_Ionization_Penalty>  (417) 
0.000212827

>  <r_epik_Ionization_Penalty_Charging>  (417) 
0

>  <r_epik_Ionization_Penalty_Neutral>  (417) 
0.000212827

>  <r_epik_State_Penalty>  (417) 
0.395579

>  <r_epik_Charging_Adjusted_Penalty>  (417) 
0.395579

>  <i_epik_Tot_Q>  (417) 
0

>  <i_epik_Tot_abs_Q>  (417) 
0

>  <s_lp_Force_Field>  (417) 
OPLS3e

>  <r_lp_Energy>  (417) 
14.0028

>  <b_lp_Chiralities_Consistent>  (417) 
1

>  <s_lp_Variant>  (417) 
114:0-1

>  <s_i_glide_gridfile>  (417) 
pfpi4k_grid

>  <i_i_glide_lignum>  (417) 
36

>  <i_i_glide_rotatable_bonds>  (417) 
6

>  <r_i_docking_score>  (417) 
-3.2495

>  <r_i_glide_ligand_efficiency>  (417) 
-0.180528

>  <r_i_glide_ligand_efficiency_sa>  (417) 
-0.473117

>  <r_i_glide_ligand_efficiency_ln>  (417) 
-0.835268

>  <r_i_glide_gscore>  (417) 
-3.2495

>  <r_i_glide_lipo>  (417) 
-0.326465

>  <r_i_glide_hbond>  (417) 
-0.196733

>  <r_i_glide_metal>  (417) 
-0

>  <r_i_glide_rewards>  (417) 
-1.71654

>  <r_i_glide_evdw>  (417) 
-27.0635

>  <r_i_glide_ecoul>  (417) 
-3.22722

>  <r_i_glide_erotb>  (417) 
1.13363

>  <r_i_glide_esite>  (417) 
-0.306145

>  <r_i_glide_emodel>  (417) 
-36.4075

>  <r_i_glide_energy>  (417) 
-30.2907

>  <r_i_glide_einternal>  (417) 
1.1466

>  <r_i_glide_intrahb_reward>  (417) 
-0

>  <i_i_glide_confnum>  (417) 
1

>  <i_i_glide_posenum>  (417) 
14

>  <r_i_glide_eff_state_penalty>  (417) 
0

>  <ligand_id>  (417) 
114

>  <original_smiles>  (417) 
CCOc1ccc(NC(=O)Cn2nnnn2)cc1

>  <smiles>  (417) 
[H]c1c([H])c(N([H])C(=O)C([H])([H])n2nnnn2)c([H])c([H])c1OC([H])([H])C([H])([H])[H]

$$$$
114:1:0
     RDKit          3D

 31 32  0  0  1  0  0  0  0  0999 V2000
   -2.1215    2.5924    4.6900 C   0  0  0  0  0  0  0  0  0  0  0  0
   -1.0627    3.6842    4.3897 C   0  0  0  0  0  0  0  0  0  0  0  0
    0.2692    3.2373    4.6087 O   0  0  0  0  0  0  0  0  0  0  0  0
    0.8386    2.3857    3.6882 C   0  0  0  0  0  0  0  0  0  0  0  0
    0.1637    1.8703    2.5482 C   0  0  0  0  0  0  0  0  0  0  0  0
    0.7946    0.9504    1.7075 C   0  0  0  0  0  0  0  0  0  0  0  0
    2.1250    0.5787    1.9043 C   0  0  0  0  0  0  0  0  0  0  0  0
    2.6566   -0.3566    0.9671 N   0  0  0  0  0  0  0  0  0  0  0  0
    3.9081   -0.8142    0.8620 C   0  0  0  0  0  0  0  0  0  0  0  0
    4.8860   -0.2966    1.4140 O   0  0  0  0  0  0  0  0  0  0  0  0
    4.1569   -2.0606   -0.0028 C   0  0  0  0  0  0  0  0  0  0  0  0
    3.4968   -2.0431   -1.2986 N   0  0  0  0  0  0  0  0  0  0  0  0
    3.7672   -1.1862   -2.2847 N   0  0  0  0  0  0  0  0  0  0  0  0
    3.0089   -1.6714   -3.3369 N   0  0  0  0  0  0  0  0  0  0  0  0
    2.3603   -2.7445   -2.9505 N   0  0  0  0  0  0  0  0  0  0  0  0
    2.6666   -2.9881   -1.7086 N   0  0  0  0  0  0  0  0  0  0  0  0
    2.8267    1.1106    3.0163 C   0  0  0  0  0  0  0  0  0  0  0  0
    2.1770    1.9973    3.9027 C   0  0  0  0  0  0  0  0  0  0  0  0
   -3.1277    2.9864    4.5408 H   0  0  0  0  0  0  0  0  0  0  0  0
   -2.0241    2.2412    5.7184 H   0  0  0  0  0  0  0  0  0  0  0  0
   -2.0571    1.6967    4.0683 H   0  0  0  0  0  0  0  0  0  0  0  0
   -1.1493    4.1293    3.3971 H   0  0  0  0  0  0  0  0  0  0  0  0
   -1.2137    4.5110    5.0797 H   0  0  0  0  0  0  0  0  0  0  0  0
   -0.8364    2.1583    2.2662 H   0  0  0  0  0  0  0  0  0  0  0  0
    0.2261    0.5482    0.8975 H   0  0  0  0  0  0  0  0  0  0  0  0
    1.9615   -0.7029    0.2979 H   0  0  0  0  0  0  0  0  0  0  0  0
    5.2332   -2.1613   -0.1614 H   0  0  0  0  0  0  0  0  0  0  0  0
    3.8393   -2.9352    0.5706 H   0  0  0  0  0  0  0  0  0  0  0  0
    3.8545    0.8564    3.2299 H   0  0  0  0  0  0  0  0  0  0  0  0
    2.7182    2.3913    4.7546 H   0  0  0  0  0  0  0  0  0  0  0  0
    1.7155   -3.2936   -3.5115 H   0  0  0  0  0  0  0  0  0  0  0  0
  1  2  1  0
  1 19  1  0
  1 20  1  0
  1 21  1  0
  2  3  1  0
  2 22  1  0
  2 23  1  0
  3  4  1  0
  4 18  2  0
  4  5  1  0
  5  6  2  0
  5 24  1  0
  6  7  1  0
  6 25  1  0
  7  8  1  0
  7 17  2  0
  8  9  1  0
  8 26  1  0
  9 10  2  0
  9 11  1  0
 11 12  1  0
 11 27  1  0
 11 28  1  0
 12 16  1  0
 12 13  1  0
 13 14  2  0
 14 15  1  0
 15 16  2  0
 15 31  1  0
 17 18  1  0
 17 29  1  0
 18 30  1  0
M  CHG  1  15   1
M  END
>  <i_m_ct_stereo_status>  (418) 
1

>  <s_m_source_file>  (418) 
/var/tmp/pbs.5076255.sched01/tmp2gi29psn/132an720x3a.sdf

>  <i_m_source_file_index>  (418) 
37

>  <i_lp_mmshare_version>  (418) 
48012

>  <i_f3d_flags>  (418) 
0

>  <s_epik_input>  (418) 
W0NIM11bQ0gyXU9jMVtjSF1bY0hdYyhbY0hdW2NIXTEpW05IXUMoPU8pW0NIMl1uMm5ubm4y

>  <s_epik_cmdline>  (418) 
J2VwaWtfcHl0aG9uJywgJy1waHQnLCAnMi4wJywgJy1waCcsICc3LjAnLCAnLXRuJywgJzgnLCAnLW1hJywgJzIwMCcsICctaW1hZScsICc8aW5maWxlLm1hZT4nLCAnLW9tYWUnLCAnPG91dGZpbGUubWFlPic=

>  <r_lp_tautomer_probability>  (418) 
1

>  <r_epik_Ionization_Penalty>  (418) 
0.425191

>  <r_epik_Ionization_Penalty_Charging>  (418) 
0.42519

>  <r_epik_Ionization_Penalty_Neutral>  (418) 
4.85058e-07

>  <r_epik_State_Penalty>  (418) 
0.426176

>  <r_epik_Charging_Adjusted_Penalty>  (418) 
0.851366

>  <i_epik_Tot_Q>  (418) 
1

>  <i_epik_Tot_abs_Q>  (418) 
1

>  <s_lp_Force_Field>  (418) 
OPLS3e

>  <r_lp_Energy>  (418) 
20.0361

>  <b_lp_Chiralities_Consistent>  (418) 
1

>  <s_lp_Variant>  (418) 
114:0-2

>  <s_i_glide_gridfile>  (418) 
pfpi4k_grid

>  <i_i_glide_lignum>  (418) 
37

>  <i_i_glide_rotatable_bonds>  (418) 
6

>  <r_i_docking_score>  (418) 
-3.33781

>  <r_i_glide_ligand_efficiency>  (418) 
-0.185434

>  <r_i_glide_ligand_efficiency_sa>  (418) 
-0.485975

>  <r_i_glide_ligand_efficiency_ln>  (418) 
-0.857967

>  <r_i_glide_gscore>  (418) 
-3.33781

>  <r_i_glide_lipo>  (418) 
0

>  <r_i_glide_hbond>  (418) 
-0.192587

>  <r_i_glide_metal>  (418) 
-0

>  <r_i_glide_rewards>  (418) 
-1.70966

>  <r_i_glide_evdw>  (418) 
-21.7643

>  <r_i_glide_ecoul>  (418) 
-8.55876

>  <r_i_glide_erotb>  (418) 
1.12579

>  <r_i_glide_esite>  (418) 
-0.189322

>  <r_i_glide_emodel>  (418) 
-37.013

>  <r_i_glide_energy>  (418) 
-30.323

>  <r_i_glide_einternal>  (418) 
1.74056

>  <r_i_glide_intrahb_reward>  (418) 
-0

>  <i_i_glide_confnum>  (418) 
1

>  <i_i_glide_posenum>  (418) 
10

>  <r_i_glide_eff_state_penalty>  (418) 
0

>  <ligand_id>  (418) 
114

>  <original_smiles>  (418) 
CCOc1ccc(NC(=O)Cn2nnnn2)cc1

>  <smiles>  (418) 
[H]c1c([H])c(N([H])C(=O)C([H])([H])n2nn[n+]([H])n2)c([H])c([H])c1OC([H])([H])C([H])([H])[H]

$$$$
114:1:1
     RDKit          3D

 31 32  0  0  1  0  0  0  0  0999 V2000
   -2.3002    3.2642    5.8952 C   0  0  0  0  0  0  0  0  0  0  0  0
   -1.7131    3.0754    4.4994 C   0  0  0  0  0  0  0  0  0  0  0  0
   -0.3002    2.9657    4.6277 O   0  0  0  0  0  0  0  0  0  0  0  0
    0.4041    2.1450    3.7714 C   0  0  0  0  0  0  0  0  0  0  0  0
   -0.1850    1.2952    2.8012 C   0  0  0  0  0  0  0  0  0  0  0  0
    0.6204    0.4651    2.0095 C   0  0  0  0  0  0  0  0  0  0  0  0
    2.0184    0.4642    2.1382 C   0  0  0  0  0  0  0  0  0  0  0  0
    2.7180   -0.4220    1.2735 N   0  0  0  0  0  0  0  0  0  0  0  0
    4.0266   -0.7548    1.2708 C   0  0  0  0  0  0  0  0  0  0  0  0
    4.8687   -0.2637    2.0175 O   0  0  0  0  0  0  0  0  0  0  0  0
    4.5052   -1.8452    0.2981 C   0  0  0  0  0  0  0  0  0  0  0  0
    3.7670   -1.9378   -0.9540 N   0  0  0  0  0  0  0  0  0  0  0  0
    3.8743   -1.0618   -1.9641 N   0  0  0  0  0  0  0  0  0  0  0  0
    3.0879   -1.6382   -2.9537 N   0  0  0  0  0  0  0  0  0  0  0  0
    2.6024   -2.7718   -2.5124 N   0  0  0  0  0  0  0  0  0  0  0  0
    3.0157   -2.9762   -1.2926 N   0  0  0  0  0  0  0  0  0  0  0  0
    2.6161    1.3287    3.0850 C   0  0  0  0  0  0  0  0  0  0  0  0
    1.8107    2.1527    3.8955 C   0  0  0  0  0  0  0  0  0  0  0  0
   -3.3848    3.3480    5.8367 H   0  0  0  0  0  0  0  0  0  0  0  0
   -1.8981    4.1488    6.3845 H   0  0  0  0  0  0  0  0  0  0  0  0
   -2.0610    2.4030    6.5197 H   0  0  0  0  0  0  0  0  0  0  0  0
   -2.2152    2.2013    4.1002 H   0  0  0  0  0  0  0  0  0  0  0  0
   -1.9414    3.9261    3.8527 H   0  0  0  0  0  0  0  0  0  0  0  0
   -1.2424    1.2356    2.6187 H   0  0  0  0  0  0  0  0  0  0  0  0
    0.1519   -0.1701    1.2824 H   0  0  0  0  0  0  0  0  0  0  0  0
    2.1216   -0.8515    0.5749 H   0  0  0  0  0  0  0  0  0  0  0  0
    5.5554   -1.6484    0.0611 H   0  0  0  0  0  0  0  0  0  0  0  0
    4.4693   -2.8017    0.8147 H   0  0  0  0  0  0  0  0  0  0  0  0
    3.6850    1.3881    3.2170 H   0  0  0  0  0  0  0  0  0  0  0  0
    2.2874    2.7964    4.6220 H   0  0  0  0  0  0  0  0  0  0  0  0
    1.9921   -3.3944   -3.0327 H   0  0  0  0  0  0  0  0  0  0  0  0
  1  2  1  0
  1 19  1  0
  1 20  1  0
  1 21  1  0
  2  3  1  0
  2 22  1  0
  2 23  1  0
  3  4  1  0
  4 18  2  0
  4  5  1  0
  5  6  2  0
  5 24  1  0
  6  7  1  0
  6 25  1  0
  7  8  1  0
  7 17  2  0
  8  9  1  0
  8 26  1  0
  9 10  2  0
  9 11  1  0
 11 12  1  0
 11 27  1  0
 11 28  1  0
 12 16  1  0
 12 13  1  0
 13 14  2  0
 14 15  1  0
 15 16  2  0
 15 31  1  0
 17 18  1  0
 17 29  1  0
 18 30  1  0
M  CHG  1  15   1
M  END
>  <i_m_ct_stereo_status>  (419) 
1

>  <s_m_source_file>  (419) 
/var/tmp/pbs.5076255.sched01/tmp2gi29psn/132an720x3a.sdf

>  <i_m_source_file_index>  (419) 
37

>  <i_lp_mmshare_version>  (419) 
48012

>  <i_f3d_flags>  (419) 
0

>  <s_epik_input>  (419) 
W0NIM11bQ0gyXU9jMVtjSF1bY0hdYyhbY0hdW2NIXTEpW05IXUMoPU8pW0NIMl1uMm5ubm4y

>  <s_epik_cmdline>  (419) 
J2VwaWtfcHl0aG9uJywgJy1waHQnLCAnMi4wJywgJy1waCcsICc3LjAnLCAnLXRuJywgJzgnLCAnLW1hJywgJzIwMCcsICctaW1hZScsICc8aW5maWxlLm1hZT4nLCAnLW9tYWUnLCAnPG91dGZpbGUubWFlPic=

>  <r_lp_tautomer_probability>  (419) 
1

>  <r_epik_Ionization_Penalty>  (419) 
0.425191

>  <r_epik_Ionization_Penalty_Charging>  (419) 
0.42519

>  <r_epik_Ionization_Penalty_Neutral>  (419) 
4.85058e-07

>  <r_epik_State_Penalty>  (419) 
0.426176

>  <r_epik_Charging_Adjusted_Penalty>  (419) 
0.851366

>  <i_epik_Tot_Q>  (419) 
1

>  <i_epik_Tot_abs_Q>  (419) 
1

>  <s_lp_Force_Field>  (419) 
OPLS3e

>  <r_lp_Energy>  (419) 
20.0361

>  <b_lp_Chiralities_Consistent>  (419) 
1

>  <s_lp_Variant>  (419) 
114:0-2

>  <s_i_glide_gridfile>  (419) 
pfpi4k_grid

>  <i_i_glide_lignum>  (419) 
37

>  <i_i_glide_rotatable_bonds>  (419) 
6

>  <r_i_docking_score>  (419) 
-3.29906

>  <r_i_glide_ligand_efficiency>  (419) 
-0.183281

>  <r_i_glide_ligand_efficiency_sa>  (419) 
-0.480332

>  <r_i_glide_ligand_efficiency_ln>  (419) 
-0.848006

>  <r_i_glide_gscore>  (419) 
-3.29906

>  <r_i_glide_lipo>  (419) 
-0.036884

>  <r_i_glide_hbond>  (419) 
-0.218411

>  <r_i_glide_metal>  (419) 
-0

>  <r_i_glide_rewards>  (419) 
-1.76242

>  <r_i_glide_evdw>  (419) 
-23.7053

>  <r_i_glide_ecoul>  (419) 
-6.75514

>  <r_i_glide_erotb>  (419) 
1.12579

>  <r_i_glide_esite>  (419) 
-0.208598

>  <r_i_glide_emodel>  (419) 
-37.3438

>  <r_i_glide_energy>  (419) 
-30.4604

>  <r_i_glide_einternal>  (419) 
1.44948

>  <r_i_glide_intrahb_reward>  (419) 
-0

>  <i_i_glide_confnum>  (419) 
1

>  <i_i_glide_posenum>  (419) 
6

>  <r_i_glide_eff_state_penalty>  (419) 
0

>  <ligand_id>  (419) 
114

>  <original_smiles>  (419) 
CCOc1ccc(NC(=O)Cn2nnnn2)cc1

>  <smiles>  (419) 
[H]c1c([H])c(N([H])C(=O)C([H])([H])n2nn[n+]([H])n2)c([H])c([H])c1OC([H])([H])C([H])([H])[H]

$$$$
114:1:2
     RDKit          3D

 31 32  0  0  1  0  0  0  0  0999 V2000
   -2.5624    3.1082    6.0992 C   0  0  0  0  0  0  0  0  0  0  0  0
   -1.9341    2.6061    4.7997 C   0  0  0  0  0  0  0  0  0  0  0  0
   -0.5231    2.6143    4.9634 O   0  0  0  0  0  0  0  0  0  0  0  0
    0.2531    1.9584    4.0337 C   0  0  0  0  0  0  0  0  0  0  0  0
   -0.2641    1.1801    2.9673 C   0  0  0  0  0  0  0  0  0  0  0  0
    0.6101    0.5225    2.0866 C   0  0  0  0  0  0  0  0  0  0  0  0
    2.0057    0.6219    2.2357 C   0  0  0  0  0  0  0  0  0  0  0  0
    2.7978   -0.0581    1.2759 N   0  0  0  0  0  0  0  0  0  0  0  0
    4.1022   -0.4006    1.3434 C   0  0  0  0  0  0  0  0  0  0  0  0
    4.8076   -0.2551    2.3408 O   0  0  0  0  0  0  0  0  0  0  0  0
    4.7397   -1.0392    0.1001 C   0  0  0  0  0  0  0  0  0  0  0  0
    3.8289   -1.9131   -0.6240 N   0  0  0  0  0  0  0  0  0  0  0  0
    3.3072   -3.0399   -0.1207 N   0  0  0  0  0  0  0  0  0  0  0  0
    2.5108   -3.4957   -1.1626 N   0  0  0  0  0  0  0  0  0  0  0  0
    2.6155   -2.6811   -2.1865 N   0  0  0  0  0  0  0  0  0  0  0  0
    3.4274   -1.7034   -1.8739 N   0  0  0  0  0  0  0  0  0  0  0  0
    2.5283    1.4199    3.2803 C   0  0  0  0  0  0  0  0  0  0  0  0
    1.6529    2.0706    4.1719 C   0  0  0  0  0  0  0  0  0  0  0  0
   -3.6493    3.1280    6.0221 H   0  0  0  0  0  0  0  0  0  0  0  0
   -2.2114    4.1109    6.3408 H   0  0  0  0  0  0  0  0  0  0  0  0
   -2.2953    2.4533    6.9296 H   0  0  0  0  0  0  0  0  0  0  0  0
   -2.3183    1.6051    4.6064 H   0  0  0  0  0  0  0  0  0  0  0  0
   -2.2088    3.2500    3.9620 H   0  0  0  0  0  0  0  0  0  0  0  0
   -1.3220    1.0572    2.7923 H   0  0  0  0  0  0  0  0  0  0  0  0
    0.2013   -0.0698    1.2837 H   0  0  0  0  0  0  0  0  0  0  0  0
    2.2896   -0.3275    0.4373 H   0  0  0  0  0  0  0  0  0  0  0  0
    5.0950   -0.2585   -0.5716 H   0  0  0  0  0  0  0  0  0  0  0  0
    5.6168   -1.6202    0.3980 H   0  0  0  0  0  0  0  0  0  0  0  0
    3.5920    1.5582    3.4051 H   0  0  0  0  0  0  0  0  0  0  0  0
    2.0620    2.6707    4.9729 H   0  0  0  0  0  0  0  0  0  0  0  0
    2.0991   -2.7621   -3.0648 H   0  0  0  0  0  0  0  0  0  0  0  0
  1  2  1  0
  1 19  1  0
  1 20  1  0
  1 21  1  0
  2  3  1  0
  2 22  1  0
  2 23  1  0
  3  4  1  0
  4 18  2  0
  4  5  1  0
  5  6  2  0
  5 24  1  0
  6  7  1  0
  6 25  1  0
  7  8  1  0
  7 17  2  0
  8  9  1  0
  8 26  1  0
  9 10  2  0
  9 11  1  0
 11 12  1  0
 11 27  1  0
 11 28  1  0
 12 16  1  0
 12 13  1  0
 13 14  2  0
 14 15  1  0
 15 16  2  0
 15 31  1  0
 17 18  1  0
 17 29  1  0
 18 30  1  0
M  CHG  1  15   1
M  END
>  <i_m_ct_stereo_status>  (420) 
1

>  <s_m_source_file>  (420) 
/var/tmp/pbs.5076255.sched01/tmp2gi29psn/132an720x3a.sdf

>  <i_m_source_file_index>  (420) 
37

>  <i_lp_mmshare_version>  (420) 
48012

>  <i_f3d_flags>  (420) 
0

>  <s_epik_input>  (420) 
W0NIM11bQ0gyXU9jMVtjSF1bY0hdYyhbY0hdW2NIXTEpW05IXUMoPU8pW0NIMl1uMm5ubm4y

>  <s_epik_cmdline>  (420) 
J2VwaWtfcHl0aG9uJywgJy1waHQnLCAnMi4wJywgJy1waCcsICc3LjAnLCAnLXRuJywgJzgnLCAnLW1hJywgJzIwMCcsICctaW1hZScsICc8aW5maWxlLm1hZT4nLCAnLW9tYWUnLCAnPG91dGZpbGUubWFlPic=

>  <r_lp_tautomer_probability>  (420) 
1

>  <r_epik_Ionization_Penalty>  (420) 
0.425191

>  <r_epik_Ionization_Penalty_Charging>  (420) 
0.42519

>  <r_epik_Ionization_Penalty_Neutral>  (420) 
4.85058e-07

>  <r_epik_State_Penalty>  (420) 
0.426176

>  <r_epik_Charging_Adjusted_Penalty>  (420) 
0.851366

>  <i_epik_Tot_Q>  (420) 
1

>  <i_epik_Tot_abs_Q>  (420) 
1

>  <s_lp_Force_Field>  (420) 
OPLS3e

>  <r_lp_Energy>  (420) 
20.0361

>  <b_lp_Chiralities_Consistent>  (420) 
1

>  <s_lp_Variant>  (420) 
114:0-2

>  <s_i_glide_gridfile>  (420) 
pfpi4k_grid

>  <i_i_glide_lignum>  (420) 
37

>  <i_i_glide_rotatable_bonds>  (420) 
6

>  <r_i_docking_score>  (420) 
-3.12344

>  <r_i_glide_ligand_efficiency>  (420) 
-0.173525

>  <r_i_glide_ligand_efficiency_sa>  (420) 
-0.454763

>  <r_i_glide_ligand_efficiency_ln>  (420) 
-0.802865

>  <r_i_glide_gscore>  (420) 
-3.12344

>  <r_i_glide_lipo>  (420) 
-0.0978353

>  <r_i_glide_hbond>  (420) 
-0.165518

>  <r_i_glide_metal>  (420) 
-0

>  <r_i_glide_rewards>  (420) 
-1.84752

>  <r_i_glide_evdw>  (420) 
-22.6768

>  <r_i_glide_ecoul>  (420) 
-5.75533

>  <r_i_glide_erotb>  (420) 
1.12579

>  <r_i_glide_esite>  (420) 
-0.14122

>  <r_i_glide_emodel>  (420) 
-34.7209

>  <r_i_glide_energy>  (420) 
-28.4322

>  <r_i_glide_einternal>  (420) 
2.1497

>  <r_i_glide_intrahb_reward>  (420) 
-0

>  <i_i_glide_confnum>  (420) 
2

>  <i_i_glide_posenum>  (420) 
34

>  <r_i_glide_eff_state_penalty>  (420) 
0

>  <ligand_id>  (420) 
114

>  <original_smiles>  (420) 
CCOc1ccc(NC(=O)Cn2nnnn2)cc1

>  <smiles>  (420) 
[H]c1c([H])c(N([H])C(=O)C([H])([H])n2nn[n+]([H])n2)c([H])c([H])c1OC([H])([H])C([H])([H])[H]

$$$$
115:0:0
     RDKit          3D

 72 79  0  0  1  0  0  0  0  0999 V2000
    4.9922   -0.3781    1.2507 C   0  0  0  0  0  0  0  0  0  0  0  0
    4.9382   -1.8222    0.6708 C   0  0  0  0  0  0  0  0  0  0  0  0
    4.0626   -1.6932   -0.6029 C   0  0  0  0  0  0  0  0  0  0  0  0
    6.3491   -2.2437    0.2231 C   0  0  0  0  0  0  0  0  0  0  0  0
    7.3098   -1.4732    0.2240 O   0  0  0  0  0  0  0  0  0  0  0  0
    6.5039   -3.6629   -0.2872 C   0  0  0  0  0  0  0  0  0  0  0  0
    6.0034   -4.6786    0.7515 C   0  0  0  0  0  0  0  0  0  0  0  0
    4.5437   -4.4386    1.3171 C   0  0  2  0  0  0  0  0  0  0  0  0
    3.5920   -4.6957    0.0862 C   0  0  0  0  0  0  0  0  0  0  0  0
    4.3765   -2.8822    1.7253 C   0  0  1  0  0  0  0  0  0  0  0  0
    4.8525   -2.4911    3.1739 C   0  0  0  0  0  0  0  0  0  0  0  0
    4.7811   -3.5170    4.3255 C   0  0  0  0  0  0  0  0  0  0  0  0
    5.2266   -4.8845    3.8090 C   0  0  1  0  0  0  0  0  0  0  0  0
    5.8907   -5.9054    4.9245 C   0  0  1  0  0  0  0  0  0  0  0  0
    6.8839   -6.4824    3.7422 C   0  0  0  0  0  0  0  0  0  0  0  0
    7.0414   -6.1868    5.9303 C   0  0  0  0  0  0  0  0  0  0  0  0
    6.8189   -7.7329    6.2869 C   0  0  2  0  0  0  0  0  0  0  0  0
    6.9018   -8.7300    5.3532 O   0  0  0  0  0  0  0  0  0  0  0  0
    5.4950   -8.5274    5.6562 C   0  0  2  0  0  0  0  0  0  0  0  0
    4.3891   -7.8674    4.6904 C   0  0  2  0  0  0  0  0  0  0  0  0
    3.6348   -6.5888    5.3149 C   0  0  0  0  0  0  0  0  0  0  0  0
    4.7382   -6.4390    6.0763 C   0  0  2  0  0  0  0  0  0  0  0  0
    4.4676   -5.4619    7.2560 C   0  0  0  0  0  0  0  0  0  0  0  0
    4.6061   -8.0226    6.5417 C   0  0  1  0  0  0  0  0  0  0  0  0
    3.5356   -9.0459    5.7745 C   0  0  0  0  0  0  0  0  0  0  0  0
    3.1144   -8.5370    4.2787 C   0  0  2  0  0  0  0  0  0  0  0  0
    3.5615   -8.1821    2.8463 N   0  0  0  0  0  0  0  0  0  0  0  0
    3.6363   -9.2458    2.0245 N   0  0  0  0  0  0  0  0  0  0  0  0
    4.2182   -8.7579    0.9446 C   0  0  0  0  0  0  0  0  0  0  0  0
    4.5164   -7.4341    0.9752 N   0  0  0  0  0  0  0  0  0  0  0  0
    4.0400   -7.0247    2.1582 C   0  0  0  0  0  0  0  0  0  0  0  0
    4.1650   -5.4330    2.5709 C   0  0  2  0  0  0  0  0  0  0  0  0
    2.6334   -5.0694    2.7949 C   0  0  0  0  0  0  0  0  0  0  0  0
    4.0242   -0.0660    1.6439 H   0  0  0  0  0  0  0  0  0  0  0  0
    5.2719    0.3486    0.4869 H   0  0  0  0  0  0  0  0  0  0  0  0
    5.7340   -0.2586    2.0414 H   0  0  0  0  0  0  0  0  0  0  0  0
    3.0116   -1.5943   -0.3437 H   0  0  0  0  0  0  0  0  0  0  0  0
    4.1565   -2.5294   -1.2898 H   0  0  0  0  0  0  0  0  0  0  0  0
    4.3261   -0.8121   -1.1916 H   0  0  0  0  0  0  0  0  0  0  0  0
    5.9747   -3.7560   -1.2321 H   0  0  0  0  0  0  0  0  0  0  0  0
    7.5514   -3.8503   -0.5207 H   0  0  0  0  0  0  0  0  0  0  0  0
    6.0790   -5.6527    0.2750 H   0  0  0  0  0  0  0  0  0  0  0  0
    6.7805   -4.6969    1.5054 H   0  0  0  0  0  0  0  0  0  0  0  0
    2.7789   -3.9728    0.0294 H   0  0  0  0  0  0  0  0  0  0  0  0
    3.0858   -5.6574    0.0885 H   0  0  0  0  0  0  0  0  0  0  0  0
    4.1043   -4.6694   -0.8717 H   0  0  0  0  0  0  0  0  0  0  0  0
    3.3015   -2.6900    1.7521 H   0  0  0  0  0  0  0  0  0  0  0  0
    5.8872   -2.1587    3.1262 H   0  0  0  0  0  0  0  0  0  0  0  0
    4.2834   -1.6243    3.5041 H   0  0  0  0  0  0  0  0  0  0  0  0
    5.4693   -3.1910    5.1102 H   0  0  0  0  0  0  0  0  0  0  0  0
    3.8033   -3.5333    4.8049 H   0  0  0  0  0  0  0  0  0  0  0  0
    6.0887   -4.4686    3.3206 H   0  0  0  0  0  0  0  0  0  0  0  0
    7.5690   -7.3044    3.8934 H   0  0  0  0  0  0  0  0  0  0  0  0
    7.6335   -5.7301    3.4761 H   0  0  0  0  0  0  0  0  0  0  0  0
    6.4285   -6.7290    2.7918 H   0  0  0  0  0  0  0  0  0  0  0  0
    8.0735   -6.0057    5.6156 H   0  0  0  0  0  0  0  0  0  0  0  0
    6.9600   -5.5897    6.8371 H   0  0  0  0  0  0  0  0  0  0  0  0
    7.2322   -8.0398    7.2484 H   0  0  0  0  0  0  0  0  0  0  0  0
    5.1970   -7.9026    3.9782 H   0  0  0  0  0  0  0  0  0  0  0  0
    3.3537   -5.6771    4.8751 H   0  0  0  0  0  0  0  0  0  0  0  0
    2.7511   -6.7725    5.9422 H   0  0  0  0  0  0  0  0  0  0  0  0
    3.4710   -5.5912    7.6833 H   0  0  0  0  0  0  0  0  0  0  0  0
    4.5614   -4.4235    6.9430 H   0  0  0  0  0  0  0  0  0  0  0  0
    5.1695   -5.6242    8.0749 H   0  0  0  0  0  0  0  0  0  0  0  0
    4.8337   -8.2794    7.5791 H   0  0  0  0  0  0  0  0  0  0  0  0
    3.8527  -10.0964    5.7615 H   0  0  0  0  0  0  0  0  0  0  0  0
    2.6224   -9.0847    6.3758 H   0  0  0  0  0  0  0  0  0  0  0  0
    2.1389   -8.0495    4.3849 H   0  0  0  0  0  0  0  0  0  0  0  0
    4.4425   -9.3905    0.0999 H   0  0  0  0  0  0  0  0  0  0  0  0
    2.4634   -4.1175    3.2863 H   0  0  0  0  0  0  0  0  0  0  0  0
    2.0802   -5.8237    3.3502 H   0  0  0  0  0  0  0  0  0  0  0  0
    2.0354   -5.0241    1.8951 H   0  0  0  0  0  0  0  0  0  0  0  0
  1  2  1  0
  1 34  1  0
  1 35  1  0
  1 36  1  0
  2 10  1  0
  2  3  1  0
  2  4  1  0
  3 37  1  0
  3 38  1  0
  3 39  1  0
  4  5  2  0
  4  6  1  0
  6  7  1  0
  6 40  1  0
  6 41  1  0
  7  8  1  0
  7 42  1  0
  7 43  1  0
  8 32  1  0
  8  9  1  6
  8 10  1  0
  9 44  1  0
  9 45  1  0
  9 46  1  0
 10 11  1  0
 10 47  1  1
 11 12  1  0
 11 48  1  0
 11 49  1  0
 12 13  1  0
 12 50  1  0
 12 51  1  0
 13 32  1  0
 13 14  1  0
 13 52  1  6
 14 22  1  0
 14 15  1  6
 14 16  1  0
 15 53  1  0
 15 54  1  0
 15 55  1  0
 16 17  1  0
 16 56  1  0
 16 57  1  0
 17 19  1  0
 17 18  1  0
 17 58  1  1
 19 18  1  6
 19 24  1  0
 19 20  1  0
 20 26  1  0
 20 21  1  0
 20 59  1  6
 21 22  1  0
 21 60  1  0
 21 61  1  0
 22 23  1  1
 22 24  1  0
 23 62  1  0
 23 63  1  0
 23 64  1  0
 24 25  1  0
 24 65  1  1
 25 26  1  0
 25 66  1  0
 25 67  1  0
 26 27  1  0
 26 68  1  1
 27 31  1  0
 27 28  1  0
 28 29  2  0
 29 30  1  0
 29 69  1  0
 30 31  2  0
 31 32  1  0
 32 33  1  1
 33 70  1  0
 33 71  1  0
 33 72  1  0
M  END
>  <i_m_ct_stereo_status>  (421) 
1

>  <s_m_source_file>  (421) 
/var/tmp/pbs.5076255.sched01/tmp2gi29psn/132an720x3a.sdf

>  <i_m_source_file_index>  (421) 
38

>  <i_lp_mmshare_version>  (421) 
48012

>  <i_f3d_flags>  (421) 
0

>  <s_epik_input>  (421) 
W0NIMl0xW0NIMl1DKD1PKUMoW0NIM10pKFtDSDNdKVtDQEhdKFtDSDJdW0NIMl0yKVtDQF0xKFtDSDNdKVtDQF0oW0NIM10pKFtDQEBIXTJbQ0BAXTMoW0NIM10pW0NIMl1bQ0BIXShPNClDNDU2KWM3bihuW2NIXW43KVtDQEBIXThbQ0BIXTVbQ0gyXVtDQEBdMyhbQ0gzXSlbQ0BIXTZbQ0gyXTg=

>  <s_epik_cmdline>  (421) 
J2VwaWtfcHl0aG9uJywgJy1waHQnLCAnMi4wJywgJy1waCcsICc3LjAnLCAnLXRuJywgJzgnLCAnLW1hJywgJzIwMCcsICctaW1hZScsICc8aW5maWxlLm1hZT4nLCAnLW9tYWUnLCAnPG91dGZpbGUubWFlPic=

>  <r_lp_tautomer_probability>  (421) 
0.99995

>  <r_epik_Ionization_Penalty>  (421) 
0.0160799

>  <r_epik_Ionization_Penalty_Charging>  (421) 
0

>  <r_epik_Ionization_Penalty_Neutral>  (421) 
0.0160799

>  <r_epik_State_Penalty>  (421) 
0.0126722

>  <r_epik_Charging_Adjusted_Penalty>  (421) 
0.0126722

>  <i_epik_Tot_Q>  (421) 
0

>  <i_epik_Tot_abs_Q>  (421) 
0

>  <s_lp_Force_Field>  (421) 
OPLS3e

>  <r_lp_Energy>  (421) 
571.752

>  <b_lp_Chiralities_Consistent>  (421) 
1

>  <s_lp_Variant>  (421) 
115:0-1

>  <s_i_glide_gridfile>  (421) 
pfpi4k_grid

>  <i_i_glide_lignum>  (421) 
38

>  <i_i_glide_rotatable_bonds>  (421) 
0

>  <r_i_docking_score>  (421) 
-2.52937

>  <r_i_glide_ligand_efficiency>  (421) 
-0.0766475

>  <r_i_glide_ligand_efficiency_sa>  (421) 
-0.245849

>  <r_i_glide_ligand_efficiency_ln>  (421) 
-0.562518

>  <r_i_glide_gscore>  (421) 
-2.52937

>  <r_i_glide_lipo>  (421) 
-0.512486

>  <r_i_glide_hbond>  (421) 
-0.0729282

>  <r_i_glide_metal>  (421) 
-0

>  <r_i_glide_rewards>  (421) 
-0.424567

>  <r_i_glide_evdw>  (421) 
-26.5646

>  <r_i_glide_ecoul>  (421) 
-0.951936

>  <r_i_glide_erotb>  (421) 
0

>  <r_i_glide_esite>  (421) 
-0.0483667

>  <r_i_glide_emodel>  (421) 
-31.5469

>  <r_i_glide_energy>  (421) 
-27.5165

>  <r_i_glide_einternal>  (421) 
0

>  <r_i_glide_intrahb_reward>  (421) 
-0

>  <i_i_glide_confnum>  (421) 
1

>  <i_i_glide_posenum>  (421) 
25

>  <r_i_glide_eff_state_penalty>  (421) 
0

>  <ligand_id>  (421) 
115

>  <original_smiles>  (421) 
CC1(C)C(=O)CCC2(C)C1CCC1C3(C)CC4OC45C4CC3(C)C5CC4n3ncnc3C12C

>  <smiles>  (421) 
[H]c1nc2n(n1)C1([H])C([H])([H])C3([H])C45OC4([H])C([H])([H])C(C([H])([H])[H])(C4([H])C([H])([H])C([H])([H])C6([H])C(C([H])([H])[H])(C([H])([H])[H])C(=O)C([H])([H])C([H])([H])C6(C([H])([H])[H])C24C([H])([H])[H])C3(C([H])([H])[H])C([H])([H])C15[H]

$$$$
115:0:1
     RDKit          3D

 72 79  0  0  1  0  0  0  0  0999 V2000
    1.8922   -2.8203   -3.3978 C   0  0  0  0  0  0  0  0  0  0  0  0
    3.3303   -2.6337   -2.9299 C   0  0  0  0  0  0  0  0  0  0  0  0
    4.0877   -2.9670   -4.2147 C   0  0  0  0  0  0  0  0  0  0  0  0
    3.6092   -1.1863   -2.5834 C   0  0  0  0  0  0  0  0  0  0  0  0
    2.8789   -0.2834   -2.9804 O   0  0  0  0  0  0  0  0  0  0  0  0
    4.9643   -0.9085   -1.9476 C   0  0  0  0  0  0  0  0  0  0  0  0
    5.2931   -1.7569   -0.7287 C   0  0  0  0  0  0  0  0  0  0  0  0
    5.0978   -3.2719   -0.9887 C   0  0  2  0  0  0  0  0  0  0  0  0
    6.1688   -3.5721   -2.0748 C   0  0  0  0  0  0  0  0  0  0  0  0
    3.6958   -3.5357   -1.6866 C   0  0  1  0  0  0  0  0  0  0  0  0
    2.4652   -3.7506   -0.7463 C   0  0  0  0  0  0  0  0  0  0  0  0
    2.6511   -4.3318    0.6676 C   0  0  0  0  0  0  0  0  0  0  0  0
    3.9151   -3.7459    1.2701 C   0  0  1  0  0  0  0  0  0  0  0  0
    3.9400   -3.6300    2.9052 C   0  0  1  0  0  0  0  0  0  0  0  0
    4.8713   -2.2670    2.7314 C   0  0  0  0  0  0  0  0  0  0  0  0
    3.3655   -2.9942    4.1848 C   0  0  0  0  0  0  0  0  0  0  0  0
    4.4447   -3.4069    5.2981 C   0  0  2  0  0  0  0  0  0  0  0  0
    5.7548   -2.9955    5.2530 O   0  0  0  0  0  0  0  0  0  0  0  0
    5.7229   -4.4013    4.8655 C   0  0  2  0  0  0  0  0  0  0  0  0
    5.9563   -5.0325    3.3873 C   0  0  2  0  0  0  0  0  0  0  0  0
    4.7606   -5.9149    2.8234 C   0  0  0  0  0  0  0  0  0  0  0  0
    3.9834   -5.1796    3.6577 C   0  0  2  0  0  0  0  0  0  0  0  0
    2.6049   -5.8657    3.8230 C   0  0  0  0  0  0  0  0  0  0  0  0
    5.0169   -5.5427    4.9034 C   0  0  1  0  0  0  0  0  0  0  0  0
    6.5084   -6.2422    4.5894 C   0  0  0  0  0  0  0  0  0  0  0  0
    7.0274   -6.0367    3.0468 C   0  0  2  0  0  0  0  0  0  0  0  0
    7.4604   -5.0508    1.9300 N   0  0  0  0  0  0  0  0  0  0  0  0
    8.7907   -4.8873    1.8042 N   0  0  0  0  0  0  0  0  0  0  0  0
    8.8648   -3.8038    1.0240 C   0  0  0  0  0  0  0  0  0  0  0  0
    7.7030   -3.3592    0.5216 N   0  0  0  0  0  0  0  0  0  0  0  0
    6.8070   -4.2580    0.9329 C   0  0  0  0  0  0  0  0  0  0  0  0
    5.2767   -4.2091    0.3481 C   0  0  2  0  0  0  0  0  0  0  0  0
    5.1719   -5.6786   -0.2206 C   0  0  0  0  0  0  0  0  0  0  0  0
    1.7860   -3.8719   -3.6599 H   0  0  0  0  0  0  0  0  0  0  0  0
    1.6444   -2.2282   -4.2872 H   0  0  0  0  0  0  0  0  0  0  0  0
    1.1860   -2.5493   -2.6202 H   0  0  0  0  0  0  0  0  0  0  0  0
    4.1181   -4.0349   -4.4651 H   0  0  0  0  0  0  0  0  0  0  0  0
    5.0836   -2.5895   -4.1255 H   0  0  0  0  0  0  0  0  0  0  0  0
    3.6522   -2.4237   -5.0509 H   0  0  0  0  0  0  0  0  0  0  0  0
    5.7410   -1.0235   -2.6956 H   0  0  0  0  0  0  0  0  0  0  0  0
    4.9747    0.1319   -1.6793 H   0  0  0  0  0  0  0  0  0  0  0  0
    6.3459   -1.5530   -0.5164 H   0  0  0  0  0  0  0  0  0  0  0  0
    4.7132   -1.3472    0.0865 H   0  0  0  0  0  0  0  0  0  0  0  0
    5.8285   -4.3273   -2.7839 H   0  0  0  0  0  0  0  0  0  0  0  0
    7.0555   -3.9460   -1.6248 H   0  0  0  0  0  0  0  0  0  0  0  0
    6.5862   -2.7606   -2.6605 H   0  0  0  0  0  0  0  0  0  0  0  0
    3.8921   -4.4975   -2.1096 H   0  0  0  0  0  0  0  0  0  0  0  0
    1.9897   -2.7834   -0.6196 H   0  0  0  0  0  0  0  0  0  0  0  0
    1.7504   -4.3861   -1.2687 H   0  0  0  0  0  0  0  0  0  0  0  0
    1.8104   -4.0061    1.2802 H   0  0  0  0  0  0  0  0  0  0  0  0
    2.6164   -5.4204    0.6669 H   0  0  0  0  0  0  0  0  0  0  0  0
    3.6625   -2.7493    0.9603 H   0  0  0  0  0  0  0  0  0  0  0  0
    5.3024   -1.7367    3.5741 H   0  0  0  0  0  0  0  0  0  0  0  0
    4.2652   -1.4528    2.3367 H   0  0  0  0  0  0  0  0  0  0  0  0
    5.7109   -2.3127    2.0402 H   0  0  0  0  0  0  0  0  0  0  0  0
    3.1806   -1.9194    4.1926 H   0  0  0  0  0  0  0  0  0  0  0  0
    2.3963   -3.4151    4.4400 H   0  0  0  0  0  0  0  0  0  0  0  0
    4.0458   -3.4229    6.3149 H   0  0  0  0  0  0  0  0  0  0  0  0
    6.1063   -4.0299    3.1048 H   0  0  0  0  0  0  0  0  0  0  0  0
    4.3307   -5.9426    1.8693 H   0  0  0  0  0  0  0  0  0  0  0  0
    4.7569   -6.9770    3.0903 H   0  0  0  0  0  0  0  0  0  0  0  0
    2.6907   -6.9542    3.8681 H   0  0  0  0  0  0  0  0  0  0  0  0
    1.9410   -5.6171    2.9957 H   0  0  0  0  0  0  0  0  0  0  0  0
    2.1221   -5.5559    4.7496 H   0  0  0  0  0  0  0  0  0  0  0  0
    4.5880   -5.7584    5.8885 H   0  0  0  0  0  0  0  0  0  0  0  0
    7.2847   -5.9724    5.3244 H   0  0  0  0  0  0  0  0  0  0  0  0
    6.3962   -7.3201    4.7504 H   0  0  0  0  0  0  0  0  0  0  0  0
    6.7829   -6.9709    2.5247 H   0  0  0  0  0  0  0  0  0  0  0  0
    9.7624   -3.2239    0.9595 H   0  0  0  0  0  0  0  0  0  0  0  0
    4.1910   -6.0264   -0.5128 H   0  0  0  0  0  0  0  0  0  0  0  0
    5.6086   -6.4467    0.4142 H   0  0  0  0  0  0  0  0  0  0  0  0
    5.7464   -5.8527   -1.0986 H   0  0  0  0  0  0  0  0  0  0  0  0
  1  2  1  0
  1 34  1  0
  1 35  1  0
  1 36  1  0
  2 10  1  0
  2  3  1  0
  2  4  1  0
  3 37  1  0
  3 38  1  0
  3 39  1  0
  4  5  2  0
  4  6  1  0
  6  7  1  0
  6 40  1  0
  6 41  1  0
  7  8  1  0
  7 42  1  0
  7 43  1  0
  8 32  1  0
  8  9  1  6
  8 10  1  0
  9 44  1  0
  9 45  1  0
  9 46  1  0
 10 11  1  0
 10 47  1  6
 11 12  1  0
 11 48  1  0
 11 49  1  0
 12 13  1  0
 12 50  1  0
 12 51  1  0
 13 32  1  0
 13 14  1  0
 13 52  1  6
 14 22  1  0
 14 15  1  6
 14 16  1  0
 15 53  1  0
 15 54  1  0
 15 55  1  0
 16 17  1  0
 16 56  1  0
 16 57  1  0
 17 19  1  0
 17 18  1  0
 17 58  1  1
 19 18  1  1
 19 24  1  0
 19 20  1  0
 20 26  1  0
 20 21  1  0
 20 59  1  6
 21 22  1  0
 21 60  1  0
 21 61  1  0
 22 23  1  1
 22 24  1  0
 23 62  1  0
 23 63  1  0
 23 64  1  0
 24 25  1  0
 24 65  1  1
 25 26  1  0
 25 66  1  0
 25 67  1  0
 26 27  1  0
 26 68  1  6
 27 31  1  0
 27 28  1  0
 28 29  2  0
 29 30  1  0
 29 69  1  0
 30 31  2  0
 31 32  1  0
 32 33  1  6
 33 70  1  0
 33 71  1  0
 33 72  1  0
M  END
>  <i_m_ct_stereo_status>  (422) 
1

>  <s_m_source_file>  (422) 
/var/tmp/pbs.5076255.sched01/tmp2gi29psn/132an720x3a.sdf

>  <i_m_source_file_index>  (422) 
38

>  <i_lp_mmshare_version>  (422) 
48012

>  <i_f3d_flags>  (422) 
0

>  <s_epik_input>  (422) 
W0NIMl0xW0NIMl1DKD1PKUMoW0NIM10pKFtDSDNdKVtDQEhdKFtDSDJdW0NIMl0yKVtDQF0xKFtDSDNdKVtDQF0oW0NIM10pKFtDQEBIXTJbQ0BAXTMoW0NIM10pW0NIMl1bQ0BIXShPNClDNDU2KWM3bihuW2NIXW43KVtDQEBIXThbQ0BIXTVbQ0gyXVtDQEBdMyhbQ0gzXSlbQ0BIXTZbQ0gyXTg=

>  <s_epik_cmdline>  (422) 
J2VwaWtfcHl0aG9uJywgJy1waHQnLCAnMi4wJywgJy1waCcsICc3LjAnLCAnLXRuJywgJzgnLCAnLW1hJywgJzIwMCcsICctaW1hZScsICc8aW5maWxlLm1hZT4nLCAnLW9tYWUnLCAnPG91dGZpbGUubWFlPic=

>  <r_lp_tautomer_probability>  (422) 
0.99995

>  <r_epik_Ionization_Penalty>  (422) 
0.0160799

>  <r_epik_Ionization_Penalty_Charging>  (422) 
0

>  <r_epik_Ionization_Penalty_Neutral>  (422) 
0.0160799

>  <r_epik_State_Penalty>  (422) 
0.0126722

>  <r_epik_Charging_Adjusted_Penalty>  (422) 
0.0126722

>  <i_epik_Tot_Q>  (422) 
0

>  <i_epik_Tot_abs_Q>  (422) 
0

>  <s_lp_Force_Field>  (422) 
OPLS3e

>  <r_lp_Energy>  (422) 
571.752

>  <b_lp_Chiralities_Consistent>  (422) 
1

>  <s_lp_Variant>  (422) 
115:0-1

>  <s_i_glide_gridfile>  (422) 
pfpi4k_grid

>  <i_i_glide_lignum>  (422) 
38

>  <i_i_glide_rotatable_bonds>  (422) 
0

>  <r_i_docking_score>  (422) 
-1.14836

>  <r_i_glide_ligand_efficiency>  (422) 
-0.0347988

>  <r_i_glide_ligand_efficiency_sa>  (422) 
-0.111618

>  <r_i_glide_ligand_efficiency_ln>  (422) 
-0.255389

>  <r_i_glide_gscore>  (422) 
-1.14836

>  <r_i_glide_lipo>  (422) 
-0.571964

>  <r_i_glide_hbond>  (422) 
0

>  <r_i_glide_metal>  (422) 
-0

>  <r_i_glide_rewards>  (422) 
-0.582283

>  <r_i_glide_evdw>  (422) 
-2.243

>  <r_i_glide_ecoul>  (422) 
1.10958

>  <r_i_glide_erotb>  (422) 
0

>  <r_i_glide_esite>  (422) 
-0.0483992

>  <r_i_glide_emodel>  (422) 
0.144611

>  <r_i_glide_energy>  (422) 
-1.13342

>  <r_i_glide_einternal>  (422) 
0

>  <r_i_glide_intrahb_reward>  (422) 
-0

>  <i_i_glide_confnum>  (422) 
1

>  <i_i_glide_posenum>  (422) 
1

>  <r_i_glide_eff_state_penalty>  (422) 
0

>  <ligand_id>  (422) 
115

>  <original_smiles>  (422) 
CC1(C)C(=O)CCC2(C)C1CCC1C3(C)CC4OC45C4CC3(C)C5CC4n3ncnc3C12C

>  <smiles>  (422) 
[H]c1nc2n(n1)C1([H])C([H])([H])C3([H])C45OC4([H])C([H])([H])C(C([H])([H])[H])(C4([H])C([H])([H])C([H])([H])C6([H])C(C([H])([H])[H])(C([H])([H])[H])C(=O)C([H])([H])C([H])([H])C6(C([H])([H])[H])C24C([H])([H])[H])C3(C([H])([H])[H])C([H])([H])C15[H]

$$$$
116:0:0
     RDKit          3D

 62 68  0  0  1  0  0  0  0  0999 V2000
    4.5315   -2.1634    4.0075 C   0  0  0  0  0  0  0  0  0  0  0  0
    5.0927   -2.9432    2.7987 C   0  0  2  0  0  0  0  0  0  0  0  0
    4.8345   -2.4192    1.3949 C   0  0  0  0  0  0  0  0  0  0  0  0
    5.4986   -2.9174    0.3626 C   0  0  0  0  0  0  0  0  0  0  0  0
    5.0482   -2.3332   -0.8923 C   0  0  0  0  0  0  0  0  0  0  0  0
    5.4663   -2.5686   -2.0204 O   0  0  0  0  0  0  0  0  0  0  0  0
    3.9348   -1.3356   -0.5837 C   0  0  0  0  0  0  0  0  0  0  0  0
    3.8666   -1.4303    0.9420 C   0  0  0  0  0  0  0  0  0  0  0  0
    3.1021   -0.7730    1.6370 O   0  0  0  0  0  0  0  0  0  0  0  0
    6.5204   -3.9741    0.5281 C   0  0  2  0  0  0  0  0  0  0  0  0
    6.2013   -5.4292    0.4788 C   0  0  0  0  0  0  0  0  0  0  0  0
    6.3943   -4.7769    1.8372 C   0  0  2  0  0  0  0  0  0  0  0  0
    5.2175   -4.5026    2.7584 C   0  0  0  0  0  0  0  0  0  0  0  0
    4.4089   -5.4921    3.3134 C   0  0  0  0  0  0  0  0  0  0  0  0
    2.8862   -5.2383    3.6859 C   0  0  2  0  0  0  0  0  0  0  0  0
    2.2238   -4.3236    2.6071 C   0  0  0  0  0  0  0  0  0  0  0  0
    2.8202   -4.5593    5.0584 C   0  0  0  0  0  0  0  0  0  0  0  0
    1.7494   -4.5496    5.8677 C   0  0  0  0  0  0  0  0  0  0  0  0
    0.5067   -5.2408    5.5020 C   0  0  0  0  0  0  0  0  0  0  0  0
   -0.5542   -5.0749    6.0997 O   0  0  0  0  0  0  0  0  0  0  0  0
    0.5752   -6.2072    4.2925 C   0  0  0  0  0  0  0  0  0  0  0  0
   -0.4818   -6.6272    3.8273 O   0  0  0  0  0  0  0  0  0  0  0  0
    2.0032   -6.5528    3.7935 C   0  0  1  0  0  0  0  0  0  0  0  0
    2.0080   -7.5908    2.6171 C   0  0  2  0  0  0  0  0  0  0  0  0
    1.9776   -8.6918    3.6788 C   0  0  0  0  0  0  0  0  0  0  0  0
    2.6245   -7.6752    4.6285 C   0  0  1  0  0  0  0  0  0  0  0  0
    4.1288   -7.6005    4.7481 C   0  0  0  0  0  0  0  0  0  0  0  0
    4.8558   -6.9985    3.5034 C   0  0  2  0  0  0  0  0  0  0  0  0
    6.6925   -7.1730    3.9936 S   0  0  0  0  0  0  0  0  0  0  0  0
    6.9227   -6.0220    4.8893 O   0  0  0  0  0  0  0  0  0  0  0  0
    6.7967   -8.4772    4.6739 O   0  0  0  0  0  0  0  0  0  0  0  0
    7.4605   -7.1206    2.7504 O   0  0  0  0  0  0  0  0  0  0  0  0
    4.5786   -7.8433    2.2143 C   0  0  1  0  0  0  0  0  0  0  0  0
    5.0052   -9.3271    2.2826 C   0  0  0  0  0  0  0  0  0  0  0  0
    3.1630   -7.6368    1.6194 C   0  0  0  0  0  0  0  0  0  0  0  0
    3.4514   -2.1906    4.1233 H   0  0  0  0  0  0  0  0  0  0  0  0
    4.7915   -1.1075    3.9102 H   0  0  0  0  0  0  0  0  0  0  0  0
    5.0018   -2.4967    4.9341 H   0  0  0  0  0  0  0  0  0  0  0  0
    6.1381   -2.6511    2.9203 H   0  0  0  0  0  0  0  0  0  0  0  0
    4.2101   -0.3344   -0.8971 H   0  0  0  0  0  0  0  0  0  0  0  0
    2.9960   -1.6341   -1.0427 H   0  0  0  0  0  0  0  0  0  0  0  0
    7.5170   -3.6710    0.2096 H   0  0  0  0  0  0  0  0  0  0  0  0
    5.1916   -5.6781    0.1360 H   0  0  0  0  0  0  0  0  0  0  0  0
    6.9828   -6.0937    0.1253 H   0  0  0  0  0  0  0  0  0  0  0  0
    7.3536   -4.7938    2.3504 H   0  0  0  0  0  0  0  0  0  0  0  0
    2.5553   -3.2984    2.6264 H   0  0  0  0  0  0  0  0  0  0  0  0
    1.1424   -4.2289    2.7143 H   0  0  0  0  0  0  0  0  0  0  0  0
    2.4070   -4.6866    1.5966 H   0  0  0  0  0  0  0  0  0  0  0  0
    3.7213   -4.0991    5.4237 H   0  0  0  0  0  0  0  0  0  0  0  0
    1.7797   -4.0483    6.8250 H   0  0  0  0  0  0  0  0  0  0  0  0
    1.0605   -7.5851    2.0781 H   0  0  0  0  0  0  0  0  0  0  0  0
    0.9716   -8.9847    3.9720 H   0  0  0  0  0  0  0  0  0  0  0  0
    2.5664   -9.5811    3.4592 H   0  0  0  0  0  0  0  0  0  0  0  0
    2.1658   -7.7757    5.6143 H   0  0  0  0  0  0  0  0  0  0  0  0
    4.3815   -6.9830    5.6114 H   0  0  0  0  0  0  0  0  0  0  0  0
    4.4992   -8.5894    5.0024 H   0  0  0  0  0  0  0  0  0  0  0  0
    5.2428   -7.4707    1.4475 H   0  0  0  0  0  0  0  0  0  0  0  0
    4.6352   -9.8563    3.1577 H   0  0  0  0  0  0  0  0  0  0  0  0
    6.0900   -9.4201    2.3059 H   0  0  0  0  0  0  0  0  0  0  0  0
    4.6709   -9.8750    1.4008 H   0  0  0  0  0  0  0  0  0  0  0  0
    2.9747   -8.4124    0.8808 H   0  0  0  0  0  0  0  0  0  0  0  0
    3.1590   -6.7150    1.0425 H   0  0  0  0  0  0  0  0  0  0  0  0
  1  2  1  0
  1 36  1  0
  1 37  1  0
  1 38  1  0
  2 13  1  0
  2  3  1  0
  2 39  1  1
  3  8  1  0
  3  4  2  0
  4  5  1  0
  4 10  1  0
  5  6  2  0
  5  7  1  0
  7  8  1  0
  7 40  1  0
  7 41  1  0
  8  9  2  0
 10 12  1  0
 10 11  1  0
 10 42  1  6
 11 12  1  0
 11 43  1  0
 11 44  1  0
 12 13  1  0
 12 45  1  1
 13 14  2  3
 14 28  1  0
 14 15  1  0
 15 23  1  0
 15 16  1  6
 15 17  1  0
 16 46  1  0
 16 47  1  0
 16 48  1  0
 17 18  2  0
 17 49  1  0
 18 19  1  0
 18 50  1  0
 19 20  2  0
 19 21  1  0
 21 22  2  0
 23 21  1  1
 23 26  1  0
 23 24  1  0
 24 35  1  0
 24 25  1  0
 24 51  1  6
 25 26  1  0
 25 52  1  0
 25 53  1  0
 26 27  1  0
 26 54  1  1
 27 28  1  0
 27 55  1  0
 27 56  1  0
 28 29  1  1
 28 33  1  0
 29 30  2  0
 29 31  2  0
 29 32  1  0
 33 34  1  0
 33 35  1  0
 33 57  1  6
 34 58  1  0
 34 59  1  0
 34 60  1  0
 35 61  1  0
 35 62  1  0
M  CHG  1  32  -1
M  END
>  <i_m_ct_stereo_status>  (423) 
1

>  <s_m_source_file>  (423) 
/var/tmp/pbs.5076255.sched01/tmp2gi29psn/132an720x3a.sdf

>  <i_m_source_file_index>  (423) 
40

>  <i_lp_mmshare_version>  (423) 
48012

>  <i_f3d_flags>  (423) 
0

>  <s_epik_input>  (423) 
Tz1DMVtDSDJdQyg9TylDKD1DMTIpW0NASF0zW0NASF0oW0NIMl0zKUMoXFtDQEBIXTJbQ0gzXSk9QygvW0NAXShbQ0BAXTQ1NikoW0NIM10pW0NIXT1bQ0hdQyg9TylDND1PKVtDQEBdNyhTKD1PKSg9TylbT0hdKVtDSDJdW0NAQEhdNltDSDJdW0NAQEhdNVtDSDJdW0NAQEhdN1tDSDNd

>  <s_epik_cmdline>  (423) 
J2VwaWtfcHl0aG9uJywgJy1waHQnLCAnMi4wJywgJy1waCcsICc3LjAnLCAnLXRuJywgJzgnLCAnLW1hJywgJzIwMCcsICctaW1hZScsICc8aW5maWxlLm1hZT4nLCAnLW9tYWUnLCAnPG91dGZpbGUubWFlPic=

>  <r_lp_tautomer_probability>  (423) 
1

>  <r_epik_Ionization_Penalty>  (423) 
0.0260822

>  <r_epik_Ionization_Penalty_Charging>  (423) 
6.84661e-09

>  <r_epik_Ionization_Penalty_Neutral>  (423) 
0.0260822

>  <r_epik_State_Penalty>  (423) 
0.0490865

>  <r_epik_Charging_Adjusted_Penalty>  (423) 
0.0490866

>  <i_epik_Tot_Q>  (423) 
-1

>  <i_epik_Tot_abs_Q>  (423) 
1

>  <s_lp_Force_Field>  (423) 
OPLS3e

>  <r_lp_Energy>  (423) 
106.134

>  <b_lp_Chiralities_Consistent>  (423) 
1

>  <s_lp_Variant>  (423) 
116:0-1

>  <s_i_glide_gridfile>  (423) 
pfpi4k_grid

>  <i_i_glide_lignum>  (423) 
40

>  <i_i_glide_rotatable_bonds>  (423) 
1

>  <r_i_docking_score>  (423) 
-2.25407

>  <r_i_glide_ligand_efficiency>  (423) 
-0.0644021

>  <r_i_glide_ligand_efficiency_sa>  (423) 
-0.210664

>  <r_i_glide_ligand_efficiency_ln>  (423) 
-0.494819

>  <r_i_glide_gscore>  (423) 
-2.25407

>  <r_i_glide_lipo>  (423) 
-0.484743

>  <r_i_glide_hbond>  (423) 
-0.0537375

>  <r_i_glide_metal>  (423) 
-0

>  <r_i_glide_rewards>  (423) 
-0.0304556

>  <r_i_glide_evdw>  (423) 
-28.4441

>  <r_i_glide_ecoul>  (423) 
-1.31992

>  <r_i_glide_erotb>  (423) 
0

>  <r_i_glide_esite>  (423) 
-0.0649456

>  <r_i_glide_emodel>  (423) 
-33.675

>  <r_i_glide_energy>  (423) 
-29.764

>  <r_i_glide_einternal>  (423) 
0.116418

>  <r_i_glide_intrahb_reward>  (423) 
-0

>  <i_i_glide_confnum>  (423) 
1

>  <i_i_glide_posenum>  (423) 
27

>  <r_i_glide_eff_state_penalty>  (423) 
0

>  <ligand_id>  (423) 
116

>  <original_smiles>  (423) 
CC1C2=C(C(=O)CC2=O)C2CC2C1=C1C2(C)C=CC(=O)C(=O)C23C2CC3CC1(S(=O)(=O)O)C(C)C2

>  <smiles>  (423) 
[H]C1=C([H])C2(C([H])([H])[H])C(=C3C([H])(C([H])([H])[H])C4=C(C(=O)C([H])([H])C4=O)C4([H])C([H])([H])C34[H])C3(S(=O)(=O)[O-])C([H])([H])C4([H])C([H])([H])C([H])(C([H])([H])C3([H])C([H])([H])[H])C24C(=O)C1=O

$$$$
116:0:1
     RDKit          3D

 62 68  0  0  1  0  0  0  0  0999 V2000
    4.8174   -2.8030    4.6590 C   0  0  0  0  0  0  0  0  0  0  0  0
    4.9117   -3.3059    3.2006 C   0  0  2  0  0  0  0  0  0  0  0  0
    4.4788   -2.3872    2.0768 C   0  0  0  0  0  0  0  0  0  0  0  0
    4.7772   -2.6803    0.8187 C   0  0  0  0  0  0  0  0  0  0  0  0
    4.1965   -1.7079   -0.0982 C   0  0  0  0  0  0  0  0  0  0  0  0
    4.2877   -1.6887   -1.3247 O   0  0  0  0  0  0  0  0  0  0  0  0
    3.4256   -0.6677    0.7145 C   0  0  0  0  0  0  0  0  0  0  0  0
    3.6752   -1.1701    2.1332 C   0  0  0  0  0  0  0  0  0  0  0  0
    3.2269   -0.6208    3.1359 O   0  0  0  0  0  0  0  0  0  0  0  0
    5.5484   -3.8862    0.4575 C   0  0  2  0  0  0  0  0  0  0  0  0
    4.9113   -5.1975    0.1516 C   0  0  0  0  0  0  0  0  0  0  0  0
    5.5334   -4.9921    1.5287 C   0  0  2  0  0  0  0  0  0  0  0  0
    4.6812   -4.7913    2.7771 C   0  0  0  0  0  0  0  0  0  0  0  0
    3.8204   -5.7524    3.2989 C   0  0  0  0  0  0  0  0  0  0  0  0
    2.5115   -5.3828    4.1159 C   0  0  2  0  0  0  0  0  0  0  0  0
    1.8417   -4.1198    3.4858 C   0  0  0  0  0  0  0  0  0  0  0  0
    2.9084   -5.0994    5.5660 C   0  0  0  0  0  0  0  0  0  0  0  0
    2.0697   -5.1484    6.6190 C   0  0  0  0  0  0  0  0  0  0  0  0
    0.6587   -5.5174    6.4492 C   0  0  0  0  0  0  0  0  0  0  0  0
   -0.1842   -5.3547    7.3308 O   0  0  0  0  0  0  0  0  0  0  0  0
    0.2553   -6.1147    5.0871 C   0  0  0  0  0  0  0  0  0  0  0  0
   -0.9461   -6.2554    4.8489 O   0  0  0  0  0  0  0  0  0  0  0  0
    1.4173   -6.5268    4.1572 C   0  0  1  0  0  0  0  0  0  0  0  0
    0.9394   -7.1907    2.8228 C   0  0  2  0  0  0  0  0  0  0  0  0
    0.9065   -8.5200    3.5756 C   0  0  0  0  0  0  0  0  0  0  0  0
    1.9534   -7.9142    4.5183 C   0  0  1  0  0  0  0  0  0  0  0  0
    3.4255   -8.1094    4.2426 C   0  0  0  0  0  0  0  0  0  0  0  0
    3.9714   -7.3003    3.0225 C   0  0  2  0  0  0  0  0  0  0  0  0
    5.7950   -7.8416    2.9473 S   0  0  0  0  0  0  0  0  0  0  0  0
    6.1865   -7.7406    1.5335 O   0  0  0  0  0  0  0  0  0  0  0  0
    6.4889   -6.9086    3.8506 O   0  0  0  0  0  0  0  0  0  0  0  0
    5.8182   -9.2310    3.4297 O   0  0  0  0  0  0  0  0  0  0  0  0
    3.2385   -7.7122    1.7020 C   0  0  1  0  0  0  0  0  0  0  0  0
    3.3421   -9.2109    1.3270 C   0  0  0  0  0  0  0  0  0  0  0  0
    1.8040   -7.1371    1.5681 C   0  0  0  0  0  0  0  0  0  0  0  0
    3.8115   -2.6920    5.0548 H   0  0  0  0  0  0  0  0  0  0  0  0
    5.2708   -1.8132    4.7312 H   0  0  0  0  0  0  0  0  0  0  0  0
    5.3998   -3.4389    5.3278 H   0  0  0  0  0  0  0  0  0  0  0  0
    5.9943   -3.2294    3.0937 H   0  0  0  0  0  0  0  0  0  0  0  0
    3.8251    0.3332    0.5703 H   0  0  0  0  0  0  0  0  0  0  0  0
    2.3615   -0.6840    0.4805 H   0  0  0  0  0  0  0  0  0  0  0  0
    6.4931   -3.6624   -0.0351 H   0  0  0  0  0  0  0  0  0  0  0  0
    3.8253   -5.1886    0.0541 H   0  0  0  0  0  0  0  0  0  0  0  0
    5.4272   -5.8555   -0.5385 H   0  0  0  0  0  0  0  0  0  0  0  0
    6.5425   -5.3358    1.7468 H   0  0  0  0  0  0  0  0  0  0  0  0
    2.3860   -3.2029    3.6465 H   0  0  0  0  0  0  0  0  0  0  0  0
    0.8551   -3.8929    3.8898 H   0  0  0  0  0  0  0  0  0  0  0  0
    1.7209   -4.2190    2.4084 H   0  0  0  0  0  0  0  0  0  0  0  0
    3.9472   -4.9021    5.7653 H   0  0  0  0  0  0  0  0  0  0  0  0
    2.4166   -4.9391    7.6199 H   0  0  0  0  0  0  0  0  0  0  0  0
   -0.0826   -6.8992    2.5816 H   0  0  0  0  0  0  0  0  0  0  0  0
   -0.0492   -8.7210    4.0626 H   0  0  0  0  0  0  0  0  0  0  0  0
    1.2277   -9.3935    3.0135 H   0  0  0  0  0  0  0  0  0  0  0  0
    1.7074   -8.2044    5.5405 H   0  0  0  0  0  0  0  0  0  0  0  0
    3.9896   -7.7985    5.1211 H   0  0  0  0  0  0  0  0  0  0  0  0
    3.6077   -9.1776    4.1575 H   0  0  0  0  0  0  0  0  0  0  0  0
    3.7757   -7.2537    0.8831 H   0  0  0  0  0  0  0  0  0  0  0  0
    3.0743   -9.8957    2.1275 H   0  0  0  0  0  0  0  0  0  0  0  0
    4.3585   -9.4742    1.0317 H   0  0  0  0  0  0  0  0  0  0  0  0
    2.7050   -9.4607    0.4809 H   0  0  0  0  0  0  0  0  0  0  0  0
    1.2841   -7.6452    0.7572 H   0  0  0  0  0  0  0  0  0  0  0  0
    1.8739   -6.1061    1.2324 H   0  0  0  0  0  0  0  0  0  0  0  0
  1  2  1  0
  1 36  1  0
  1 37  1  0
  1 38  1  0
  2 13  1  0
  2  3  1  0
  2 39  1  6
  3  8  1  0
  3  4  2  0
  4  5  1  0
  4 10  1  0
  5  6  2  0
  5  7  1  0
  7  8  1  0
  7 40  1  0
  7 41  1  0
  8  9  2  0
 10 12  1  0
 10 11  1  0
 10 42  1  6
 11 12  1  0
 11 43  1  0
 11 44  1  0
 12 13  1  0
 12 45  1  1
 13 14  2  3
 14 28  1  0
 14 15  1  0
 15 23  1  0
 15 16  1  6
 15 17  1  0
 16 46  1  0
 16 47  1  0
 16 48  1  0
 17 18  2  0
 17 49  1  0
 18 19  1  0
 18 50  1  0
 19 20  2  0
 19 21  1  0
 21 22  2  0
 23 21  1  1
 23 26  1  0
 23 24  1  0
 24 35  1  0
 24 25  1  0
 24 51  1  6
 25 26  1  0
 25 52  1  0
 25 53  1  0
 26 27  1  0
 26 54  1  1
 27 28  1  0
 27 55  1  0
 27 56  1  0
 28 29  1  6
 28 33  1  0
 29 30  2  0
 29 31  2  0
 29 32  1  0
 33 34  1  0
 33 35  1  0
 33 57  1  6
 34 58  1  0
 34 59  1  0
 34 60  1  0
 35 61  1  0
 35 62  1  0
M  CHG  1  32  -1
M  END
>  <i_m_ct_stereo_status>  (424) 
1

>  <s_m_source_file>  (424) 
/var/tmp/pbs.5076255.sched01/tmp2gi29psn/132an720x3a.sdf

>  <i_m_source_file_index>  (424) 
40

>  <i_lp_mmshare_version>  (424) 
48012

>  <i_f3d_flags>  (424) 
0

>  <s_epik_input>  (424) 
Tz1DMVtDSDJdQyg9TylDKD1DMTIpW0NASF0zW0NASF0oW0NIMl0zKUMoXFtDQEBIXTJbQ0gzXSk9QygvW0NAXShbQ0BAXTQ1NikoW0NIM10pW0NIXT1bQ0hdQyg9TylDND1PKVtDQEBdNyhTKD1PKSg9TylbT0hdKVtDSDJdW0NAQEhdNltDSDJdW0NAQEhdNVtDSDJdW0NAQEhdN1tDSDNd

>  <s_epik_cmdline>  (424) 
J2VwaWtfcHl0aG9uJywgJy1waHQnLCAnMi4wJywgJy1waCcsICc3LjAnLCAnLXRuJywgJzgnLCAnLW1hJywgJzIwMCcsICctaW1hZScsICc8aW5maWxlLm1hZT4nLCAnLW9tYWUnLCAnPG91dGZpbGUubWFlPic=

>  <r_lp_tautomer_probability>  (424) 
1

>  <r_epik_Ionization_Penalty>  (424) 
0.0260822

>  <r_epik_Ionization_Penalty_Charging>  (424) 
6.84661e-09

>  <r_epik_Ionization_Penalty_Neutral>  (424) 
0.0260822

>  <r_epik_State_Penalty>  (424) 
0.0490865

>  <r_epik_Charging_Adjusted_Penalty>  (424) 
0.0490866

>  <i_epik_Tot_Q>  (424) 
-1

>  <i_epik_Tot_abs_Q>  (424) 
1

>  <s_lp_Force_Field>  (424) 
OPLS3e

>  <r_lp_Energy>  (424) 
106.134

>  <b_lp_Chiralities_Consistent>  (424) 
1

>  <s_lp_Variant>  (424) 
116:0-1

>  <s_i_glide_gridfile>  (424) 
pfpi4k_grid

>  <i_i_glide_lignum>  (424) 
40

>  <i_i_glide_rotatable_bonds>  (424) 
1

>  <r_i_docking_score>  (424) 
-2.05157

>  <r_i_glide_ligand_efficiency>  (424) 
-0.0586164

>  <r_i_glide_ligand_efficiency_sa>  (424) 
-0.191738

>  <r_i_glide_ligand_efficiency_ln>  (424) 
-0.450366

>  <r_i_glide_gscore>  (424) 
-2.05157

>  <r_i_glide_lipo>  (424) 
-0.281541

>  <r_i_glide_hbond>  (424) 
0

>  <r_i_glide_metal>  (424) 
-0

>  <r_i_glide_rewards>  (424) 
-0.0417041

>  <r_i_glide_evdw>  (424) 
-29.0636

>  <r_i_glide_ecoul>  (424) 
-1.5389

>  <r_i_glide_erotb>  (424) 
0

>  <r_i_glide_esite>  (424) 
-0.0443154

>  <r_i_glide_emodel>  (424) 
-34.4368

>  <r_i_glide_energy>  (424) 
-30.6025

>  <r_i_glide_einternal>  (424) 
0.0918414

>  <r_i_glide_intrahb_reward>  (424) 
-0

>  <i_i_glide_confnum>  (424) 
1

>  <i_i_glide_posenum>  (424) 
19

>  <r_i_glide_eff_state_penalty>  (424) 
0

>  <ligand_id>  (424) 
116

>  <original_smiles>  (424) 
CC1C2=C(C(=O)CC2=O)C2CC2C1=C1C2(C)C=CC(=O)C(=O)C23C2CC3CC1(S(=O)(=O)O)C(C)C2

>  <smiles>  (424) 
[H]C1=C([H])C2(C([H])([H])[H])C(=C3C([H])(C([H])([H])[H])C4=C(C(=O)C([H])([H])C4=O)C4([H])C([H])([H])C34[H])C3(S(=O)(=O)[O-])C([H])([H])C4([H])C([H])([H])C([H])(C([H])([H])C3([H])C([H])([H])[H])C24C(=O)C1=O

$$$$
116:0:2
     RDKit          3D

 62 68  0  0  1  0  0  0  0  0999 V2000
    3.9385   -2.9816    4.0304 C   0  0  0  0  0  0  0  0  0  0  0  0
    4.8424   -3.5337    2.9060 C   0  0  2  0  0  0  0  0  0  0  0  0
    4.7911   -2.8819    1.5311 C   0  0  0  0  0  0  0  0  0  0  0  0
    5.7056   -3.1678    0.6222 C   0  0  0  0  0  0  0  0  0  0  0  0
    5.4184   -2.5024   -0.6465 C   0  0  0  0  0  0  0  0  0  0  0  0
    6.0763   -2.5277   -1.6844 O   0  0  0  0  0  0  0  0  0  0  0  0
    4.1135   -1.7124   -0.5002 C   0  0  0  0  0  0  0  0  0  0  0  0
    3.7813   -1.9907    0.9736 C   0  0  0  0  0  0  0  0  0  0  0  0
    2.7968   -1.5435    1.5447 O   0  0  0  0  0  0  0  0  0  0  0  0
    6.8200   -4.0916    0.9084 C   0  0  2  0  0  0  0  0  0  0  0  0
    6.7503   -5.5573    0.6471 C   0  0  0  0  0  0  0  0  0  0  0  0
    6.5599   -5.0603    2.0720 C   0  0  2  0  0  0  0  0  0  0  0  0
    5.2105   -5.0499    2.7536 C   0  0  0  0  0  0  0  0  0  0  0  0
    4.4783   -6.1971    3.0530 C   0  0  0  0  0  0  0  0  0  0  0  0
    2.8918   -6.2018    3.1210 C   0  0  2  0  0  0  0  0  0  0  0  0
    2.3186   -5.2705    2.0034 C   0  0  0  0  0  0  0  0  0  0  0  0
    2.4657   -5.6961    4.5005 C   0  0  0  0  0  0  0  0  0  0  0  0
    1.2702   -5.9277    5.0692 C   0  0  0  0  0  0  0  0  0  0  0  0
    0.2451   -6.7300    4.3865 C   0  0  0  0  0  0  0  0  0  0  0  0
   -0.9313   -6.7422    4.7440 O   0  0  0  0  0  0  0  0  0  0  0  0
    0.6981   -7.5191    3.1434 C   0  0  0  0  0  0  0  0  0  0  0  0
   -0.1681   -7.9893    2.4251 O   0  0  0  0  0  0  0  0  0  0  0  0
    2.2250   -7.6241    2.9327 C   0  0  1  0  0  0  0  0  0  0  0  0
    2.6297   -8.5023    1.6989 C   0  0  2  0  0  0  0  0  0  0  0  0
    2.5584   -9.7069    2.6284 C   0  0  0  0  0  0  0  0  0  0  0  0
    2.8489   -8.7330    3.7765 C   0  0  1  0  0  0  0  0  0  0  0  0
    4.2719   -8.4783    4.2137 C   0  0  0  0  0  0  0  0  0  0  0  0
    5.1193   -7.6412    3.2063 C   0  0  2  0  0  0  0  0  0  0  0  0
    6.8053   -7.6213    4.0594 S   0  0  0  0  0  0  0  0  0  0  0  0
    7.8013   -7.3686    3.0083 O   0  0  0  0  0  0  0  0  0  0  0  0
    6.6878   -6.5404    5.0504 O   0  0  0  0  0  0  0  0  0  0  0  0
    6.9572   -8.9482    4.6722 O   0  0  0  0  0  0  0  0  0  0  0  0
    5.2359   -8.3553    1.8211 C   0  0  1  0  0  0  0  0  0  0  0  0
    5.8665   -9.7649    1.8467 C   0  0  0  0  0  0  0  0  0  0  0  0
    3.9511   -8.2798    0.9644 C   0  0  0  0  0  0  0  0  0  0  0  0
    2.8711   -3.1637    3.9206 H   0  0  0  0  0  0  0  0  0  0  0  0
    4.0450   -1.8954    4.0772 H   0  0  0  0  0  0  0  0  0  0  0  0
    4.2626   -3.3448    5.0109 H   0  0  0  0  0  0  0  0  0  0  0  0
    5.7857   -3.1325    3.2871 H   0  0  0  0  0  0  0  0  0  0  0  0
    4.2733   -0.6557   -0.6650 H   0  0  0  0  0  0  0  0  0  0  0  0
    3.3361   -2.0877   -1.1596 H   0  0  0  0  0  0  0  0  0  0  0  0
    7.7946   -3.6157    0.8322 H   0  0  0  0  0  0  0  0  0  0  0  0
    5.8828   -5.9121    0.0806 H   0  0  0  0  0  0  0  0  0  0  0  0
    7.6830   -6.0637    0.4304 H   0  0  0  0  0  0  0  0  0  0  0  0
    7.3893   -5.0808    2.7747 H   0  0  0  0  0  0  0  0  0  0  0  0
    2.4720   -4.2178    2.1800 H   0  0  0  0  0  0  0  0  0  0  0  0
    1.2409   -5.3460    1.8886 H   0  0  0  0  0  0  0  0  0  0  0  0
    2.7532   -5.4896    1.0281 H   0  0  0  0  0  0  0  0  0  0  0  0
    3.1992   -5.1539    5.0742 H   0  0  0  0  0  0  0  0  0  0  0  0
    1.0208   -5.5431    6.0527 H   0  0  0  0  0  0  0  0  0  0  0  0
    1.8051   -8.5711    0.9907 H   0  0  0  0  0  0  0  0  0  0  0  0
    1.5615  -10.1431    2.6839 H   0  0  0  0  0  0  0  0  0  0  0  0
    3.3086  -10.4799    2.4614 H   0  0  0  0  0  0  0  0  0  0  0  0
    2.2185   -9.0060    4.6241 H   0  0  0  0  0  0  0  0  0  0  0  0
    4.2520   -7.9337    5.1530 H   0  0  0  0  0  0  0  0  0  0  0  0
    4.7326   -9.4293    4.4601 H   0  0  0  0  0  0  0  0  0  0  0  0
    5.9695   -7.8058    1.2468 H   0  0  0  0  0  0  0  0  0  0  0  0
    5.4198  -10.4368    2.5783 H   0  0  0  0  0  0  0  0  0  0  0  0
    6.9287   -9.7069    2.0878 H   0  0  0  0  0  0  0  0  0  0  0  0
    5.7937  -10.2479    0.8719 H   0  0  0  0  0  0  0  0  0  0  0  0
    4.0352   -8.9849    0.1380 H   0  0  0  0  0  0  0  0  0  0  0  0
    3.9148   -7.3090    0.4827 H   0  0  0  0  0  0  0  0  0  0  0  0
  1  2  1  0
  1 36  1  0
  1 37  1  0
  1 38  1  0
  2 13  1  0
  2  3  1  0
  2 39  1  1
  3  8  1  0
  3  4  2  0
  4  5  1  0
  4 10  1  0
  5  6  2  0
  5  7  1  0
  7  8  1  0
  7 40  1  0
  7 41  1  0
  8  9  2  0
 10 12  1  0
 10 11  1  0
 10 42  1  1
 11 12  1  0
 11 43  1  0
 11 44  1  0
 12 13  1  0
 12 45  1  1
 13 14  2  3
 14 28  1  0
 14 15  1  0
 15 23  1  0
 15 16  1  6
 15 17  1  0
 16 46  1  0
 16 47  1  0
 16 48  1  0
 17 18  2  0
 17 49  1  0
 18 19  1  0
 18 50  1  0
 19 20  2  0
 19 21  1  0
 21 22  2  0
 23 21  1  1
 23 26  1  0
 23 24  1  0
 24 35  1  0
 24 25  1  0
 24 51  1  6
 25 26  1  0
 25 52  1  0
 25 53  1  0
 26 27  1  0
 26 54  1  1
 27 28  1  0
 27 55  1  0
 27 56  1  0
 28 29  1  1
 28 33  1  0
 29 30  2  0
 29 31  2  0
 29 32  1  0
 33 34  1  0
 33 35  1  0
 33 57  1  6
 34 58  1  0
 34 59  1  0
 34 60  1  0
 35 61  1  0
 35 62  1  0
M  CHG  1  32  -1
M  END
>  <i_m_ct_stereo_status>  (425) 
1

>  <s_m_source_file>  (425) 
/var/tmp/pbs.5076255.sched01/tmp2gi29psn/132an720x3a.sdf

>  <i_m_source_file_index>  (425) 
40

>  <i_lp_mmshare_version>  (425) 
48012

>  <i_f3d_flags>  (425) 
0

>  <s_epik_input>  (425) 
Tz1DMVtDSDJdQyg9TylDKD1DMTIpW0NASF0zW0NASF0oW0NIMl0zKUMoXFtDQEBIXTJbQ0gzXSk9QygvW0NAXShbQ0BAXTQ1NikoW0NIM10pW0NIXT1bQ0hdQyg9TylDND1PKVtDQEBdNyhTKD1PKSg9TylbT0hdKVtDSDJdW0NAQEhdNltDSDJdW0NAQEhdNVtDSDJdW0NAQEhdN1tDSDNd

>  <s_epik_cmdline>  (425) 
J2VwaWtfcHl0aG9uJywgJy1waHQnLCAnMi4wJywgJy1waCcsICc3LjAnLCAnLXRuJywgJzgnLCAnLW1hJywgJzIwMCcsICctaW1hZScsICc8aW5maWxlLm1hZT4nLCAnLW9tYWUnLCAnPG91dGZpbGUubWFlPic=

>  <r_lp_tautomer_probability>  (425) 
1

>  <r_epik_Ionization_Penalty>  (425) 
0.0260822

>  <r_epik_Ionization_Penalty_Charging>  (425) 
6.84661e-09

>  <r_epik_Ionization_Penalty_Neutral>  (425) 
0.0260822

>  <r_epik_State_Penalty>  (425) 
0.0490865

>  <r_epik_Charging_Adjusted_Penalty>  (425) 
0.0490866

>  <i_epik_Tot_Q>  (425) 
-1

>  <i_epik_Tot_abs_Q>  (425) 
1

>  <s_lp_Force_Field>  (425) 
OPLS3e

>  <r_lp_Energy>  (425) 
106.134

>  <b_lp_Chiralities_Consistent>  (425) 
1

>  <s_lp_Variant>  (425) 
116:0-1

>  <s_i_glide_gridfile>  (425) 
pfpi4k_grid

>  <i_i_glide_lignum>  (425) 
40

>  <i_i_glide_rotatable_bonds>  (425) 
1

>  <r_i_docking_score>  (425) 
-2.04963

>  <r_i_glide_ligand_efficiency>  (425) 
-0.0585608

>  <r_i_glide_ligand_efficiency_sa>  (425) 
-0.191556

>  <r_i_glide_ligand_efficiency_ln>  (425) 
-0.449939

>  <r_i_glide_gscore>  (425) 
-2.04963

>  <r_i_glide_lipo>  (425) 
-0.418421

>  <r_i_glide_hbond>  (425) 
0

>  <r_i_glide_metal>  (425) 
-0

>  <r_i_glide_rewards>  (425) 
-0.0324822

>  <r_i_glide_evdw>  (425) 
-32.8062

>  <r_i_glide_ecoul>  (425) 
0.950531

>  <r_i_glide_erotb>  (425) 
0

>  <r_i_glide_esite>  (425) 
-0.100995

>  <r_i_glide_emodel>  (425) 
-35.3908

>  <r_i_glide_energy>  (425) 
-31.8557

>  <r_i_glide_einternal>  (425) 
0.00916634

>  <r_i_glide_intrahb_reward>  (425) 
-0

>  <i_i_glide_confnum>  (425) 
2

>  <i_i_glide_posenum>  (425) 
13

>  <r_i_glide_eff_state_penalty>  (425) 
0

>  <ligand_id>  (425) 
116

>  <original_smiles>  (425) 
CC1C2=C(C(=O)CC2=O)C2CC2C1=C1C2(C)C=CC(=O)C(=O)C23C2CC3CC1(S(=O)(=O)O)C(C)C2

>  <smiles>  (425) 
[H]C1=C([H])C2(C([H])([H])[H])C(=C3C([H])(C([H])([H])[H])C4=C(C(=O)C([H])([H])C4=O)C4([H])C([H])([H])C34[H])C3(S(=O)(=O)[O-])C([H])([H])C4([H])C([H])([H])C([H])(C([H])([H])C3([H])C([H])([H])[H])C24C(=O)C1=O

$$$$
116:1:0
     RDKit          3D

 61 67  0  0  1  0  0  0  0  0999 V2000
    3.4615   -5.6045    6.3298 C   0  0  0  0  0  0  0  0  0  0  0  0
    2.4817   -5.3682    5.1582 C   0  0  2  0  0  0  0  0  0  0  0  0
    1.5810   -6.5808    4.9401 C   0  0  0  0  0  0  0  0  0  0  0  0
    1.7543   -7.5430    4.0160 C   0  0  0  0  0  0  0  0  0  0  0  0
    0.7057   -8.4646    4.0324 C   0  0  0  0  0  0  0  0  0  0  0  0
    0.5553   -9.4746    3.3104 O   0  0  0  0  0  0  0  0  0  0  0  0
   -0.1481   -8.0224    5.0196 C   0  0  0  0  0  0  0  0  0  0  0  0
    0.3411   -6.8152    5.6443 C   0  0  0  0  0  0  0  0  0  0  0  0
   -0.1665   -6.1604    6.5553 O   0  0  0  0  0  0  0  0  0  0  0  0
    2.9555   -7.5174    3.1556 C   0  0  2  0  0  0  0  0  0  0  0  0
    4.3025   -7.4855    3.8300 C   0  0  0  0  0  0  0  0  0  0  0  0
    3.7686   -6.2311    3.1627 C   0  0  2  0  0  0  0  0  0  0  0  0
    3.1583   -5.0012    3.8094 C   0  0  0  0  0  0  0  0  0  0  0  0
    3.0809   -3.7481    3.2124 C   0  0  0  0  0  0  0  0  0  0  0  0
    2.8211   -2.4238    4.0467 C   0  0  2  0  0  0  0  0  0  0  0  0
    3.5656   -2.5015    5.4200 C   0  0  0  0  0  0  0  0  0  0  0  0
    1.3177   -2.3011    4.3193 C   0  0  0  0  0  0  0  0  0  0  0  0
    0.6774   -1.1479    4.5919 C   0  0  0  0  0  0  0  0  0  0  0  0
    1.3961    0.1336    4.6439 C   0  0  0  0  0  0  0  0  0  0  0  0
    0.8759    1.1629    5.0770 O   0  0  0  0  0  0  0  0  0  0  0  0
    2.8641    0.1445    4.1525 C   0  0  0  0  0  0  0  0  0  0  0  0
    3.5640    1.1176    4.4325 O   0  0  0  0  0  0  0  0  0  0  0  0
    3.2974   -1.0895    3.3269 C   0  0  1  0  0  0  0  0  0  0  0  0
    4.7573   -1.0109    2.7615 C   0  0  2  0  0  0  0  0  0  0  0  0
    4.1970   -0.2398    1.5712 C   0  0  0  0  0  0  0  0  0  0  0  0
    2.8697   -0.9385    1.8693 C   0  0  1  0  0  0  0  0  0  0  0  0
    2.5404   -2.2356    1.1889 C   0  0  0  0  0  0  0  0  0  0  0  0
    3.3441   -3.4842    1.6734 C   0  0  2  0  0  0  0  0  0  0  0  0
    2.6284   -4.8710    0.5430 S   0  0  0  0  0  0  0  0  0  0  0  0
    2.1601   -4.1732   -0.6644 O   0  0  0  0  0  0  0  0  0  0  0  0
    3.7344   -5.7925    0.2682 O   0  0  0  0  0  0  0  0  0  0  0  0
    1.5073   -5.4619    1.2936 O   0  0  0  0  0  0  0  0  0  0  0  0
    4.8780   -3.2810    1.4381 C   0  0  1  0  0  0  0  0  0  0  0  0
    5.3093   -3.0477   -0.0326 C   0  0  0  0  0  0  0  0  0  0  0  0
    5.5350   -2.2877    2.4345 C   0  0  0  0  0  0  0  0  0  0  0  0
    3.4874   -6.6503    6.6333 H   0  0  0  0  0  0  0  0  0  0  0  0
    3.1474   -5.0483    7.2116 H   0  0  0  0  0  0  0  0  0  0  0  0
    4.4796   -5.3025    6.0824 H   0  0  0  0  0  0  0  0  0  0  0  0
    1.8017   -4.5799    5.4479 H   0  0  0  0  0  0  0  0  0  0  0  0
   -1.0584   -8.5204    5.3190 H   0  0  0  0  0  0  0  0  0  0  0  0
    2.8520   -8.0343    2.2038 H   0  0  0  0  0  0  0  0  0  0  0  0
    4.3167   -7.5920    4.9075 H   0  0  0  0  0  0  0  0  0  0  0  0
    5.0987   -8.0262    3.3242 H   0  0  0  0  0  0  0  0  0  0  0  0
    4.4912   -5.9835    2.4031 H   0  0  0  0  0  0  0  0  0  0  0  0
    2.9596   -2.9552    6.1986 H   0  0  0  0  0  0  0  0  0  0  0  0
    3.8432   -1.5366    5.8411 H   0  0  0  0  0  0  0  0  0  0  0  0
    4.4949   -3.0636    5.3405 H   0  0  0  0  0  0  0  0  0  0  0  0
    0.7273   -3.2029    4.2729 H   0  0  0  0  0  0  0  0  0  0  0  0
   -0.3868   -1.1326    4.7918 H   0  0  0  0  0  0  0  0  0  0  0  0
    5.3706   -0.3459    3.3670 H   0  0  0  0  0  0  0  0  0  0  0  0
    4.1564    0.8404    1.7246 H   0  0  0  0  0  0  0  0  0  0  0  0
    4.6437   -0.4654    0.6066 H   0  0  0  0  0  0  0  0  0  0  0  0
    2.0649   -0.2161    1.7323 H   0  0  0  0  0  0  0  0  0  0  0  0
    1.4807   -2.4212    1.3515 H   0  0  0  0  0  0  0  0  0  0  0  0
    2.6338   -2.0608    0.1180 H   0  0  0  0  0  0  0  0  0  0  0  0
    5.3614   -4.2230    1.6768 H   0  0  0  0  0  0  0  0  0  0  0  0
    4.7855   -2.2335   -0.5267 H   0  0  0  0  0  0  0  0  0  0  0  0
    5.1341   -3.9318   -0.6444 H   0  0  0  0  0  0  0  0  0  0  0  0
    6.3777   -2.8422   -0.1003 H   0  0  0  0  0  0  0  0  0  0  0  0
    6.5263   -2.0211    2.0727 H   0  0  0  0  0  0  0  0  0  0  0  0
    5.7310   -2.8131    3.3654 H   0  0  0  0  0  0  0  0  0  0  0  0
  1  2  1  0
  1 36  1  0
  1 37  1  0
  1 38  1  0
  2 13  1  0
  2  3  1  0
  2 39  1  1
  3  8  1  0
  3  4  2  0
  4  5  1  0
  4 10  1  0
  5  6  1  0
  5  7  2  0
  7  8  1  0
  7 40  1  0
  8  9  2  0
 10 12  1  0
 10 11  1  0
 10 41  1  6
 11 12  1  0
 11 42  1  0
 11 43  1  0
 12 13  1  0
 12 44  1  6
 13 14  2  3
 14 28  1  0
 14 15  1  0
 15 23  1  0
 15 16  1  1
 15 17  1  0
 16 45  1  0
 16 46  1  0
 16 47  1  0
 17 18  2  0
 17 48  1  0
 18 19  1  0
 18 49  1  0
 19 20  2  0
 19 21  1  0
 21 22  2  0
 23 21  1  1
 23 26  1  0
 23 24  1  0
 24 35  1  0
 24 25  1  0
 24 50  1  1
 25 26  1  0
 25 51  1  0
 25 52  1  0
 26 27  1  0
 26 53  1  1
 27 28  1  0
 27 54  1  0
 27 55  1  0
 28 29  1  6
 28 33  1  0
 29 30  2  0
 29 31  2  0
 29 32  1  0
 33 34  1  0
 33 35  1  0
 33 56  1  1
 34 57  1  0
 34 58  1  0
 34 59  1  0
 35 60  1  0
 35 61  1  0
M  CHG  2   6  -1  32  -1
M  END
>  <i_m_ct_stereo_status>  (426) 
1

>  <s_m_source_file>  (426) 
/var/tmp/pbs.5076255.sched01/tmp2gi29psn/132an720x3a.sdf

>  <i_m_source_file_index>  (426) 
41

>  <i_lp_mmshare_version>  (426) 
48012

>  <i_f3d_flags>  (426) 
0

>  <s_epik_input>  (426) 
Tz1DMVtDSDJdQyg9TylDKD1DMTIpW0NASF0zW0NASF0oW0NIMl0zKUMoXFtDQEBIXTJbQ0gzXSk9QygvW0NAXShbQ0BAXTQ1NikoW0NIM10pW0NIXT1bQ0hdQyg9TylDND1PKVtDQEBdNyhTKD1PKSg9TylbT0hdKVtDSDJdW0NAQEhdNltDSDJdW0NAQEhdNVtDSDJdW0NAQEhdN1tDSDNd

>  <s_epik_cmdline>  (426) 
J2VwaWtfcHl0aG9uJywgJy1waHQnLCAnMi4wJywgJy1waCcsICc3LjAnLCAnLXRuJywgJzgnLCAnLW1hJywgJzIwMCcsICctaW1hZScsICc8aW5maWxlLm1hZT4nLCAnLW9tYWUnLCAnPG91dGZpbGUubWFlPic=

>  <r_epik_Ionization_Penalty>  (426) 
1.00401

>  <r_epik_Ionization_Penalty_Charging>  (426) 
0.00118429

>  <r_epik_Ionization_Penalty_Neutral>  (426) 
1.00282

>  <r_epik_State_Penalty>  (426) 
1.5001

>  <r_epik_Charging_Adjusted_Penalty>  (426) 
1.50129

>  <i_epik_Tot_Q>  (426) 
-2

>  <i_epik_Tot_abs_Q>  (426) 
2

>  <s_lp_Force_Field>  (426) 
OPLS3e

>  <r_lp_Energy>  (426) 
109.792

>  <b_lp_Chiralities_Consistent>  (426) 
1

>  <s_lp_Variant>  (426) 
116:0-2

>  <s_i_glide_gridfile>  (426) 
pfpi4k_grid

>  <i_i_glide_lignum>  (426) 
41

>  <i_i_glide_rotatable_bonds>  (426) 
1

>  <r_i_docking_score>  (426) 
-1.83533

>  <r_i_glide_ligand_efficiency>  (426) 
-0.0524379

>  <r_i_glide_ligand_efficiency_sa>  (426) 
-0.171528

>  <r_i_glide_ligand_efficiency_ln>  (426) 
-0.402895

>  <r_i_glide_gscore>  (426) 
-1.83533

>  <r_i_glide_lipo>  (426) 
-0.282053

>  <r_i_glide_hbond>  (426) 
-0.135705

>  <r_i_glide_metal>  (426) 
-0

>  <r_i_glide_rewards>  (426) 
-0.0371104

>  <r_i_glide_evdw>  (426) 
-23.4613

>  <r_i_glide_ecoul>  (426) 
-0.569882

>  <r_i_glide_erotb>  (426) 
0

>  <r_i_glide_esite>  (426) 
-0.121908

>  <r_i_glide_emodel>  (426) 
-27.4295

>  <r_i_glide_energy>  (426) 
-24.0312

>  <r_i_glide_einternal>  (426) 
0.0856889

>  <r_i_glide_intrahb_reward>  (426) 
-0

>  <i_i_glide_confnum>  (426) 
1

>  <i_i_glide_posenum>  (426) 
8

>  <r_i_glide_eff_state_penalty>  (426) 
0

>  <ligand_id>  (426) 
116

>  <original_smiles>  (426) 
CC1C2=C(C(=O)CC2=O)C2CC2C1=C1C2(C)C=CC(=O)C(=O)C23C2CC3CC1(S(=O)(=O)O)C(C)C2

>  <smiles>  (426) 
[H]C1=C([O-])C2=C(C1=O)C([H])(C([H])([H])[H])C(=C1C3(C([H])([H])[H])C([H])=C([H])C(=O)C(=O)C34C3([H])C([H])([H])C4([H])C([H])([H])C1(S(=O)(=O)[O-])C([H])(C([H])([H])[H])C3([H])[H])C1([H])C([H])([H])C21[H]

$$$$
116:1:1
     RDKit          3D

 61 67  0  0  1  0  0  0  0  0999 V2000
    4.8186   -5.2603    7.8864 C   0  0  0  0  0  0  0  0  0  0  0  0
    3.4719   -4.9415    7.1958 C   0  0  2  0  0  0  0  0  0  0  0  0
    2.3047   -5.5824    7.9437 C   0  0  0  0  0  0  0  0  0  0  0  0
    1.6909   -6.7369    7.6231 C   0  0  0  0  0  0  0  0  0  0  0  0
    0.6150   -6.9962    8.4706 C   0  0  0  0  0  0  0  0  0  0  0  0
   -0.1693   -7.9688    8.4810 O   0  0  0  0  0  0  0  0  0  0  0  0
    0.5702   -5.9283    9.3409 C   0  0  0  0  0  0  0  0  0  0  0  0
    1.6175   -4.9762    9.0596 C   0  0  0  0  0  0  0  0  0  0  0  0
    1.8672   -3.9236    9.6443 O   0  0  0  0  0  0  0  0  0  0  0  0
    2.2101   -7.5388    6.4952 C   0  0  2  0  0  0  0  0  0  0  0  0
    3.6542   -7.9607    6.5442 C   0  0  0  0  0  0  0  0  0  0  0  0
    3.2297   -6.8626    5.5843 C   0  0  2  0  0  0  0  0  0  0  0  0
    3.3958   -5.3640    5.7007 C   0  0  0  0  0  0  0  0  0  0  0  0
    3.3487   -4.4778    4.6305 C   0  0  0  0  0  0  0  0  0  0  0  0
    3.9505   -3.0090    4.7373 C   0  0  2  0  0  0  0  0  0  0  0  0
    5.2567   -3.0206    5.5978 C   0  0  0  0  0  0  0  0  0  0  0  0
    2.9292   -2.1036    5.4349 C   0  0  0  0  0  0  0  0  0  0  0  0
    2.8776   -0.7635    5.3162 C   0  0  0  0  0  0  0  0  0  0  0  0
    3.8305   -0.0321    4.4683 C   0  0  0  0  0  0  0  0  0  0  0  0
    3.9262    1.1939    4.4912 O   0  0  0  0  0  0  0  0  0  0  0  0
    4.7422   -0.8705    3.5445 C   0  0  0  0  0  0  0  0  0  0  0  0
    5.7119   -0.3139    3.0273 O   0  0  0  0  0  0  0  0  0  0  0  0
    4.3126   -2.3435    3.3408 C   0  0  1  0  0  0  0  0  0  0  0  0
    5.2036   -3.1428    2.3288 C   0  0  2  0  0  0  0  0  0  0  0  0
    4.3337   -2.5818    1.2073 C   0  0  0  0  0  0  0  0  0  0  0  0
    3.2318   -2.4477    2.2662 C   0  0  1  0  0  0  0  0  0  0  0  0
    2.2473   -3.5700    2.4866 C   0  0  0  0  0  0  0  0  0  0  0  0
    2.8153   -4.8494    3.1776 C   0  0  2  0  0  0  0  0  0  0  0  0
    1.2542   -5.9896    3.1854 S   0  0  0  0  0  0  0  0  0  0  0  0
    0.6042   -5.8521    1.8697 O   0  0  0  0  0  0  0  0  0  0  0  0
    1.6886   -7.3731    3.3878 O   0  0  0  0  0  0  0  0  0  0  0  0
    0.4475   -5.4195    4.2791 O   0  0  0  0  0  0  0  0  0  0  0  0
    3.9825   -5.4754    2.3499 C   0  0  1  0  0  0  0  0  0  0  0  0
    3.6093   -5.9251    0.9177 C   0  0  0  0  0  0  0  0  0  0  0  0
    5.3130   -4.6698    2.4174 C   0  0  0  0  0  0  0  0  0  0  0  0
    4.7185   -6.0498    8.6314 H   0  0  0  0  0  0  0  0  0  0  0  0
    5.1898   -4.3899    8.4266 H   0  0  0  0  0  0  0  0  0  0  0  0
    5.5844   -5.5709    7.1741 H   0  0  0  0  0  0  0  0  0  0  0  0
    3.2958   -3.8780    7.2843 H   0  0  0  0  0  0  0  0  0  0  0  0
   -0.1279   -5.8042   10.1509 H   0  0  0  0  0  0  0  0  0  0  0  0
    1.4811   -8.2010    6.0311 H   0  0  0  0  0  0  0  0  0  0  0  0
    4.2125   -7.7452    7.4469 H   0  0  0  0  0  0  0  0  0  0  0  0
    3.8729   -8.9354    6.1172 H   0  0  0  0  0  0  0  0  0  0  0  0
    3.5465   -7.2267    4.6170 H   0  0  0  0  0  0  0  0  0  0  0  0
    5.0653   -2.8759    6.6569 H   0  0  0  0  0  0  0  0  0  0  0  0
    5.9585   -2.2232    5.3635 H   0  0  0  0  0  0  0  0  0  0  0  0
    5.8131   -3.9484    5.4737 H   0  0  0  0  0  0  0  0  0  0  0  0
    2.1862   -2.5827    6.0544 H   0  0  0  0  0  0  0  0  0  0  0  0
    2.1362   -0.1805    5.8496 H   0  0  0  0  0  0  0  0  0  0  0  0
    6.1961   -2.7009    2.2627 H   0  0  0  0  0  0  0  0  0  0  0  0
    4.6920   -1.6253    0.8143 H   0  0  0  0  0  0  0  0  0  0  0  0
    4.1200   -3.2711    0.3947 H   0  0  0  0  0  0  0  0  0  0  0  0
    2.7174   -1.5001    2.0933 H   0  0  0  0  0  0  0  0  0  0  0  0
    1.4222   -3.1801    3.0827 H   0  0  0  0  0  0  0  0  0  0  0  0
    1.8173   -3.8023    1.5165 H   0  0  0  0  0  0  0  0  0  0  0  0
    4.2351   -6.4156    2.8317 H   0  0  0  0  0  0  0  0  0  0  0  0
    3.1457   -5.1493    0.3132 H   0  0  0  0  0  0  0  0  0  0  0  0
    2.9047   -6.7558    0.9458 H   0  0  0  0  0  0  0  0  0  0  0  0
    4.4843   -6.2816    0.3742 H   0  0  0  0  0  0  0  0  0  0  0  0
    5.9913   -5.0308    1.6455 H   0  0  0  0  0  0  0  0  0  0  0  0
    5.8215   -4.9201    3.3456 H   0  0  0  0  0  0  0  0  0  0  0  0
  1  2  1  0
  1 36  1  0
  1 37  1  0
  1 38  1  0
  2 13  1  0
  2  3  1  0
  2 39  1  6
  3  8  1  0
  3  4  2  0
  4  5  1  0
  4 10  1  0
  5  6  1  0
  5  7  2  0
  7  8  1  0
  7 40  1  0
  8  9  2  0
 10 12  1  0
 10 11  1  0
 10 41  1  6
 11 12  1  0
 11 42  1  0
 11 43  1  0
 12 13  1  0
 12 44  1  6
 13 14  2  3
 14 28  1  0
 14 15  1  0
 15 23  1  0
 15 16  1  1
 15 17  1  0
 16 45  1  0
 16 46  1  0
 16 47  1  0
 17 18  2  0
 17 48  1  0
 18 19  1  0
 18 49  1  0
 19 20  2  0
 19 21  1  0
 21 22  2  0
 23 21  1  1
 23 26  1  0
 23 24  1  0
 24 35  1  0
 24 25  1  0
 24 50  1  6
 25 26  1  0
 25 51  1  0
 25 52  1  0
 26 27  1  0
 26 53  1  6
 27 28  1  0
 27 54  1  0
 27 55  1  0
 28 29  1  1
 28 33  1  0
 29 30  2  0
 29 31  2  0
 29 32  1  0
 33 34  1  0
 33 35  1  0
 33 56  1  1
 34 57  1  0
 34 58  1  0
 34 59  1  0
 35 60  1  0
 35 61  1  0
M  CHG  2   6  -1  32  -1
M  END
>  <i_m_ct_stereo_status>  (427) 
1

>  <s_m_source_file>  (427) 
/var/tmp/pbs.5076255.sched01/tmp2gi29psn/132an720x3a.sdf

>  <i_m_source_file_index>  (427) 
41

>  <i_lp_mmshare_version>  (427) 
48012

>  <i_f3d_flags>  (427) 
0

>  <s_epik_input>  (427) 
Tz1DMVtDSDJdQyg9TylDKD1DMTIpW0NASF0zW0NASF0oW0NIMl0zKUMoXFtDQEBIXTJbQ0gzXSk9QygvW0NAXShbQ0BAXTQ1NikoW0NIM10pW0NIXT1bQ0hdQyg9TylDND1PKVtDQEBdNyhTKD1PKSg9TylbT0hdKVtDSDJdW0NAQEhdNltDSDJdW0NAQEhdNVtDSDJdW0NAQEhdN1tDSDNd

>  <s_epik_cmdline>  (427) 
J2VwaWtfcHl0aG9uJywgJy1waHQnLCAnMi4wJywgJy1waCcsICc3LjAnLCAnLXRuJywgJzgnLCAnLW1hJywgJzIwMCcsICctaW1hZScsICc8aW5maWxlLm1hZT4nLCAnLW9tYWUnLCAnPG91dGZpbGUubWFlPic=

>  <r_epik_Ionization_Penalty>  (427) 
1.00401

>  <r_epik_Ionization_Penalty_Charging>  (427) 
0.00118429

>  <r_epik_Ionization_Penalty_Neutral>  (427) 
1.00282

>  <r_epik_State_Penalty>  (427) 
1.5001

>  <r_epik_Charging_Adjusted_Penalty>  (427) 
1.50129

>  <i_epik_Tot_Q>  (427) 
-2

>  <i_epik_Tot_abs_Q>  (427) 
2

>  <s_lp_Force_Field>  (427) 
OPLS3e

>  <r_lp_Energy>  (427) 
109.792

>  <b_lp_Chiralities_Consistent>  (427) 
1

>  <s_lp_Variant>  (427) 
116:0-2

>  <s_i_glide_gridfile>  (427) 
pfpi4k_grid

>  <i_i_glide_lignum>  (427) 
41

>  <i_i_glide_rotatable_bonds>  (427) 
1

>  <r_i_docking_score>  (427) 
-1.73598

>  <r_i_glide_ligand_efficiency>  (427) 
-0.0495993

>  <r_i_glide_ligand_efficiency_sa>  (427) 
-0.162243

>  <r_i_glide_ligand_efficiency_ln>  (427) 
-0.381086

>  <r_i_glide_gscore>  (427) 
-1.73598

>  <r_i_glide_lipo>  (427) 
-0.130667

>  <r_i_glide_hbond>  (427) 
-0.0786318

>  <r_i_glide_metal>  (427) 
-0

>  <r_i_glide_rewards>  (427) 
-0.142203

>  <r_i_glide_evdw>  (427) 
-18.9496

>  <r_i_glide_ecoul>  (427) 
-2.08908

>  <r_i_glide_erotb>  (427) 
0

>  <r_i_glide_esite>  (427) 
-0.123631

>  <r_i_glide_emodel>  (427) 
-22.9971

>  <r_i_glide_energy>  (427) 
-21.0387

>  <r_i_glide_einternal>  (427) 
0.0269295

>  <r_i_glide_intrahb_reward>  (427) 
-0

>  <i_i_glide_confnum>  (427) 
2

>  <i_i_glide_posenum>  (427) 
2

>  <r_i_glide_eff_state_penalty>  (427) 
0

>  <ligand_id>  (427) 
116

>  <original_smiles>  (427) 
CC1C2=C(C(=O)CC2=O)C2CC2C1=C1C2(C)C=CC(=O)C(=O)C23C2CC3CC1(S(=O)(=O)O)C(C)C2

>  <smiles>  (427) 
[H]C1=C([O-])C2=C(C1=O)C([H])(C([H])([H])[H])C(=C1C3(C([H])([H])[H])C([H])=C([H])C(=O)C(=O)C34C3([H])C([H])([H])C4([H])C([H])([H])C1(S(=O)(=O)[O-])C([H])(C([H])([H])[H])C3([H])[H])C1([H])C([H])([H])C21[H]

$$$$
116:1:2
     RDKit          3D

 61 67  0  0  1  0  0  0  0  0999 V2000
    0.8054   -6.3400    4.6871 C   0  0  0  0  0  0  0  0  0  0  0  0
    1.4320   -7.0518    3.4690 C   0  0  2  0  0  0  0  0  0  0  0  0
    0.7973   -8.4056    3.2568 C   0  0  0  0  0  0  0  0  0  0  0  0
    1.2924   -9.5876    3.6507 C   0  0  0  0  0  0  0  0  0  0  0  0
    0.5070  -10.6372    3.2227 C   0  0  0  0  0  0  0  0  0  0  0  0
    0.6633  -11.8501    3.4331 O   0  0  0  0  0  0  0  0  0  0  0  0
   -0.5188  -10.0433    2.5136 C   0  0  0  0  0  0  0  0  0  0  0  0
   -0.4059   -8.6143    2.5202 C   0  0  0  0  0  0  0  0  0  0  0  0
   -1.1854   -7.7734    2.0653 O   0  0  0  0  0  0  0  0  0  0  0  0
    2.5367   -9.6436    4.4331 C   0  0  2  0  0  0  0  0  0  0  0  0
    2.5928   -8.8452    5.7085 C   0  0  0  0  0  0  0  0  0  0  0  0
    3.3411   -8.3574    4.4835 C   0  0  2  0  0  0  0  0  0  0  0  0
    2.9703   -7.2409    3.5263 C   0  0  0  0  0  0  0  0  0  0  0  0
    3.8622   -6.5845    2.6912 C   0  0  0  0  0  0  0  0  0  0  0  0
    3.5060   -5.1865    2.0325 C   0  0  2  0  0  0  0  0  0  0  0  0
    2.6858   -4.3006    3.0276 C   0  0  0  0  0  0  0  0  0  0  0  0
    2.6536   -5.4211    0.7851 C   0  0  0  0  0  0  0  0  0  0  0  0
    2.5476   -4.5552   -0.2398 C   0  0  0  0  0  0  0  0  0  0  0  0
    3.2955   -3.2906   -0.2741 C   0  0  0  0  0  0  0  0  0  0  0  0
    3.1405   -2.4500   -1.1536 O   0  0  0  0  0  0  0  0  0  0  0  0
    4.3358   -3.0701    0.8411 C   0  0  0  0  0  0  0  0  0  0  0  0
    4.7768   -1.9300    1.0143 O   0  0  0  0  0  0  0  0  0  0  0  0
    4.7632   -4.3460    1.5947 C   0  0  1  0  0  0  0  0  0  0  0  0
    5.8735   -4.1219    2.6463 C   0  0  2  0  0  0  0  0  0  0  0  0
    6.8952   -4.2593    1.5121 C   0  0  0  0  0  0  0  0  0  0  0  0
    5.8340   -5.0949    0.8072 C   0  0  1  0  0  0  0  0  0  0  0  0
    5.8176   -6.5830    1.0074 C   0  0  0  0  0  0  0  0  0  0  0  0
    5.3513   -7.0669    2.4126 C   0  0  2  0  0  0  0  0  0  0  0  0
    5.5038   -8.9583    2.2031 S   0  0  0  0  0  0  0  0  0  0  0  0
    4.1785   -9.3295    1.6977 O   0  0  0  0  0  0  0  0  0  0  0  0
    6.5882   -9.1828    1.2296 O   0  0  0  0  0  0  0  0  0  0  0  0
    5.8533   -9.4981    3.5295 O   0  0  0  0  0  0  0  0  0  0  0  0
    6.2748   -6.5554    3.5502 C   0  0  1  0  0  0  0  0  0  0  0  0
    7.7701   -6.9543    3.4387 C   0  0  0  0  0  0  0  0  0  0  0  0
    6.0376   -5.0597    3.8620 C   0  0  0  0  0  0  0  0  0  0  0  0
    0.2024   -7.0219    5.2876 H   0  0  0  0  0  0  0  0  0  0  0  0
    0.1303   -5.5505    4.3597 H   0  0  0  0  0  0  0  0  0  0  0  0
    1.5683   -5.9049    5.3315 H   0  0  0  0  0  0  0  0  0  0  0  0
    1.1601   -6.5097    2.5737 H   0  0  0  0  0  0  0  0  0  0  0  0
   -1.3315  -10.5754    2.0407 H   0  0  0  0  0  0  0  0  0  0  0  0
    3.0861  -10.5800    4.3609 H   0  0  0  0  0  0  0  0  0  0  0  0
    1.6650   -8.3875    6.0334 H   0  0  0  0  0  0  0  0  0  0  0  0
    3.1747   -9.2942    6.5105 H   0  0  0  0  0  0  0  0  0  0  0  0
    4.3719   -8.3139    4.7767 H   0  0  0  0  0  0  0  0  0  0  0  0
    1.6162   -4.4578    2.9324 H   0  0  0  0  0  0  0  0  0  0  0  0
    2.8004   -3.2249    2.8896 H   0  0  0  0  0  0  0  0  0  0  0  0
    2.9711   -4.4935    4.0602 H   0  0  0  0  0  0  0  0  0  0  0  0
    2.1327   -6.3673    0.7208 H   0  0  0  0  0  0  0  0  0  0  0  0
    1.9281   -4.7696   -1.1039 H   0  0  0  0  0  0  0  0  0  0  0  0
    5.8671   -3.0855    2.9653 H   0  0  0  0  0  0  0  0  0  0  0  0
    7.1264   -3.3160    1.0081 H   0  0  0  0  0  0  0  0  0  0  0  0
    7.8104   -4.7815    1.7738 H   0  0  0  0  0  0  0  0  0  0  0  0
    5.8525   -4.8344   -0.2473 H   0  0  0  0  0  0  0  0  0  0  0  0
    5.1497   -7.0136    0.2612 H   0  0  0  0  0  0  0  0  0  0  0  0
    6.8157   -6.9426    0.7645 H   0  0  0  0  0  0  0  0  0  0  0  0
    5.9694   -7.0317    4.4753 H   0  0  0  0  0  0  0  0  0  0  0  0
    8.2337   -6.7239    2.4817 H   0  0  0  0  0  0  0  0  0  0  0  0
    7.8949   -8.0276    3.5780 H   0  0  0  0  0  0  0  0  0  0  0  0
    8.3687   -6.4783    4.2157 H   0  0  0  0  0  0  0  0  0  0  0  0
    6.8357   -4.7396    4.5207 H   0  0  0  0  0  0  0  0  0  0  0  0
    5.1743   -4.9472    4.5095 H   0  0  0  0  0  0  0  0  0  0  0  0
  1  2  1  0
  1 36  1  0
  1 37  1  0
  1 38  1  0
  2 13  1  0
  2  3  1  0
  2 39  1  6
  3  8  1  0
  3  4  2  0
  4  5  1  0
  4 10  1  0
  5  6  1  0
  5  7  2  0
  7  8  1  0
  7 40  1  0
  8  9  2  0
 10 12  1  0
 10 11  1  0
 10 41  1  1
 11 12  1  0
 11 42  1  0
 11 43  1  0
 12 13  1  0
 12 44  1  1
 13 14  2  3
 14 28  1  0
 14 15  1  0
 15 23  1  0
 15 16  1  1
 15 17  1  0
 16 45  1  0
 16 46  1  0
 16 47  1  0
 17 18  2  0
 17 48  1  0
 18 19  1  0
 18 49  1  0
 19 20  2  0
 19 21  1  0
 21 22  2  0
 23 21  1  6
 23 26  1  0
 23 24  1  0
 24 35  1  0
 24 25  1  0
 24 50  1  1
 25 26  1  0
 25 51  1  0
 25 52  1  0
 26 27  1  0
 26 53  1  6
 27 28  1  0
 27 54  1  0
 27 55  1  0
 28 29  1  6
 28 33  1  0
 29 30  2  0
 29 31  2  0
 29 32  1  0
 33 34  1  0
 33 35  1  0
 33 56  1  1
 34 57  1  0
 34 58  1  0
 34 59  1  0
 35 60  1  0
 35 61  1  0
M  CHG  2   6  -1  32  -1
M  END
>  <i_m_ct_stereo_status>  (428) 
1

>  <s_m_source_file>  (428) 
/var/tmp/pbs.5076255.sched01/tmp2gi29psn/132an720x3a.sdf

>  <i_m_source_file_index>  (428) 
41

>  <i_lp_mmshare_version>  (428) 
48012

>  <i_f3d_flags>  (428) 
0

>  <s_epik_input>  (428) 
Tz1DMVtDSDJdQyg9TylDKD1DMTIpW0NASF0zW0NASF0oW0NIMl0zKUMoXFtDQEBIXTJbQ0gzXSk9QygvW0NAXShbQ0BAXTQ1NikoW0NIM10pW0NIXT1bQ0hdQyg9TylDND1PKVtDQEBdNyhTKD1PKSg9TylbT0hdKVtDSDJdW0NAQEhdNltDSDJdW0NAQEhdNVtDSDJdW0NAQEhdN1tDSDNd

>  <s_epik_cmdline>  (428) 
J2VwaWtfcHl0aG9uJywgJy1waHQnLCAnMi4wJywgJy1waCcsICc3LjAnLCAnLXRuJywgJzgnLCAnLW1hJywgJzIwMCcsICctaW1hZScsICc8aW5maWxlLm1hZT4nLCAnLW9tYWUnLCAnPG91dGZpbGUubWFlPic=

>  <r_epik_Ionization_Penalty>  (428) 
1.00401

>  <r_epik_Ionization_Penalty_Charging>  (428) 
0.00118429

>  <r_epik_Ionization_Penalty_Neutral>  (428) 
1.00282

>  <r_epik_State_Penalty>  (428) 
1.5001

>  <r_epik_Charging_Adjusted_Penalty>  (428) 
1.50129

>  <i_epik_Tot_Q>  (428) 
-2

>  <i_epik_Tot_abs_Q>  (428) 
2

>  <s_lp_Force_Field>  (428) 
OPLS3e

>  <r_lp_Energy>  (428) 
109.792

>  <b_lp_Chiralities_Consistent>  (428) 
1

>  <s_lp_Variant>  (428) 
116:0-2

>  <s_i_glide_gridfile>  (428) 
pfpi4k_grid

>  <i_i_glide_lignum>  (428) 
41

>  <i_i_glide_rotatable_bonds>  (428) 
1

>  <r_i_docking_score>  (428) 
-1.44213

>  <r_i_glide_ligand_efficiency>  (428) 
-0.0412038

>  <r_i_glide_ligand_efficiency_sa>  (428) 
-0.13478

>  <r_i_glide_ligand_efficiency_ln>  (428) 
-0.31658

>  <r_i_glide_gscore>  (428) 
-1.44213

>  <r_i_glide_lipo>  (428) 
-0.405055

>  <r_i_glide_hbond>  (428) 
0

>  <r_i_glide_metal>  (428) 
-0

>  <r_i_glide_rewards>  (428) 
-0.0881878

>  <r_i_glide_evdw>  (428) 
-23.081

>  <r_i_glide_ecoul>  (428) 
2.02607

>  <r_i_glide_erotb>  (428) 
0

>  <r_i_glide_esite>  (428) 
-0.0987489

>  <r_i_glide_emodel>  (428) 
-23.2685

>  <r_i_glide_energy>  (428) 
-21.0549

>  <r_i_glide_einternal>  (428) 
0.406881

>  <r_i_glide_intrahb_reward>  (428) 
-0

>  <i_i_glide_confnum>  (428) 
1

>  <i_i_glide_posenum>  (428) 
20

>  <r_i_glide_eff_state_penalty>  (428) 
0

>  <ligand_id>  (428) 
116

>  <original_smiles>  (428) 
CC1C2=C(C(=O)CC2=O)C2CC2C1=C1C2(C)C=CC(=O)C(=O)C23C2CC3CC1(S(=O)(=O)O)C(C)C2

>  <smiles>  (428) 
[H]C1=C([O-])C2=C(C1=O)C([H])(C([H])([H])[H])C(=C1C3(C([H])([H])[H])C([H])=C([H])C(=O)C(=O)C34C3([H])C([H])([H])C4([H])C([H])([H])C1(S(=O)(=O)[O-])C([H])(C([H])([H])[H])C3([H])[H])C1([H])C([H])([H])C21[H]

$$$$
117:0:0
     RDKit          3D

 54 57  0  0  1  0  0  0  0  0999 V2000
    3.8522   -1.3555    1.8154 C   0  0  0  0  0  0  0  0  0  0  0  0
    5.2294   -2.0002    1.6202 C   0  0  2  0  0  0  0  0  0  0  0  0
    6.0065   -1.6265    0.3806 C   0  0  0  0  0  0  0  0  0  0  0  0
    5.9881   -2.5065   -0.9138 C   0  0  1  0  0  0  0  0  0  0  0  0
    7.4895   -3.0329   -1.0785 C   0  0  0  0  0  0  0  0  0  0  0  0
    7.9893   -4.0237    0.1353 C   0  0  0  0  0  0  0  0  0  0  0  0
    6.9968   -5.1511    0.7547 C   0  0  1  0  0  0  0  0  0  0  0  0
    7.6200   -5.7977    1.9945 C   0  0  0  0  0  0  0  0  0  0  0  0
    5.5158   -4.6130    0.9776 C   0  0  1  0  0  0  0  0  0  0  0  0
    5.1823   -4.6067   -0.3813 O   0  0  0  0  0  0  0  0  0  0  0  0
    6.0369   -3.8725   -1.1792 O   0  0  0  0  0  0  0  0  0  0  0  0
    4.0529   -5.1869    0.8460 C   0  0  2  0  0  0  0  0  0  0  0  0
    2.9435   -4.2573    0.0096 C   0  0  0  0  0  0  0  0  0  0  0  0
    3.2574   -3.0060   -1.0086 C   0  0  0  0  0  0  0  0  0  0  0  0
    4.6309   -2.4847   -1.7258 C   0  0  1  0  0  0  0  0  0  0  0  0
    4.3773   -1.0402   -2.2167 C   0  0  0  0  0  0  0  0  0  0  0  0
    3.4834   -5.5469    2.2447 C   0  0  1  0  0  0  0  0  0  0  0  0
    4.1601   -6.7773    2.8871 C   0  0  0  0  0  0  0  0  0  0  0  0
    3.5335   -4.3164    3.1717 C   0  0  1  0  0  0  0  0  0  0  0  0
    3.0220   -4.5409    4.6003 C   0  0  0  0  0  0  0  0  0  0  0  0
    4.8612   -3.8111    3.2504 O   0  0  0  0  0  0  0  0  0  0  0  0
    5.4631   -3.4444    2.0150 C   0  0  2  0  0  0  0  0  0  0  0  0
    3.0172   -1.9181    1.4262 H   0  0  0  0  0  0  0  0  0  0  0  0
    3.8105   -0.3567    1.3823 H   0  0  0  0  0  0  0  0  0  0  0  0
    3.6468   -1.2462    2.8823 H   0  0  0  0  0  0  0  0  0  0  0  0
    5.7907   -1.4594    2.3884 H   0  0  0  0  0  0  0  0  0  0  0  0
    5.7242   -0.6211    0.0699 H   0  0  0  0  0  0  0  0  0  0  0  0
    7.0461   -1.5059    0.6880 H   0  0  0  0  0  0  0  0  0  0  0  0
    7.8066   -3.4035   -2.0851 H   0  0  0  0  0  0  0  0  0  0  0  0
    8.1358   -2.1516   -1.0442 H   0  0  0  0  0  0  0  0  0  0  0  0
    8.9035   -4.5166   -0.2015 H   0  0  0  0  0  0  0  0  0  0  0  0
    8.2991   -3.3893    0.9605 H   0  0  0  0  0  0  0  0  0  0  0  0
    6.9198   -5.9968    0.0655 H   0  0  0  0  0  0  0  0  0  0  0  0
    7.6390   -5.1342    2.8572 H   0  0  0  0  0  0  0  0  0  0  0  0
    8.6646   -6.0800    1.8115 H   0  0  0  0  0  0  0  0  0  0  0  0
    7.1118   -6.7143    2.2954 H   0  0  0  0  0  0  0  0  0  0  0  0
    4.0689   -6.1782    0.3395 H   0  0  0  0  0  0  0  0  0  0  0  0
    2.4228   -4.9857   -0.6189 H   0  0  0  0  0  0  0  0  0  0  0  0
    2.1666   -3.9155    0.7014 H   0  0  0  0  0  0  0  0  0  0  0  0
    2.5776   -3.1757   -1.8525 H   0  0  0  0  0  0  0  0  0  0  0  0
    2.8046   -2.1192   -0.5776 H   0  0  0  0  0  0  0  0  0  0  0  0
    4.7601   -3.0802   -2.6507 H   0  0  0  0  0  0  0  0  0  0  0  0
    4.1363   -0.3637   -1.3992 H   0  0  0  0  0  0  0  0  0  0  0  0
    3.5323   -0.9622   -2.9114 H   0  0  0  0  0  0  0  0  0  0  0  0
    5.2394   -0.6049   -2.7169 H   0  0  0  0  0  0  0  0  0  0  0  0
    2.4341   -5.8160    2.1235 H   0  0  0  0  0  0  0  0  0  0  0  0
    5.1537   -6.5427    3.2623 H   0  0  0  0  0  0  0  0  0  0  0  0
    4.2398   -7.6055    2.1870 H   0  0  0  0  0  0  0  0  0  0  0  0
    3.5795   -7.1419    3.7380 H   0  0  0  0  0  0  0  0  0  0  0  0
    2.8840   -3.5593    2.7618 H   0  0  0  0  0  0  0  0  0  0  0  0
    2.0009   -4.9149    4.5916 H   0  0  0  0  0  0  0  0  0  0  0  0
    3.0220   -3.6035    5.1614 H   0  0  0  0  0  0  0  0  0  0  0  0
    3.6371   -5.2498    5.1622 H   0  0  0  0  0  0  0  0  0  0  0  0
    6.4990   -3.3941    2.3128 H   0  0  0  0  0  0  0  0  0  0  0  0
  1  2  1  0
  1 23  1  0
  1 24  1  0
  1 25  1  0
  2 22  1  0
  2  3  1  0
  2 26  1  1
  4  3  1  1
  3 27  1  0
  3 28  1  0
  4 11  1  0
  4 15  1  0
  4  5  1  0
  5  6  1  0
  5 29  1  0
  5 30  1  0
  6  7  1  0
  6 31  1  0
  6 32  1  0
  7  8  1  0
  7  9  1  0
  7 33  1  6
  8 34  1  0
  8 35  1  0
  8 36  1  0
  9 22  1  0
  9 10  1  6
  9 12  1  0
 10 11  1  0
 12 13  1  0
 12 17  1  0
 12 37  1  6
 13 14  1  0
 13 38  1  0
 13 39  1  0
 14 15  1  0
 14 40  1  0
 14 41  1  0
 15 16  1  0
 15 42  1  6
 16 43  1  0
 16 44  1  0
 16 45  1  0
 17 18  1  0
 17 19  1  0
 17 46  1  6
 18 47  1  0
 18 48  1  0
 18 49  1  0
 19 20  1  0
 19 21  1  0
 19 50  1  6
 20 51  1  0
 20 52  1  0
 20 53  1  0
 21 22  1  0
 22 54  1  1
M  END
>  <i_m_ct_stereo_status>  (429) 
1

>  <s_m_source_file>  (429) 
/var/tmp/pbs.5076255.sched01/tmp2gi29psn/132an720x3a.sdf

>  <i_m_source_file_index>  (429) 
42

>  <i_lp_mmshare_version>  (429) 
48012

>  <i_f3d_flags>  (429) 
0

>  <s_epik_input>  (429) 
W0NAXTEyM1tDSDJdW0NAQEhdKFtDSDNdKVtDQEBIXTRbQ0BAXShPTzIpKFtDQEhdKFtDSDNdKVtDSDJdW0NIMl0xKVtDQEBIXShbQ0BASF0oW0NIM10pW0NASF0oTzQpW0NIM10pW0NIMl1bQ0gyXVtDQEhdM1tDSDNd

>  <s_epik_cmdline>  (429) 
J2VwaWtfcHl0aG9uJywgJy1waHQnLCAnMi4wJywgJy1waCcsICc3LjAnLCAnLXRuJywgJzgnLCAnLW1hJywgJzIwMCcsICctaW1hZScsICc8aW5maWxlLm1hZT4nLCAnLW9tYWUnLCAnPG91dGZpbGUubWFlPic=

>  <r_lp_tautomer_probability>  (429) 
1

>  <r_epik_Ionization_Penalty>  (429) 
5.04381e-12

>  <r_epik_Ionization_Penalty_Charging>  (429) 
0

>  <r_epik_Ionization_Penalty_Neutral>  (429) 
5.04381e-12

>  <r_epik_State_Penalty>  (429) 
-0

>  <r_epik_Charging_Adjusted_Penalty>  (429) 
0

>  <i_epik_Tot_Q>  (429) 
0

>  <i_epik_Tot_abs_Q>  (429) 
0

>  <s_lp_Force_Field>  (429) 
OPLS3e

>  <r_lp_Energy>  (429) 
257.652

>  <b_lp_Chiralities_Consistent>  (429) 
1

>  <s_lp_Variant>  (429) 
117:0-1

>  <s_i_glide_gridfile>  (429) 
pfpi4k_grid

>  <i_i_glide_lignum>  (429) 
42

>  <i_i_glide_rotatable_bonds>  (429) 
0

>  <r_i_docking_score>  (429) 
-3.10949

>  <r_i_glide_ligand_efficiency>  (429) 
-0.14134

>  <r_i_glide_ligand_efficiency_sa>  (429) 
-0.396042

>  <r_i_glide_ligand_efficiency_ln>  (429) 
-0.760073

>  <r_i_glide_gscore>  (429) 
-3.10949

>  <r_i_glide_lipo>  (429) 
-0.59518

>  <r_i_glide_hbond>  (429) 
0

>  <r_i_glide_metal>  (429) 
-0

>  <r_i_glide_rewards>  (429) 
-1.30598

>  <r_i_glide_evdw>  (429) 
-24.7074

>  <r_i_glide_ecoul>  (429) 
0.18028

>  <r_i_glide_erotb>  (429) 
0

>  <r_i_glide_esite>  (429) 
0

>  <r_i_glide_emodel>  (429) 
-28.6011

>  <r_i_glide_energy>  (429) 
-24.5271

>  <r_i_glide_einternal>  (429) 
0

>  <r_i_glide_intrahb_reward>  (429) 
-0

>  <i_i_glide_confnum>  (429) 
1

>  <i_i_glide_posenum>  (429) 
15

>  <r_i_glide_eff_state_penalty>  (429) 
0

>  <ligand_id>  (429) 
117

>  <original_smiles>  (429) 
CC1CC23CCC(C)C4(OO2)C(CCC3C)C(C)C(C)OC14

>  <smiles>  (429) 
[H]C([H])([H])C1([H])OC2([H])C([H])(C([H])([H])[H])C([H])([H])C34OOC2(C([H])(C([H])([H])[H])C([H])([H])C3([H])[H])C([H])(C([H])([H])C([H])([H])C4([H])C([H])([H])[H])C1([H])C([H])([H])[H]

$$$$
117:0:1
     RDKit          3D

 54 57  0  0  1  0  0  0  0  0999 V2000
    6.1110   -5.6020    1.1008 C   0  0  0  0  0  0  0  0  0  0  0  0
    5.7870   -4.3004    1.8472 C   0  0  2  0  0  0  0  0  0  0  0  0
    5.1784   -4.4093    3.2270 C   0  0  0  0  0  0  0  0  0  0  0  0
    3.6467   -4.3344    3.4824 C   0  0  1  0  0  0  0  0  0  0  0  0
    3.4503   -3.0187    4.3832 C   0  0  0  0  0  0  0  0  0  0  0  0
    3.8581   -1.6282    3.6011 C   0  0  0  0  0  0  0  0  0  0  0  0
    3.4366   -1.4234    2.0403 C   0  0  1  0  0  0  0  0  0  0  0  0
    4.1204   -0.1477    1.4977 C   0  0  0  0  0  0  0  0  0  0  0  0
    3.7254   -2.6986    1.1508 C   0  0  1  0  0  0  0  0  0  0  0  0
    2.6247   -3.3967    1.6403 O   0  0  0  0  0  0  0  0  0  0  0  0
    2.5906   -3.5432    3.0151 O   0  0  0  0  0  0  0  0  0  0  0  0
    3.0289   -3.4185   -0.0615 C   0  0  2  0  0  0  0  0  0  0  0  0
    2.7774   -5.0594    0.0670 C   0  0  0  0  0  0  0  0  0  0  0  0
    2.8195   -5.9862    1.4440 C   0  0  0  0  0  0  0  0  0  0  0  0
    2.8201   -5.5856    3.0152 C   0  0  1  0  0  0  0  0  0  0  0  0
    3.3126   -6.8457    3.7963 C   0  0  0  0  0  0  0  0  0  0  0  0
    3.7949   -3.1010   -1.3871 C   0  0  1  0  0  0  0  0  0  0  0  0
    3.6546   -1.6492   -1.8639 C   0  0  0  0  0  0  0  0  0  0  0  0
    5.2696   -3.5235   -1.2493 C   0  0  1  0  0  0  0  0  0  0  0  0
    6.1313   -3.2355   -2.4858 C   0  0  0  0  0  0  0  0  0  0  0  0
    5.8685   -2.8655   -0.1413 O   0  0  0  0  0  0  0  0  0  0  0  0
    5.2419   -3.0937    1.1201 C   0  0  2  0  0  0  0  0  0  0  0  0
    5.3305   -5.9777    0.4609 H   0  0  0  0  0  0  0  0  0  0  0  0
    6.3891   -6.3982    1.7863 H   0  0  0  0  0  0  0  0  0  0  0  0
    6.9654   -5.4424    0.4451 H   0  0  0  0  0  0  0  0  0  0  0  0
    6.8088   -3.9827    2.0673 H   0  0  0  0  0  0  0  0  0  0  0  0
    5.5107   -5.3470    3.6873 H   0  0  0  0  0  0  0  0  0  0  0  0
    5.6717   -3.6659    3.8466 H   0  0  0  0  0  0  0  0  0  0  0  0
    2.5031   -2.9229    4.9638 H   0  0  0  0  0  0  0  0  0  0  0  0
    4.1378   -3.1344    5.2212 H   0  0  0  0  0  0  0  0  0  0  0  0
    3.4540   -0.8056    4.1788 H   0  0  0  0  0  0  0  0  0  0  0  0
    4.9382   -1.5292    3.6630 H   0  0  0  0  0  0  0  0  0  0  0  0
    2.3570   -1.2256    2.0106 H   0  0  0  0  0  0  0  0  0  0  0  0
    5.1957   -0.2514    1.3790 H   0  0  0  0  0  0  0  0  0  0  0  0
    3.9733    0.6864    2.1796 H   0  0  0  0  0  0  0  0  0  0  0  0
    3.7148    0.1631    0.5345 H   0  0  0  0  0  0  0  0  0  0  0  0
    2.0383   -2.9579   -0.2774 H   0  0  0  0  0  0  0  0  0  0  0  0
    1.7758   -5.2015   -0.3252 H   0  0  0  0  0  0  0  0  0  0  0  0
    3.4251   -5.5460   -0.6288 H   0  0  0  0  0  0  0  0  0  0  0  0
    1.9620   -6.6473    1.3265 H   0  0  0  0  0  0  0  0  0  0  0  0
    3.6325   -6.6968    1.3012 H   0  0  0  0  0  0  0  0  0  0  0  0
    1.7651   -5.4514    3.3156 H   0  0  0  0  0  0  0  0  0  0  0  0
    4.3093   -7.1657    3.4962 H   0  0  0  0  0  0  0  0  0  0  0  0
    2.6765   -7.7171    3.6230 H   0  0  0  0  0  0  0  0  0  0  0  0
    3.3446   -6.6833    4.8666 H   0  0  0  0  0  0  0  0  0  0  0  0
    3.3588   -3.7187   -2.1710 H   0  0  0  0  0  0  0  0  0  0  0  0
    4.2435   -0.9578   -1.2631 H   0  0  0  0  0  0  0  0  0  0  0  0
    2.6221   -1.3165   -1.8570 H   0  0  0  0  0  0  0  0  0  0  0  0
    3.9924   -1.5306   -2.9025 H   0  0  0  0  0  0  0  0  0  0  0  0
    5.3138   -4.5847   -1.1288 H   0  0  0  0  0  0  0  0  0  0  0  0
    5.7301   -3.7288   -3.3641 H   0  0  0  0  0  0  0  0  0  0  0  0
    7.1525   -3.5920   -2.3392 H   0  0  0  0  0  0  0  0  0  0  0  0
    6.1993   -2.1689   -2.6989 H   0  0  0  0  0  0  0  0  0  0  0  0
    5.6889   -2.2926    1.6939 H   0  0  0  0  0  0  0  0  0  0  0  0
  1  2  1  0
  1 23  1  0
  1 24  1  0
  1 25  1  0
  2 22  1  0
  2  3  1  0
  2 26  1  1
  4  3  1  6
  3 27  1  0
  3 28  1  0
  4 11  1  0
  4 15  1  0
  4  5  1  0
  5  6  1  0
  5 29  1  0
  5 30  1  0
  6  7  1  0
  6 31  1  0
  6 32  1  0
  7  8  1  0
  7  9  1  0
  7 33  1  1
  8 34  1  0
  8 35  1  0
  8 36  1  0
  9 22  1  0
  9 10  1  1
  9 12  1  0
 10 11  1  0
 12 13  1  0
 12 17  1  0
 12 37  1  6
 13 14  1  0
 13 38  1  0
 13 39  1  0
 14 15  1  0
 14 40  1  0
 14 41  1  0
 15 16  1  0
 15 42  1  1
 16 43  1  0
 16 44  1  0
 16 45  1  0
 17 18  1  0
 17 19  1  0
 17 46  1  6
 18 47  1  0
 18 48  1  0
 18 49  1  0
 19 20  1  0
 19 21  1  0
 19 50  1  1
 20 51  1  0
 20 52  1  0
 20 53  1  0
 21 22  1  0
 22 54  1  1
M  END
>  <i_m_ct_stereo_status>  (430) 
1

>  <s_m_source_file>  (430) 
/var/tmp/pbs.5076255.sched01/tmp2gi29psn/132an720x3a.sdf

>  <i_m_source_file_index>  (430) 
42

>  <i_lp_mmshare_version>  (430) 
48012

>  <i_f3d_flags>  (430) 
0

>  <s_epik_input>  (430) 
W0NAXTEyM1tDSDJdW0NAQEhdKFtDSDNdKVtDQEBIXTRbQ0BAXShPTzIpKFtDQEhdKFtDSDNdKVtDSDJdW0NIMl0xKVtDQEBIXShbQ0BASF0oW0NIM10pW0NASF0oTzQpW0NIM10pW0NIMl1bQ0gyXVtDQEhdM1tDSDNd

>  <s_epik_cmdline>  (430) 
J2VwaWtfcHl0aG9uJywgJy1waHQnLCAnMi4wJywgJy1waCcsICc3LjAnLCAnLXRuJywgJzgnLCAnLW1hJywgJzIwMCcsICctaW1hZScsICc8aW5maWxlLm1hZT4nLCAnLW9tYWUnLCAnPG91dGZpbGUubWFlPic=

>  <r_lp_tautomer_probability>  (430) 
1

>  <r_epik_Ionization_Penalty>  (430) 
5.04381e-12

>  <r_epik_Ionization_Penalty_Charging>  (430) 
0

>  <r_epik_Ionization_Penalty_Neutral>  (430) 
5.04381e-12

>  <r_epik_State_Penalty>  (430) 
-0

>  <r_epik_Charging_Adjusted_Penalty>  (430) 
0

>  <i_epik_Tot_Q>  (430) 
0

>  <i_epik_Tot_abs_Q>  (430) 
0

>  <s_lp_Force_Field>  (430) 
OPLS3e

>  <r_lp_Energy>  (430) 
257.652

>  <b_lp_Chiralities_Consistent>  (430) 
1

>  <s_lp_Variant>  (430) 
117:0-1

>  <s_i_glide_gridfile>  (430) 
pfpi4k_grid

>  <i_i_glide_lignum>  (430) 
42

>  <i_i_glide_rotatable_bonds>  (430) 
0

>  <r_i_docking_score>  (430) 
-2.92933

>  <r_i_glide_ligand_efficiency>  (430) 
-0.133151

>  <r_i_glide_ligand_efficiency_sa>  (430) 
-0.373095

>  <r_i_glide_ligand_efficiency_ln>  (430) 
-0.716035

>  <r_i_glide_gscore>  (430) 
-2.92933

>  <r_i_glide_lipo>  (430) 
-0.601815

>  <r_i_glide_hbond>  (430) 
0

>  <r_i_glide_metal>  (430) 
-0

>  <r_i_glide_rewards>  (430) 
-1.30598

>  <r_i_glide_evdw>  (430) 
-20.1811

>  <r_i_glide_ecoul>  (430) 
-0.0831677

>  <r_i_glide_erotb>  (430) 
0

>  <r_i_glide_esite>  (430) 
0

>  <r_i_glide_emodel>  (430) 
-24.0983

>  <r_i_glide_energy>  (430) 
-20.2643

>  <r_i_glide_einternal>  (430) 
0

>  <r_i_glide_intrahb_reward>  (430) 
-0

>  <i_i_glide_confnum>  (430) 
2

>  <i_i_glide_posenum>  (430) 
1

>  <r_i_glide_eff_state_penalty>  (430) 
0

>  <ligand_id>  (430) 
117

>  <original_smiles>  (430) 
CC1CC23CCC(C)C4(OO2)C(CCC3C)C(C)C(C)OC14

>  <smiles>  (430) 
[H]C([H])([H])C1([H])OC2([H])C([H])(C([H])([H])[H])C([H])([H])C34OOC2(C([H])(C([H])([H])[H])C([H])([H])C3([H])[H])C([H])(C([H])([H])C([H])([H])C4([H])C([H])([H])[H])C1([H])C([H])([H])[H]

$$$$
117:0:2
     RDKit          3D

 54 57  0  0  1  0  0  0  0  0999 V2000
    3.5700   -1.1627    1.3738 C   0  0  0  0  0  0  0  0  0  0  0  0
    4.9815   -1.6091    0.9479 C   0  0  2  0  0  0  0  0  0  0  0  0
    5.3454   -1.4350   -0.5200 C   0  0  0  0  0  0  0  0  0  0  0  0
    5.2413   -2.6049   -1.5520 C   0  0  1  0  0  0  0  0  0  0  0  0
    6.7369   -2.8870   -2.0009 C   0  0  0  0  0  0  0  0  0  0  0  0
    7.7103   -3.4503   -0.7982 C   0  0  0  0  0  0  0  0  0  0  0  0
    7.1617   -4.5415    0.2561 C   0  0  1  0  0  0  0  0  0  0  0  0
    8.1924   -4.7662    1.3598 C   0  0  0  0  0  0  0  0  0  0  0  0
    5.6740   -4.2290    0.7653 C   0  0  1  0  0  0  0  0  0  0  0  0
    5.0477   -4.5366   -0.3988 O   0  0  0  0  0  0  0  0  0  0  0  0
    5.5359   -3.9569   -1.5170 O   0  0  0  0  0  0  0  0  0  0  0  0
    4.3951   -5.0306    1.1519 C   0  0  2  0  0  0  0  0  0  0  0  0
    2.9426   -4.5389    0.4816 C   0  0  0  0  0  0  0  0  0  0  0  0
    2.7355   -3.5311   -0.8152 C   0  0  0  0  0  0  0  0  0  0  0  0
    3.7589   -2.9885   -1.9662 C   0  0  1  0  0  0  0  0  0  0  0  0
    3.1114   -1.7566   -2.6509 C   0  0  0  0  0  0  0  0  0  0  0  0
    4.2525   -5.1305    2.6956 C   0  0  1  0  0  0  0  0  0  0  0  0
    5.3222   -6.0244    3.3515 C   0  0  0  0  0  0  0  0  0  0  0  0
    4.2356   -3.7126    3.3109 C   0  0  1  0  0  0  0  0  0  0  0  0
    4.1199   -3.6687    4.8402 C   0  0  0  0  0  0  0  0  0  0  0  0
    5.4067   -2.9921    2.9428 O   0  0  0  0  0  0  0  0  0  0  0  0
    5.6221   -2.8403    1.5488 C   0  0  2  0  0  0  0  0  0  0  0  0
    2.8232   -1.9364    1.3442 H   0  0  0  0  0  0  0  0  0  0  0  0
    3.2140   -0.3270    0.7803 H   0  0  0  0  0  0  0  0  0  0  0  0
    3.5976   -0.8308    2.4141 H   0  0  0  0  0  0  0  0  0  0  0  0
    5.5677   -0.7938    1.4090 H   0  0  0  0  0  0  0  0  0  0  0  0
    4.7901   -0.5977   -0.9276 H   0  0  0  0  0  0  0  0  0  0  0  0
    6.3762   -1.0620   -0.5158 H   0  0  0  0  0  0  0  0  0  0  0  0
    6.8877   -3.4417   -2.9398 H   0  0  0  0  0  0  0  0  0  0  0  0
    7.1428   -1.9278   -2.3230 H   0  0  0  0  0  0  0  0  0  0  0  0
    8.6180   -3.8273   -1.2695 H   0  0  0  0  0  0  0  0  0  0  0  0
    8.0455   -2.5843   -0.2247 H   0  0  0  0  0  0  0  0  0  0  0  0
    7.0802   -5.5174   -0.2458 H   0  0  0  0  0  0  0  0  0  0  0  0
    8.2843   -3.9041    2.0116 H   0  0  0  0  0  0  0  0  0  0  0  0
    9.1909   -4.9129    0.9523 H   0  0  0  0  0  0  0  0  0  0  0  0
    7.9739   -5.6311    1.9795 H   0  0  0  0  0  0  0  0  0  0  0  0
    4.5201   -6.1021    0.8707 H   0  0  0  0  0  0  0  0  0  0  0  0
    2.4871   -5.4770    0.1504 H   0  0  0  0  0  0  0  0  0  0  0  0
    2.2878   -4.1781    1.2670 H   0  0  0  0  0  0  0  0  0  0  0  0
    1.9441   -3.9974   -1.3944 H   0  0  0  0  0  0  0  0  0  0  0  0
    2.2089   -2.6578   -0.4470 H   0  0  0  0  0  0  0  0  0  0  0  0
    3.8157   -3.7584   -2.7517 H   0  0  0  0  0  0  0  0  0  0  0  0
    2.8868   -0.9650   -1.9415 H   0  0  0  0  0  0  0  0  0  0  0  0
    2.1443   -2.0156   -3.0953 H   0  0  0  0  0  0  0  0  0  0  0  0
    3.7195   -1.3177   -3.4308 H   0  0  0  0  0  0  0  0  0  0  0  0
    3.2963   -5.5900    2.9068 H   0  0  0  0  0  0  0  0  0  0  0  0
    6.2902   -5.5489    3.3919 H   0  0  0  0  0  0  0  0  0  0  0  0
    5.4238   -6.9789    2.8290 H   0  0  0  0  0  0  0  0  0  0  0  0
    5.0414   -6.2686    4.3802 H   0  0  0  0  0  0  0  0  0  0  0  0
    3.3494   -3.2062    2.9556 H   0  0  0  0  0  0  0  0  0  0  0  0
    3.2415   -4.1996    5.1826 H   0  0  0  0  0  0  0  0  0  0  0  0
    4.0413   -2.6349    5.1899 H   0  0  0  0  0  0  0  0  0  0  0  0
    4.9975   -4.1039    5.3375 H   0  0  0  0  0  0  0  0  0  0  0  0
    6.6587   -2.5495    1.5500 H   0  0  0  0  0  0  0  0  0  0  0  0
  1  2  1  0
  1 23  1  0
  1 24  1  0
  1 25  1  0
  2 22  1  0
  2  3  1  0
  2 26  1  1
  4  3  1  1
  3 27  1  0
  3 28  1  0
  4 11  1  0
  4 15  1  0
  4  5  1  0
  5  6  1  0
  5 29  1  0
  5 30  1  0
  6  7  1  0
  6 31  1  0
  6 32  1  0
  7  8  1  0
  7  9  1  0
  7 33  1  6
  8 34  1  0
  8 35  1  0
  8 36  1  0
  9 22  1  0
  9 10  1  6
  9 12  1  0
 10 11  1  0
 12 13  1  0
 12 17  1  0
 12 37  1  6
 13 14  1  0
 13 38  1  0
 13 39  1  0
 14 15  1  0
 14 40  1  0
 14 41  1  0
 15 16  1  0
 15 42  1  6
 16 43  1  0
 16 44  1  0
 16 45  1  0
 17 18  1  0
 17 19  1  0
 17 46  1  6
 18 47  1  0
 18 48  1  0
 18 49  1  0
 19 20  1  0
 19 21  1  0
 19 50  1  6
 20 51  1  0
 20 52  1  0
 20 53  1  0
 21 22  1  0
 22 54  1  1
M  END
>  <i_m_ct_stereo_status>  (431) 
1

>  <s_m_source_file>  (431) 
/var/tmp/pbs.5076255.sched01/tmp2gi29psn/132an720x3a.sdf

>  <i_m_source_file_index>  (431) 
42

>  <i_lp_mmshare_version>  (431) 
48012

>  <i_f3d_flags>  (431) 
0

>  <s_epik_input>  (431) 
W0NAXTEyM1tDSDJdW0NAQEhdKFtDSDNdKVtDQEBIXTRbQ0BAXShPTzIpKFtDQEhdKFtDSDNdKVtDSDJdW0NIMl0xKVtDQEBIXShbQ0BASF0oW0NIM10pW0NASF0oTzQpW0NIM10pW0NIMl1bQ0gyXVtDQEhdM1tDSDNd

>  <s_epik_cmdline>  (431) 
J2VwaWtfcHl0aG9uJywgJy1waHQnLCAnMi4wJywgJy1waCcsICc3LjAnLCAnLXRuJywgJzgnLCAnLW1hJywgJzIwMCcsICctaW1hZScsICc8aW5maWxlLm1hZT4nLCAnLW9tYWUnLCAnPG91dGZpbGUubWFlPic=

>  <r_lp_tautomer_probability>  (431) 
1

>  <r_epik_Ionization_Penalty>  (431) 
5.04381e-12

>  <r_epik_Ionization_Penalty_Charging>  (431) 
0

>  <r_epik_Ionization_Penalty_Neutral>  (431) 
5.04381e-12

>  <r_epik_State_Penalty>  (431) 
-0

>  <r_epik_Charging_Adjusted_Penalty>  (431) 
0

>  <i_epik_Tot_Q>  (431) 
0

>  <i_epik_Tot_abs_Q>  (431) 
0

>  <s_lp_Force_Field>  (431) 
OPLS3e

>  <r_lp_Energy>  (431) 
257.652

>  <b_lp_Chiralities_Consistent>  (431) 
1

>  <s_lp_Variant>  (431) 
117:0-1

>  <s_i_glide_gridfile>  (431) 
pfpi4k_grid

>  <i_i_glide_lignum>  (431) 
42

>  <i_i_glide_rotatable_bonds>  (431) 
0

>  <r_i_docking_score>  (431) 
-2.90263

>  <r_i_glide_ligand_efficiency>  (431) 
-0.131938

>  <r_i_glide_ligand_efficiency_sa>  (431) 
-0.369694

>  <r_i_glide_ligand_efficiency_ln>  (431) 
-0.709508

>  <r_i_glide_gscore>  (431) 
-2.90263

>  <r_i_glide_lipo>  (431) 
-0.593362

>  <r_i_glide_hbond>  (431) 
0

>  <r_i_glide_metal>  (431) 
-0

>  <r_i_glide_rewards>  (431) 
-1.30598

>  <r_i_glide_evdw>  (431) 
-21.7058

>  <r_i_glide_ecoul>  (431) 
0.546742

>  <r_i_glide_erotb>  (431) 
0

>  <r_i_glide_esite>  (431) 
0

>  <r_i_glide_emodel>  (431) 
-24.9701

>  <r_i_glide_energy>  (431) 
-21.1591

>  <r_i_glide_einternal>  (431) 
0

>  <r_i_glide_intrahb_reward>  (431) 
-0

>  <i_i_glide_confnum>  (431) 
2

>  <i_i_glide_posenum>  (431) 
8

>  <r_i_glide_eff_state_penalty>  (431) 
0

>  <ligand_id>  (431) 
117

>  <original_smiles>  (431) 
CC1CC23CCC(C)C4(OO2)C(CCC3C)C(C)C(C)OC14

>  <smiles>  (431) 
[H]C([H])([H])C1([H])OC2([H])C([H])(C([H])([H])[H])C([H])([H])C34OOC2(C([H])(C([H])([H])[H])C([H])([H])C3([H])[H])C([H])(C([H])([H])C([H])([H])C4([H])C([H])([H])[H])C1([H])C([H])([H])[H]

$$$$
118:0:0
     RDKit          3D

 66 70  0  0  1  0  0  0  0  0999 V2000
    5.4707   -0.1006    4.1162 C   0  0  0  0  0  0  0  0  0  0  0  0
    4.7808   -1.4660    3.8306 C   0  0  0  0  0  0  0  0  0  0  0  0
    4.3965   -2.1311    5.1631 C   0  0  0  0  0  0  0  0  0  0  0  0
    3.6527   -1.2380    3.0446 O   0  0  0  0  0  0  0  0  0  0  0  0
    4.0947   -1.3510    1.6986 C   0  0  2  0  0  0  0  0  0  0  0  0
    3.2579   -2.3465    0.8516 C   0  0  1  0  0  0  0  0  0  0  0  0
    3.0190   -1.7088   -0.3945 O   0  0  0  0  0  0  0  0  0  0  0  0
    4.0868   -3.6604    0.6629 C   0  0  2  0  0  0  0  0  0  0  0  0
    3.8231   -4.2579   -0.7441 C   0  0  0  0  0  0  0  0  0  0  0  0
    3.6794   -4.8870    1.5813 C   0  0  2  0  0  0  0  0  0  0  0  0
    2.8739   -4.7142    2.8767 C   0  0  0  0  0  0  0  0  0  0  0  0
    2.4356   -3.6517    3.2861 O   0  0  0  0  0  0  0  0  0  0  0  0
    2.3960   -6.0017    3.5398 C   0  0  0  0  0  0  0  0  0  0  0  0
    3.4711   -7.1100    3.7033 C   0  0  1  0  0  0  0  0  0  0  0  0
    2.7885   -8.4197    4.2677 C   0  0  0  0  0  0  0  0  0  0  0  0
    3.8069   -9.3959    4.9140 C   0  0  0  0  0  0  0  0  0  0  0  0
    1.7682   -8.0788    5.3919 C   0  0  0  0  0  0  0  0  0  0  0  0
    2.0581   -9.1421    3.1080 C   0  0  0  0  0  0  0  0  0  0  0  0
    0.9066   -9.5446    3.2114 O   0  0  0  0  0  0  0  0  0  0  0  0
    2.8394   -9.3503    1.8160 C   0  0  0  0  0  0  0  0  0  0  0  0
    3.4698   -8.0321    1.3234 C   0  0  0  0  0  0  0  0  0  0  0  0
    4.3321   -7.2962    2.3928 C   0  0  2  0  0  0  0  0  0  0  0  0
    5.5848   -8.1907    2.6434 C   0  0  0  0  0  0  0  0  0  0  0  0
    4.7910   -5.9081    1.8655 C   0  0  0  0  0  0  0  0  0  0  0  0
    6.0948   -5.5745    1.7199 C   0  0  0  0  0  0  0  0  0  0  0  0
    6.5653   -4.2790    1.2633 C   0  0  0  0  0  0  0  0  0  0  0  0
    7.7748   -4.0285    1.2243 O   0  0  0  0  0  0  0  0  0  0  0  0
    5.5734   -3.1852    0.7909 C   0  0  1  0  0  0  0  0  0  0  0  0
    6.1625   -2.6861   -0.5857 C   0  0  0  0  0  0  0  0  0  0  0  0
    5.5057   -1.9609    1.7697 C   0  0  1  0  0  0  0  0  0  0  0  0
    6.5063   -1.0270    1.4555 O   0  0  0  0  0  0  0  0  0  0  0  0
    5.5897   -2.3327    3.1007 O   0  0  0  0  0  0  0  0  0  0  0  0
    5.5215    0.5361    3.2348 H   0  0  0  0  0  0  0  0  0  0  0  0
    6.4813   -0.2345    4.5067 H   0  0  0  0  0  0  0  0  0  0  0  0
    4.9082    0.4425    4.8761 H   0  0  0  0  0  0  0  0  0  0  0  0
    3.5758   -1.5889    5.6293 H   0  0  0  0  0  0  0  0  0  0  0  0
    5.2472   -2.1024    5.8475 H   0  0  0  0  0  0  0  0  0  0  0  0
    4.1144   -3.1720    5.0366 H   0  0  0  0  0  0  0  0  0  0  0  0
    4.1352   -0.3545    1.2604 H   0  0  0  0  0  0  0  0  0  0  0  0
    2.2464   -2.5059    1.2290 H   0  0  0  0  0  0  0  0  0  0  0  0
    2.0661   -1.4413   -0.4663 H   0  0  0  0  0  0  0  0  0  0  0  0
    4.4196   -5.1481   -0.9081 H   0  0  0  0  0  0  0  0  0  0  0  0
    4.0221   -3.5959   -1.5942 H   0  0  0  0  0  0  0  0  0  0  0  0
    2.7789   -4.5419   -0.8557 H   0  0  0  0  0  0  0  0  0  0  0  0
    2.9385   -5.4201    1.0003 H   0  0  0  0  0  0  0  0  0  0  0  0
    1.9989   -5.7092    4.5105 H   0  0  0  0  0  0  0  0  0  0  0  0
    1.5480   -6.3557    2.9579 H   0  0  0  0  0  0  0  0  0  0  0  0
    4.1468   -6.7393    4.4732 H   0  0  0  0  0  0  0  0  0  0  0  0
    4.7122   -8.8825    5.2389 H   0  0  0  0  0  0  0  0  0  0  0  0
    4.1065  -10.2029    4.2476 H   0  0  0  0  0  0  0  0  0  0  0  0
    3.4065   -9.9059    5.7941 H   0  0  0  0  0  0  0  0  0  0  0  0
    2.2201   -7.4506    6.1641 H   0  0  0  0  0  0  0  0  0  0  0  0
    1.3804   -8.9745    5.8877 H   0  0  0  0  0  0  0  0  0  0  0  0
    0.8877   -7.5567    5.0162 H   0  0  0  0  0  0  0  0  0  0  0  0
    3.5970  -10.1143    1.9783 H   0  0  0  0  0  0  0  0  0  0  0  0
    2.1704   -9.7529    1.0565 H   0  0  0  0  0  0  0  0  0  0  0  0
    4.0817   -8.2372    0.4397 H   0  0  0  0  0  0  0  0  0  0  0  0
    2.6429   -7.4081    0.9748 H   0  0  0  0  0  0  0  0  0  0  0  0
    5.3549   -9.2220    2.8613 H   0  0  0  0  0  0  0  0  0  0  0  0
    6.1928   -7.8077    3.4585 H   0  0  0  0  0  0  0  0  0  0  0  0
    6.2046   -8.2585    1.7525 H   0  0  0  0  0  0  0  0  0  0  0  0
    6.9024   -6.2639    1.9282 H   0  0  0  0  0  0  0  0  0  0  0  0
    5.5611   -1.8989   -1.0439 H   0  0  0  0  0  0  0  0  0  0  0  0
    6.2600   -3.4925   -1.3156 H   0  0  0  0  0  0  0  0  0  0  0  0
    7.1793   -2.2854   -0.5086 H   0  0  0  0  0  0  0  0  0  0  0  0
    6.3807   -0.2699    2.0237 H   0  0  0  0  0  0  0  0  0  0  0  0
  1  2  1  0
  1 33  1  0
  1 34  1  0
  1 35  1  0
  2 32  1  0
  2  3  1  0
  2  4  1  0
  3 36  1  0
  3 37  1  0
  3 38  1  0
  4  5  1  0
  5 30  1  0
  5  6  1  0
  5 39  1  6
  6  7  1  0
  6  8  1  0
  6 40  1  1
  7 41  1  0
  8 28  1  0
  8  9  1  6
  8 10  1  0
  9 42  1  0
  9 43  1  0
  9 44  1  0
 10 24  1  0
 10 11  1  0
 10 45  1  6
 11 12  2  0
 11 13  1  0
 13 14  1  0
 13 46  1  0
 13 47  1  0
 14 22  1  0
 14 15  1  0
 14 48  1  1
 15 16  1  0
 15 17  1  0
 15 18  1  0
 16 49  1  0
 16 50  1  0
 16 51  1  0
 17 52  1  0
 17 53  1  0
 17 54  1  0
 18 19  2  0
 18 20  1  0
 20 21  1  0
 20 55  1  0
 20 56  1  0
 21 22  1  0
 21 57  1  0
 21 58  1  0
 22 23  1  1
 22 24  1  0
 23 59  1  0
 23 60  1  0
 23 61  1  0
 24 25  2  0
 25 26  1  0
 25 62  1  0
 26 27  2  0
 26 28  1  0
 28 29  1  6
 28 30  1  0
 29 63  1  0
 29 64  1  0
 29 65  1  0
 30 31  1  6
 30 32  1  0
 31 66  1  0
M  END
>  <i_m_ct_stereo_status>  (432) 
1

>  <s_m_source_file>  (432) 
/var/tmp/pbs.5076255.sched01/tmp2gi29psn/132an720x3a.sdf

>  <i_m_source_file_index>  (432) 
43

>  <i_lp_mmshare_version>  (432) 
48012

>  <i_f3d_flags>  (432) 
0

>  <s_epik_input>  (432) 
W0NIM11DKE8xKShbQ0gzXSlPW0NASF0oW0NASF0yW09IXSlbQ0BdMShbT0hdKVtDQEBdMyhbQ0gzXSlDKD1PKVtDSF09QyhbQ0BASF00W0NAQF0yM1tDSDNdKVtDQEBdNShbQ0gzXSlbQ0BASF0oW0NIMl1DND1PKUMoW0NIM10pKFtDSDNdKUMoPU8pW0NIMl1bQ0gyXTU=

>  <s_epik_cmdline>  (432) 
J2VwaWtfcHl0aG9uJywgJy1waHQnLCAnMi4wJywgJy1waCcsICc3LjAnLCAnLXRuJywgJzgnLCAnLW1hJywgJzIwMCcsICctaW1hZScsICc8aW5maWxlLm1hZT4nLCAnLW9tYWUnLCAnPG91dGZpbGUubWFlPic=

>  <r_lp_tautomer_probability>  (432) 
1

>  <r_epik_Ionization_Penalty>  (432) 
0.000102607

>  <r_epik_Ionization_Penalty_Charging>  (432) 
0

>  <r_epik_Ionization_Penalty_Neutral>  (432) 
0.000102607

>  <r_epik_State_Penalty>  (432) 
-0

>  <r_epik_Charging_Adjusted_Penalty>  (432) 
0

>  <i_epik_Tot_Q>  (432) 
0

>  <i_epik_Tot_abs_Q>  (432) 
0

>  <s_lp_Force_Field>  (432) 
OPLS3e

>  <r_lp_Energy>  (432) 
61.7218

>  <b_lp_Chiralities_Consistent>  (432) 
1

>  <s_lp_Variant>  (432) 
118:0-1

>  <s_i_glide_gridfile>  (432) 
pfpi4k_grid

>  <i_i_glide_lignum>  (432) 
43

>  <i_i_glide_rotatable_bonds>  (432) 
2

>  <r_i_docking_score>  (432) 
-3.29791

>  <r_i_glide_ligand_efficiency>  (432) 
-0.10306

>  <r_i_glide_ligand_efficiency_sa>  (432) 
-0.327194

>  <r_i_glide_ligand_efficiency_ln>  (432) 
-0.738492

>  <r_i_glide_gscore>  (432) 
-3.29791

>  <r_i_glide_lipo>  (432) 
-0.289469

>  <r_i_glide_hbond>  (432) 
-0.128438

>  <r_i_glide_metal>  (432) 
-0

>  <r_i_glide_rewards>  (432) 
-0.685087

>  <r_i_glide_evdw>  (432) 
-21.5133

>  <r_i_glide_ecoul>  (432) 
-7.43317

>  <r_i_glide_erotb>  (432) 
0

>  <r_i_glide_esite>  (432) 
-0.00427627

>  <r_i_glide_emodel>  (432) 
-34.1927

>  <r_i_glide_energy>  (432) 
-28.9465

>  <r_i_glide_einternal>  (432) 
1.61296

>  <r_i_glide_intrahb_reward>  (432) 
-0

>  <i_i_glide_confnum>  (432) 
2

>  <i_i_glide_posenum>  (432) 
36

>  <r_i_glide_eff_state_penalty>  (432) 
0

>  <ligand_id>  (432) 
118

>  <original_smiles>  (432) 
CC1(C)OC2C(O)C3(C)C4C(=O)CC5C(C)(C)C(=O)CCC5(C)C4=CC(=O)C3(C)C2(O)O1

>  <smiles>  (432) 
[H]OC1([H])C2([H])OC(C([H])([H])[H])(C([H])([H])[H])OC2(O[H])C2(C([H])([H])[H])C(=O)C([H])=C3C([H])(C(=O)C([H])([H])C4([H])C(C([H])([H])[H])(C([H])([H])[H])C(=O)C([H])([H])C([H])([H])C34C([H])([H])[H])C12C([H])([H])[H]

$$$$
118:0:1
     RDKit          3D

 66 70  0  0  1  0  0  0  0  0999 V2000
    3.6388    0.5215    3.3381 C   0  0  0  0  0  0  0  0  0  0  0  0
    3.9468   -0.9949    3.3095 C   0  0  0  0  0  0  0  0  0  0  0  0
    4.2285   -1.4704    4.7472 C   0  0  0  0  0  0  0  0  0  0  0  0
    2.8578   -1.6690    2.7741 O   0  0  0  0  0  0  0  0  0  0  0  0
    3.1126   -1.7504    1.3744 C   0  0  2  0  0  0  0  0  0  0  0  0
    2.9969   -3.1783    0.7821 C   0  0  1  0  0  0  0  0  0  0  0  0
    2.2606   -3.0622   -0.4269 O   0  0  0  0  0  0  0  0  0  0  0  0
    4.4460   -3.7409    0.5416 C   0  0  2  0  0  0  0  0  0  0  0  0
    4.4875   -4.6569   -0.7138 C   0  0  0  0  0  0  0  0  0  0  0  0
    5.0124   -4.7461    1.6388 C   0  0  2  0  0  0  0  0  0  0  0  0
    4.4433   -4.8388    3.0589 C   0  0  0  0  0  0  0  0  0  0  0  0
    3.4928   -4.1909    3.4687 O   0  0  0  0  0  0  0  0  0  0  0  0
    4.9715   -5.9750    3.9187 C   0  0  0  0  0  0  0  0  0  0  0  0
    6.5176   -6.1404    3.9426 C   0  0  1  0  0  0  0  0  0  0  0  0
    6.8914   -7.4458    4.7542 C   0  0  0  0  0  0  0  0  0  0  0  0
    8.3649   -7.4436    5.2454 C   0  0  0  0  0  0  0  0  0  0  0  0
    6.0257   -7.5796    6.0414 C   0  0  0  0  0  0  0  0  0  0  0  0
    6.6628   -8.6754    3.8511 C   0  0  0  0  0  0  0  0  0  0  0  0
    6.0718   -9.6804    4.2426 O   0  0  0  0  0  0  0  0  0  0  0  0
    7.2349   -8.6189    2.4412 C   0  0  0  0  0  0  0  0  0  0  0  0
    6.8206   -7.3355    1.7082 C   0  0  0  0  0  0  0  0  0  0  0  0
    7.1366   -6.0339    2.4916 C   0  0  2  0  0  0  0  0  0  0  0  0
    8.6841   -5.9020    2.5435 C   0  0  0  0  0  0  0  0  0  0  0  0
    6.5375   -4.8012    1.7406 C   0  0  0  0  0  0  0  0  0  0  0  0
    7.3092   -3.7958    1.2650 C   0  0  0  0  0  0  0  0  0  0  0  0
    6.7835   -2.5756    0.6436 C   0  0  0  0  0  0  0  0  0  0  0  0
    7.5426   -1.6425    0.3623 O   0  0  0  0  0  0  0  0  0  0  0  0
    5.2982   -2.4299    0.3251 C   0  0  1  0  0  0  0  0  0  0  0  0
    5.2601   -1.9699   -1.1825 C   0  0  0  0  0  0  0  0  0  0  0  0
    4.5737   -1.3279    1.1894 C   0  0  1  0  0  0  0  0  0  0  0  0
    4.6402   -0.0496    0.5921 O   0  0  0  0  0  0  0  0  0  0  0  0
    5.0440   -1.2818    2.4975 O   0  0  0  0  0  0  0  0  0  0  0  0
    3.1821    0.8761    2.4104 H   0  0  0  0  0  0  0  0  0  0  0  0
    4.5664    1.0639    3.5206 H   0  0  0  0  0  0  0  0  0  0  0  0
    2.9438    0.7512    4.1474 H   0  0  0  0  0  0  0  0  0  0  0  0
    3.3053   -1.4596    5.3271 H   0  0  0  0  0  0  0  0  0  0  0  0
    4.9360   -0.7931    5.2237 H   0  0  0  0  0  0  0  0  0  0  0  0
    4.6549   -2.4697    4.7712 H   0  0  0  0  0  0  0  0  0  0  0  0
    2.4512   -1.0427    0.8734 H   0  0  0  0  0  0  0  0  0  0  0  0
    2.3797   -3.8351    1.3949 H   0  0  0  0  0  0  0  0  0  0  0  0
    1.8696   -2.1846   -0.5034 H   0  0  0  0  0  0  0  0  0  0  0  0
    5.4916   -5.0150   -0.9244 H   0  0  0  0  0  0  0  0  0  0  0  0
    4.1149   -4.1998   -1.6282 H   0  0  0  0  0  0  0  0  0  0  0  0
    3.8611   -5.5291   -0.5660 H   0  0  0  0  0  0  0  0  0  0  0  0
    4.7144   -5.7253    1.2859 H   0  0  0  0  0  0  0  0  0  0  0  0
    4.5927   -5.8036    4.9311 H   0  0  0  0  0  0  0  0  0  0  0  0
    4.4858   -6.8890    3.5686 H   0  0  0  0  0  0  0  0  0  0  0  0
    6.8840   -5.2885    4.5181 H   0  0  0  0  0  0  0  0  0  0  0  0
    8.7645   -6.4319    5.3220 H   0  0  0  0  0  0  0  0  0  0  0  0
    9.0290   -8.0169    4.6005 H   0  0  0  0  0  0  0  0  0  0  0  0
    8.4786   -7.8984    6.2325 H   0  0  0  0  0  0  0  0  0  0  0  0
    6.0625   -6.6680    6.6419 H   0  0  0  0  0  0  0  0  0  0  0  0
    6.3590   -8.4048    6.6762 H   0  0  0  0  0  0  0  0  0  0  0  0
    4.9786   -7.7922    5.8195 H   0  0  0  0  0  0  0  0  0  0  0  0
    8.3177   -8.6804    2.5056 H   0  0  0  0  0  0  0  0  0  0  0  0
    6.9034   -9.4930    1.8811 H   0  0  0  0  0  0  0  0  0  0  0  0
    7.3384   -7.2952    0.7485 H   0  0  0  0  0  0  0  0  0  0  0  0
    5.7582   -7.4327    1.4846 H   0  0  0  0  0  0  0  0  0  0  0  0
    9.1964   -6.7858    2.9005 H   0  0  0  0  0  0  0  0  0  0  0  0
    8.9983   -5.0695    3.1742 H   0  0  0  0  0  0  0  0  0  0  0  0
    9.1075   -5.7578    1.5496 H   0  0  0  0  0  0  0  0  0  0  0  0
    8.3808   -3.7921    1.3495 H   0  0  0  0  0  0  0  0  0  0  0  0
    4.2446   -1.8284   -1.5618 H   0  0  0  0  0  0  0  0  0  0  0  0
    5.7673   -2.6809   -1.8396 H   0  0  0  0  0  0  0  0  0  0  0  0
    5.7846   -1.0257   -1.3514 H   0  0  0  0  0  0  0  0  0  0  0  0
    3.9645    0.4886    0.9797 H   0  0  0  0  0  0  0  0  0  0  0  0
  1  2  1  0
  1 33  1  0
  1 34  1  0
  1 35  1  0
  2 32  1  0
  2  3  1  0
  2  4  1  0
  3 36  1  0
  3 37  1  0
  3 38  1  0
  4  5  1  0
  5 30  1  0
  5  6  1  0
  5 39  1  6
  6  7  1  0
  6  8  1  0
  6 40  1  1
  7 41  1  0
  8 28  1  0
  8  9  1  6
  8 10  1  0
  9 42  1  0
  9 43  1  0
  9 44  1  0
 10 24  1  0
 10 11  1  0
 10 45  1  6
 11 12  2  0
 11 13  1  0
 13 14  1  0
 13 46  1  0
 13 47  1  0
 14 22  1  0
 14 15  1  0
 14 48  1  1
 15 16  1  0
 15 17  1  0
 15 18  1  0
 16 49  1  0
 16 50  1  0
 16 51  1  0
 17 52  1  0
 17 53  1  0
 17 54  1  0
 18 19  2  0
 18 20  1  0
 20 21  1  0
 20 55  1  0
 20 56  1  0
 21 22  1  0
 21 57  1  0
 21 58  1  0
 22 23  1  1
 22 24  1  0
 23 59  1  0
 23 60  1  0
 23 61  1  0
 24 25  2  0
 25 26  1  0
 25 62  1  0
 26 27  2  0
 26 28  1  0
 28 29  1  6
 28 30  1  0
 29 63  1  0
 29 64  1  0
 29 65  1  0
 30 31  1  6
 30 32  1  0
 31 66  1  0
M  END
>  <i_m_ct_stereo_status>  (433) 
1

>  <s_m_source_file>  (433) 
/var/tmp/pbs.5076255.sched01/tmp2gi29psn/132an720x3a.sdf

>  <i_m_source_file_index>  (433) 
43

>  <i_lp_mmshare_version>  (433) 
48012

>  <i_f3d_flags>  (433) 
0

>  <s_epik_input>  (433) 
W0NIM11DKE8xKShbQ0gzXSlPW0NASF0oW0NASF0yW09IXSlbQ0BdMShbT0hdKVtDQEBdMyhbQ0gzXSlDKD1PKVtDSF09QyhbQ0BASF00W0NAQF0yM1tDSDNdKVtDQEBdNShbQ0gzXSlbQ0BASF0oW0NIMl1DND1PKUMoW0NIM10pKFtDSDNdKUMoPU8pW0NIMl1bQ0gyXTU=

>  <s_epik_cmdline>  (433) 
J2VwaWtfcHl0aG9uJywgJy1waHQnLCAnMi4wJywgJy1waCcsICc3LjAnLCAnLXRuJywgJzgnLCAnLW1hJywgJzIwMCcsICctaW1hZScsICc8aW5maWxlLm1hZT4nLCAnLW9tYWUnLCAnPG91dGZpbGUubWFlPic=

>  <r_lp_tautomer_probability>  (433) 
1

>  <r_epik_Ionization_Penalty>  (433) 
0.000102607

>  <r_epik_Ionization_Penalty_Charging>  (433) 
0

>  <r_epik_Ionization_Penalty_Neutral>  (433) 
0.000102607

>  <r_epik_State_Penalty>  (433) 
-0

>  <r_epik_Charging_Adjusted_Penalty>  (433) 
0

>  <i_epik_Tot_Q>  (433) 
0

>  <i_epik_Tot_abs_Q>  (433) 
0

>  <s_lp_Force_Field>  (433) 
OPLS3e

>  <r_lp_Energy>  (433) 
61.7218

>  <b_lp_Chiralities_Consistent>  (433) 
1

>  <s_lp_Variant>  (433) 
118:0-1

>  <s_i_glide_gridfile>  (433) 
pfpi4k_grid

>  <i_i_glide_lignum>  (433) 
43

>  <i_i_glide_rotatable_bonds>  (433) 
2

>  <r_i_docking_score>  (433) 
-2.87759

>  <r_i_glide_ligand_efficiency>  (433) 
-0.0899246

>  <r_i_glide_ligand_efficiency_sa>  (433) 
-0.285493

>  <r_i_glide_ligand_efficiency_ln>  (433) 
-0.64437

>  <r_i_glide_gscore>  (433) 
-2.87759

>  <r_i_glide_lipo>  (433) 
-0.392949

>  <r_i_glide_hbond>  (433) 
-0.216203

>  <r_i_glide_metal>  (433) 
-0

>  <r_i_glide_rewards>  (433) 
-0.551744

>  <r_i_glide_evdw>  (433) 
-22.4655

>  <r_i_glide_ecoul>  (433) 
-3.95611

>  <r_i_glide_erotb>  (433) 
0

>  <r_i_glide_esite>  (433) 
0

>  <r_i_glide_emodel>  (433) 
-30.754

>  <r_i_glide_energy>  (433) 
-26.4216

>  <r_i_glide_einternal>  (433) 
1.63822

>  <r_i_glide_intrahb_reward>  (433) 
-0

>  <i_i_glide_confnum>  (433) 
1

>  <i_i_glide_posenum>  (433) 
1

>  <r_i_glide_eff_state_penalty>  (433) 
0

>  <ligand_id>  (433) 
118

>  <original_smiles>  (433) 
CC1(C)OC2C(O)C3(C)C4C(=O)CC5C(C)(C)C(=O)CCC5(C)C4=CC(=O)C3(C)C2(O)O1

>  <smiles>  (433) 
[H]OC1([H])C2([H])OC(C([H])([H])[H])(C([H])([H])[H])OC2(O[H])C2(C([H])([H])[H])C(=O)C([H])=C3C([H])(C(=O)C([H])([H])C4([H])C(C([H])([H])[H])(C([H])([H])[H])C(=O)C([H])([H])C([H])([H])C34C([H])([H])[H])C12C([H])([H])[H]

$$$$
118:0:2
     RDKit          3D

 66 70  0  0  1  0  0  0  0  0999 V2000
   -1.0635   -9.0414    3.2760 C   0  0  0  0  0  0  0  0  0  0  0  0
   -0.0781   -7.8790    3.0230 C   0  0  0  0  0  0  0  0  0  0  0  0
   -0.4184   -7.2070    1.6881 C   0  0  0  0  0  0  0  0  0  0  0  0
   -0.1747   -6.9640    4.0659 O   0  0  0  0  0  0  0  0  0  0  0  0
    0.7955   -7.3732    5.0290 C   0  0  2  0  0  0  0  0  0  0  0  0
    1.7721   -6.2478    5.4748 C   0  0  1  0  0  0  0  0  0  0  0  0
    1.8497   -6.3190    6.8859 O   0  0  0  0  0  0  0  0  0  0  0  0
    3.1597   -6.4727    4.7700 C   0  0  2  0  0  0  0  0  0  0  0  0
    4.3345   -6.0227    5.7038 C   0  0  0  0  0  0  0  0  0  0  0  0
    3.4529   -5.5743    3.4847 C   0  0  2  0  0  0  0  0  0  0  0  0
    2.3486   -4.8657    2.6982 C   0  0  0  0  0  0  0  0  0  0  0  0
    1.1606   -4.9222    2.9676 O   0  0  0  0  0  0  0  0  0  0  0  0
    2.8166   -3.8926    1.6217 C   0  0  0  0  0  0  0  0  0  0  0  0
    3.9119   -4.4307    0.6559 C   0  0  1  0  0  0  0  0  0  0  0  0
    4.4050   -3.2646   -0.3004 C   0  0  0  0  0  0  0  0  0  0  0  0
    5.1222   -3.7827   -1.5732 C   0  0  0  0  0  0  0  0  0  0  0  0
    3.2054   -2.4331   -0.8135 C   0  0  0  0  0  0  0  0  0  0  0  0
    5.3737   -2.3453    0.4802 C   0  0  0  0  0  0  0  0  0  0  0  0
    5.2929   -1.1179    0.4561 O   0  0  0  0  0  0  0  0  0  0  0  0
    6.4853   -3.0310    1.2663 C   0  0  0  0  0  0  0  0  0  0  0  0
    5.9313   -4.1445    2.1764 C   0  0  0  0  0  0  0  0  0  0  0  0
    5.0471   -5.1828    1.4463 C   0  0  2  0  0  0  0  0  0  0  0  0
    5.9820   -5.9510    0.4905 C   0  0  0  0  0  0  0  0  0  0  0  0
    4.4173   -6.1845    2.4655 C   0  0  0  0  0  0  0  0  0  0  0  0
    4.6510   -7.5181    2.4256 C   0  0  0  0  0  0  0  0  0  0  0  0
    4.0460   -8.4922    3.3292 C   0  0  0  0  0  0  0  0  0  0  0  0
    4.2397   -9.6941    3.1577 O   0  0  0  0  0  0  0  0  0  0  0  0
    3.1675   -8.0353    4.5100 C   0  0  1  0  0  0  0  0  0  0  0  0
    3.7280   -8.8097    5.7582 C   0  0  0  0  0  0  0  0  0  0  0  0
    1.6551   -8.4340    4.3240 C   0  0  1  0  0  0  0  0  0  0  0  0
    1.3732   -9.7266    4.8377 O   0  0  0  0  0  0  0  0  0  0  0  0
    1.2392   -8.3225    3.0007 O   0  0  0  0  0  0  0  0  0  0  0  0
   -1.0295   -9.3663    4.3118 H   0  0  0  0  0  0  0  0  0  0  0  0
   -0.8214   -9.8834    2.6249 H   0  0  0  0  0  0  0  0  0  0  0  0
   -2.0868   -8.7193    3.0689 H   0  0  0  0  0  0  0  0  0  0  0  0
   -1.3534   -6.6591    1.7966 H   0  0  0  0  0  0  0  0  0  0  0  0
   -0.5613   -7.9625    0.9184 H   0  0  0  0  0  0  0  0  0  0  0  0
    0.3704   -6.5406    1.3495 H   0  0  0  0  0  0  0  0  0  0  0  0
    0.2659   -7.8179    5.8780 H   0  0  0  0  0  0  0  0  0  0  0  0
    1.3684   -5.2510    5.3160 H   0  0  0  0  0  0  0  0  0  0  0  0
    2.1665   -7.1806    7.1259 H   0  0  0  0  0  0  0  0  0  0  0  0
    5.3020   -6.2215    5.2437 H   0  0  0  0  0  0  0  0  0  0  0  0
    4.3490   -6.4993    6.6813 H   0  0  0  0  0  0  0  0  0  0  0  0
    4.2884   -4.9552    5.9121 H   0  0  0  0  0  0  0  0  0  0  0  0
    3.9555   -4.7006    3.8798 H   0  0  0  0  0  0  0  0  0  0  0  0
    1.9331   -3.6043    1.0528 H   0  0  0  0  0  0  0  0  0  0  0  0
    3.1572   -2.9918    2.1337 H   0  0  0  0  0  0  0  0  0  0  0  0
    3.4138   -5.1718    0.0287 H   0  0  0  0  0  0  0  0  0  0  0  0
    4.8298   -4.8047   -1.8056 H   0  0  0  0  0  0  0  0  0  0  0  0
    6.2079   -3.7527   -1.4930 H   0  0  0  0  0  0  0  0  0  0  0  0
    4.8894   -3.1852   -2.4533 H   0  0  0  0  0  0  0  0  0  0  0  0
    2.4392   -3.0709   -1.2568 H   0  0  0  0  0  0  0  0  0  0  0  0
    3.5011   -1.7004   -1.5666 H   0  0  0  0  0  0  0  0  0  0  0  0
    2.7356   -1.8547   -0.0152 H   0  0  0  0  0  0  0  0  0  0  0  0
    7.2230   -3.4147    0.5646 H   0  0  0  0  0  0  0  0  0  0  0  0
    6.9975   -2.2754    1.8570 H   0  0  0  0  0  0  0  0  0  0  0  0
    6.7594   -4.6726    2.6460 H   0  0  0  0  0  0  0  0  0  0  0  0
    5.4017   -3.6478    2.9861 H   0  0  0  0  0  0  0  0  0  0  0  0
    6.5849   -5.3191   -0.1463 H   0  0  0  0  0  0  0  0  0  0  0  0
    5.4017   -6.6241   -0.1431 H   0  0  0  0  0  0  0  0  0  0  0  0
    6.7243   -6.5364    1.0349 H   0  0  0  0  0  0  0  0  0  0  0  0
    5.3118   -7.9701    1.7043 H   0  0  0  0  0  0  0  0  0  0  0  0
    3.1844   -8.5911    6.6787 H   0  0  0  0  0  0  0  0  0  0  0  0
    4.7846   -8.5953    5.9340 H   0  0  0  0  0  0  0  0  0  0  0  0
    3.6898   -9.8935    5.6343 H   0  0  0  0  0  0  0  0  0  0  0  0
    0.4350   -9.8659    4.8345 H   0  0  0  0  0  0  0  0  0  0  0  0
  1  2  1  0
  1 33  1  0
  1 34  1  0
  1 35  1  0
  2 32  1  0
  2  3  1  0
  2  4  1  0
  3 36  1  0
  3 37  1  0
  3 38  1  0
  4  5  1  0
  5 30  1  0
  5  6  1  0
  5 39  1  1
  6  7  1  0
  6  8  1  0
  6 40  1  1
  7 41  1  0
  8 28  1  0
  8  9  1  1
  8 10  1  0
  9 42  1  0
  9 43  1  0
  9 44  1  0
 10 24  1  0
 10 11  1  0
 10 45  1  1
 11 12  2  0
 11 13  1  0
 13 14  1  0
 13 46  1  0
 13 47  1  0
 14 22  1  0
 14 15  1  0
 14 48  1  6
 15 16  1  0
 15 17  1  0
 15 18  1  0
 16 49  1  0
 16 50  1  0
 16 51  1  0
 17 52  1  0
 17 53  1  0
 17 54  1  0
 18 19  2  0
 18 20  1  0
 20 21  1  0
 20 55  1  0
 20 56  1  0
 21 22  1  0
 21 57  1  0
 21 58  1  0
 22 23  1  6
 22 24  1  0
 23 59  1  0
 23 60  1  0
 23 61  1  0
 24 25  2  0
 25 26  1  0
 25 62  1  0
 26 27  2  0
 26 28  1  0
 28 29  1  1
 28 30  1  0
 29 63  1  0
 29 64  1  0
 29 65  1  0
 30 31  1  1
 30 32  1  0
 31 66  1  0
M  END
>  <i_m_ct_stereo_status>  (434) 
1

>  <s_m_source_file>  (434) 
/var/tmp/pbs.5076255.sched01/tmp2gi29psn/132an720x3a.sdf

>  <i_m_source_file_index>  (434) 
43

>  <i_lp_mmshare_version>  (434) 
48012

>  <i_f3d_flags>  (434) 
0

>  <s_epik_input>  (434) 
W0NIM11DKE8xKShbQ0gzXSlPW0NASF0oW0NASF0yW09IXSlbQ0BdMShbT0hdKVtDQEBdMyhbQ0gzXSlDKD1PKVtDSF09QyhbQ0BASF00W0NAQF0yM1tDSDNdKVtDQEBdNShbQ0gzXSlbQ0BASF0oW0NIMl1DND1PKUMoW0NIM10pKFtDSDNdKUMoPU8pW0NIMl1bQ0gyXTU=

>  <s_epik_cmdline>  (434) 
J2VwaWtfcHl0aG9uJywgJy1waHQnLCAnMi4wJywgJy1waCcsICc3LjAnLCAnLXRuJywgJzgnLCAnLW1hJywgJzIwMCcsICctaW1hZScsICc8aW5maWxlLm1hZT4nLCAnLW9tYWUnLCAnPG91dGZpbGUubWFlPic=

>  <r_lp_tautomer_probability>  (434) 
1

>  <r_epik_Ionization_Penalty>  (434) 
0.000102607

>  <r_epik_Ionization_Penalty_Charging>  (434) 
0

>  <r_epik_Ionization_Penalty_Neutral>  (434) 
0.000102607

>  <r_epik_State_Penalty>  (434) 
-0

>  <r_epik_Charging_Adjusted_Penalty>  (434) 
0

>  <i_epik_Tot_Q>  (434) 
0

>  <i_epik_Tot_abs_Q>  (434) 
0

>  <s_lp_Force_Field>  (434) 
OPLS3e

>  <r_lp_Energy>  (434) 
61.7218

>  <b_lp_Chiralities_Consistent>  (434) 
1

>  <s_lp_Variant>  (434) 
118:0-1

>  <s_i_glide_gridfile>  (434) 
pfpi4k_grid

>  <i_i_glide_lignum>  (434) 
43

>  <i_i_glide_rotatable_bonds>  (434) 
2

>  <r_i_docking_score>  (434) 
-1.9786

>  <r_i_glide_ligand_efficiency>  (434) 
-0.0618314

>  <r_i_glide_ligand_efficiency_sa>  (434) 
-0.196302

>  <r_i_glide_ligand_efficiency_ln>  (434) 
-0.443063

>  <r_i_glide_gscore>  (434) 
-1.9786

>  <r_i_glide_lipo>  (434) 
-0.267089

>  <r_i_glide_hbond>  (434) 
0

>  <r_i_glide_metal>  (434) 
-0

>  <r_i_glide_rewards>  (434) 
-0.413531

>  <r_i_glide_evdw>  (434) 
-24.8174

>  <r_i_glide_ecoul>  (434) 
0.0514691

>  <r_i_glide_erotb>  (434) 
0

>  <r_i_glide_esite>  (434) 
-0.0648342

>  <r_i_glide_emodel>  (434) 
-28.3032

>  <r_i_glide_energy>  (434) 
-24.7659

>  <r_i_glide_einternal>  (434) 
0.138439

>  <r_i_glide_intrahb_reward>  (434) 
-0

>  <i_i_glide_confnum>  (434) 
1

>  <i_i_glide_posenum>  (434) 
22

>  <r_i_glide_eff_state_penalty>  (434) 
0

>  <ligand_id>  (434) 
118

>  <original_smiles>  (434) 
CC1(C)OC2C(O)C3(C)C4C(=O)CC5C(C)(C)C(=O)CCC5(C)C4=CC(=O)C3(C)C2(O)O1

>  <smiles>  (434) 
[H]OC1([H])C2([H])OC(C([H])([H])[H])(C([H])([H])[H])OC2(O[H])C2(C([H])([H])[H])C(=O)C([H])=C3C([H])(C(=O)C([H])([H])C4([H])C(C([H])([H])[H])(C([H])([H])[H])C(=O)C([H])([H])C([H])([H])C34C([H])([H])[H])C12C([H])([H])[H]

$$$$
