0:0:0
     RDKit          3D

 45 49  0  0  1  0  0  0  0  0999 V2000
    6.4835   -6.5989    2.6193 C   0  0  0  0  0  0  0  0  0  0  0  0
    7.1489   -7.6414    1.9938 C   0  0  0  0  0  0  0  0  0  0  0  0
    6.1032   -9.0044    1.6769 S   0  0  0  0  0  0  0  0  0  0  0  0
    4.7348   -8.0707    2.3980 C   0  0  0  0  0  0  0  0  0  0  0  0
    3.3764   -8.6524    2.4221 C   0  0  0  0  0  0  0  0  0  0  0  0
    3.1559   -9.9923    2.7237 C   0  0  0  0  0  0  0  0  0  0  0  0
    1.4875  -10.4693    2.9124 S   0  0  0  0  0  0  0  0  0  0  0  0
    1.0006   -8.8274    2.6149 C   0  0  0  0  0  0  0  0  0  0  0  0
   -0.3295   -8.4988    2.6505 N   0  0  0  0  0  0  0  0  0  0  0  0
   -0.5248   -7.2205    2.3681 C   0  0  0  0  0  0  0  0  0  0  0  0
    0.3630   -6.2903    2.0203 N   0  0  0  0  0  0  0  0  0  0  0  0
    1.6671   -6.6204    1.9920 C   0  0  0  0  0  0  0  0  0  0  0  0
    2.5007   -5.6076    1.5201 N   0  0  0  0  0  0  0  0  0  0  0  0
    3.2069   -4.7186    2.4255 C   0  0  0  0  0  0  0  0  0  0  0  0
    2.9722   -3.2553    2.0777 C   0  0  0  0  0  0  0  0  0  0  0  0
    3.3726   -3.0393    0.5922 C   0  0  0  0  0  0  0  0  0  0  0  0
    4.8922   -3.2359    0.2791 C   0  0  0  0  0  0  0  0  0  0  0  0
    5.1671   -2.1935   -0.7856 C   0  0  0  0  0  0  0  0  0  0  0  0
    4.3115   -1.0355   -0.2962 C   0  0  0  0  0  0  0  0  0  0  0  0
    3.0823   -1.6357    0.2390 N   0  0  0  0  0  0  0  0  0  0  0  0
    2.5723   -3.9926   -0.3266 C   0  0  0  0  0  0  0  0  0  0  0  0
    2.7536   -5.4765    0.0912 C   0  0  0  0  0  0  0  0  0  0  0  0
    2.0828   -7.9686    2.3164 C   0  0  0  0  0  0  0  0  0  0  0  0
    5.1336   -6.9270    2.9811 C   0  0  0  0  0  0  0  0  0  0  0  0
    6.9078   -5.6374    2.8580 H   0  0  0  0  0  0  0  0  0  0  0  0
    8.2215   -7.7017    1.7541 H   0  0  0  0  0  0  0  0  0  0  0  0
    3.9294  -10.7511    2.8406 H   0  0  0  0  0  0  0  0  0  0  0  0
   -1.5611   -6.8821    2.4386 H   0  0  0  0  0  0  0  0  0  0  0  0
    2.9641   -4.8945    3.4807 H   0  0  0  0  0  0  0  0  0  0  0  0
    4.2931   -4.8782    2.3197 H   0  0  0  0  0  0  0  0  0  0  0  0
    1.9255   -2.9621    2.2919 H   0  0  0  0  0  0  0  0  0  0  0  0
    3.6266   -2.6544    2.7201 H   0  0  0  0  0  0  0  0  0  0  0  0
    5.5140   -3.0725    1.1647 H   0  0  0  0  0  0  0  0  0  0  0  0
    5.1626   -4.2234   -0.1080 H   0  0  0  0  0  0  0  0  0  0  0  0
    6.2214   -1.9630   -0.8727 H   0  0  0  0  0  0  0  0  0  0  0  0
    4.7962   -2.5368   -1.7491 H   0  0  0  0  0  0  0  0  0  0  0  0
    4.8298   -0.5226    0.5259 H   0  0  0  0  0  0  0  0  0  0  0  0
    4.0885   -0.3028   -1.0776 H   0  0  0  0  0  0  0  0  0  0  0  0
    2.3078   -1.5885   -0.4319 H   0  0  0  0  0  0  0  0  0  0  0  0
    1.5076   -3.7588   -0.3051 H   0  0  0  0  0  0  0  0  0  0  0  0
    2.8604   -3.8768   -1.3762 H   0  0  0  0  0  0  0  0  0  0  0  0
    3.7681   -5.8400   -0.1123 H   0  0  0  0  0  0  0  0  0  0  0  0
    2.0881   -6.1290   -0.4757 H   0  0  0  0  0  0  0  0  0  0  0  0
    4.5262   -6.2502    3.6123 H   0  0  0  0  0  0  0  0  0  0  0  0
    2.7825   -1.1417    1.0702 H   0  0  0  0  0  0  0  0  0  0  0  0
  1 24  1  0
  1  2  2  0
  1 25  1  0
  2  3  1  0
  2 26  1  0
  3  4  1  0
  4  5  1  0
  4 24  2  0
  5 23  1  0
  5  6  2  0
  6  7  1  0
  6 27  1  0
  7  8  1  0
  8 23  2  0
  8  9  1  0
  9 10  2  0
 10 11  1  0
 10 28  1  0
 11 12  2  0
 12 13  1  0
 12 23  1  0
 13 22  1  0
 13 14  1  0
 14 15  1  0
 14 29  1  0
 14 30  1  0
 15 16  1  0
 15 31  1  0
 15 32  1  0
 16 20  1  0
 16 17  1  0
 16 21  1  0
 17 18  1  0
 17 33  1  0
 17 34  1  0
 18 19  1  0
 18 35  1  0
 18 36  1  0
 19 20  1  0
 19 37  1  0
 19 38  1  0
 20 39  1  0
 20 45  1  0
 21 22  1  0
 21 40  1  0
 21 41  1  0
 22 42  1  0
 22 43  1  0
 24 44  1  0
M  CHG  1  20   1
M  END
>  <i_m_ct_stereo_status>  (1) 
1

>  <s_m_source_file>  (1) 
/var/tmp/pbs.5076255.sched01/tmpu5rzjxe4/0gixxd53k.sdf

>  <i_m_source_file_index>  (1) 
1

>  <i_lp_mmshare_version>  (1) 
48012

>  <i_f3d_flags>  (1) 
0

>  <s_epik_input>  (1) 
W2NIXTFbY0hdW2NIXXNjMS1jKFtjSF1zMiljKGMyMyljKG5bY0hdbjMpTihbQ0gyXVtDSDJdNClbQ0gyXVtDSDJdQzQ1W0NIMl1bQ0gyXVtDSDJdW05IXTU=

>  <s_epik_cmdline>  (1) 
J2VwaWtfcHl0aG9uJywgJy1waHQnLCAnMi4wJywgJy1waCcsICc3LjAnLCAnLXRuJywgJzgnLCAnLW1hJywgJzIwMCcsICctaW1hZScsICc8aW5maWxlLm1hZT4nLCAnLW9tYWUnLCAnPG91dGZpbGUubWFlPic=

>  <r_lp_tautomer_probability>  (1) 
1

>  <r_epik_Ionization_Penalty>  (1) 
7.89574e-05

>  <r_epik_Ionization_Penalty_Charging>  (1) 
6.35244e-05

>  <r_epik_Ionization_Penalty_Neutral>  (1) 
1.54329e-05

>  <r_epik_State_Penalty>  (1) 
-0

>  <r_epik_Charging_Adjusted_Penalty>  (1) 
6.35244e-05

>  <i_epik_Tot_Q>  (1) 
1

>  <i_epik_Tot_abs_Q>  (1) 
1

>  <s_lp_Force_Field>  (1) 
OPLS3e

>  <r_lp_Energy>  (1) 
55.5364

>  <b_lp_Chiralities_Consistent>  (1) 
1

>  <s_lp_Variant>  (1) 
0:0-1

>  <s_i_glide_gridfile>  (1) 
pfpi4k_grid

>  <i_i_glide_lignum>  (1) 
1

>  <i_i_glide_rotatable_bonds>  (1) 
2

>  <r_i_docking_score>  (1) 
-4.06155

>  <r_i_glide_ligand_efficiency>  (1) 
-0.169231

>  <r_i_glide_ligand_efficiency_sa>  (1) 
-0.488147

>  <r_i_glide_ligand_efficiency_ln>  (1) 
-0.972115

>  <r_i_glide_gscore>  (1) 
-4.06155

>  <r_i_glide_lipo>  (1) 
-0.31926

>  <r_i_glide_hbond>  (1) 
-0.388203

>  <r_i_glide_metal>  (1) 
-0

>  <r_i_glide_rewards>  (1) 
-0.971467

>  <r_i_glide_evdw>  (1) 
-26.1539

>  <r_i_glide_ecoul>  (1) 
-7.76947

>  <r_i_glide_erotb>  (1) 
0.299564

>  <r_i_glide_esite>  (1) 
-0.209069

>  <r_i_glide_emodel>  (1) 
-39.3054

>  <r_i_glide_energy>  (1) 
-33.9234

>  <r_i_glide_einternal>  (1) 
3.55652

>  <r_i_glide_intrahb_reward>  (1) 
-0

>  <i_i_glide_confnum>  (1) 
1

>  <i_i_glide_posenum>  (1) 
30

>  <r_i_glide_eff_state_penalty>  (1) 
0

>  <ligand_id>  (1) 
0

>  <original_smiles>  (1) 
c1csc(-c2csc3ncnc(N4CCC5(CCCN5)CC4)c23)c1

>  <smiles>  (1) 
[H]c1nc(N2C([H])([H])C([H])([H])C3(C([H])([H])C2([H])[H])C([H])([H])C([H])([H])C([H])([H])[N+]3([H])[H])c2c(-c3sc([H])c([H])c3[H])c([H])sc2n1

$$$$
0:0:1
     RDKit          3D

 45 49  0  0  1  0  0  0  0  0999 V2000
    6.6135   -7.0588    3.8565 C   0  0  0  0  0  0  0  0  0  0  0  0
    6.7888   -6.6945    2.5477 C   0  0  0  0  0  0  0  0  0  0  0  0
    5.5232   -7.3087    1.5221 S   0  0  0  0  0  0  0  0  0  0  0  0
    4.6676   -7.9232    2.9063 C   0  0  0  0  0  0  0  0  0  0  0  0
    3.3607   -8.5501    2.7567 C   0  0  0  0  0  0  0  0  0  0  0  0
    3.1791   -9.9056    2.9418 C   0  0  0  0  0  0  0  0  0  0  0  0
    1.5506  -10.4686    2.9132 S   0  0  0  0  0  0  0  0  0  0  0  0
    0.9940   -8.8383    2.5962 C   0  0  0  0  0  0  0  0  0  0  0  0
   -0.3331   -8.5505    2.4829 N   0  0  0  0  0  0  0  0  0  0  0  0
   -0.5491   -7.2667    2.2218 C   0  0  0  0  0  0  0  0  0  0  0  0
    0.3385   -6.2900    2.0223 N   0  0  0  0  0  0  0  0  0  0  0  0
    1.6526   -6.5959    2.1244 C   0  0  0  0  0  0  0  0  0  0  0  0
    2.5466   -5.5708    1.8006 N   0  0  0  0  0  0  0  0  0  0  0  0
    3.0044   -4.6362    2.8198 C   0  0  0  0  0  0  0  0  0  0  0  0
    2.7795   -3.1900    2.3373 C   0  0  0  0  0  0  0  0  0  0  0  0
    3.3821   -2.9621    0.9304 C   0  0  0  0  0  0  0  0  0  0  0  0
    4.9346   -3.0464    0.9308 C   0  0  0  0  0  0  0  0  0  0  0  0
    5.3515   -2.0127   -0.1031 C   0  0  0  0  0  0  0  0  0  0  0  0
    4.3251   -0.9104    0.1302 C   0  0  0  0  0  0  0  0  0  0  0  0
    3.0593   -1.5908    0.4668 N   0  0  0  0  0  0  0  0  0  0  0  0
    2.8090   -3.9905   -0.0697 C   0  0  0  0  0  0  0  0  0  0  0  0
    3.0172   -5.4346    0.4294 C   0  0  0  0  0  0  0  0  0  0  0  0
    2.0761   -7.9141    2.4765 C   0  0  0  0  0  0  0  0  0  0  0  0
    5.3960   -7.7683    4.0596 C   0  0  0  0  0  0  0  0  0  0  0  0
    7.3009   -6.8478    4.6642 H   0  0  0  0  0  0  0  0  0  0  0  0
    7.6077   -6.1223    2.1276 H   0  0  0  0  0  0  0  0  0  0  0  0
    3.9599  -10.6262    3.1333 H   0  0  0  0  0  0  0  0  0  0  0  0
   -1.5923   -6.9635    2.1774 H   0  0  0  0  0  0  0  0  0  0  0  0
    2.5042   -4.8020    3.7758 H   0  0  0  0  0  0  0  0  0  0  0  0
    4.0675   -4.7962    3.0023 H   0  0  0  0  0  0  0  0  0  0  0  0
    1.7057   -2.9988    2.3147 H   0  0  0  0  0  0  0  0  0  0  0  0
    3.1918   -2.4820    3.0590 H   0  0  0  0  0  0  0  0  0  0  0  0
    5.3396   -2.7704    1.9114 H   0  0  0  0  0  0  0  0  0  0  0  0
    5.3375   -4.0351    0.6785 H   0  0  0  0  0  0  0  0  0  0  0  0
    6.3836   -1.6908    0.0088 H   0  0  0  0  0  0  0  0  0  0  0  0
    5.2241   -2.4240   -1.1041 H   0  0  0  0  0  0  0  0  0  0  0  0
    4.6326   -0.3080    0.9909 H   0  0  0  0  0  0  0  0  0  0  0  0
    4.2139   -0.2466   -0.7303 H   0  0  0  0  0  0  0  0  0  0  0  0
    2.4517   -1.6331   -0.3517 H   0  0  0  0  0  0  0  0  0  0  0  0
    1.7565   -3.8002   -0.2678 H   0  0  0  0  0  0  0  0  0  0  0  0
    3.2917   -3.8954   -1.0416 H   0  0  0  0  0  0  0  0  0  0  0  0
    4.0779   -5.6522    0.3933 H   0  0  0  0  0  0  0  0  0  0  0  0
    2.5084   -6.1473   -0.2256 H   0  0  0  0  0  0  0  0  0  0  0  0
    5.0936   -8.1339    5.0299 H   0  0  0  0  0  0  0  0  0  0  0  0
    2.5580   -1.0675    1.1761 H   0  0  0  0  0  0  0  0  0  0  0  0
  1 24  1  0
  1  2  2  0
  1 25  1  0
  2  3  1  0
  2 26  1  0
  3  4  1  0
  4  5  1  0
  4 24  2  0
  5 23  1  0
  5  6  2  0
  6  7  1  0
  6 27  1  0
  7  8  1  0
  8 23  2  0
  8  9  1  0
  9 10  2  0
 10 11  1  0
 10 28  1  0
 11 12  2  0
 12 13  1  0
 12 23  1  0
 13 22  1  0
 13 14  1  0
 14 15  1  0
 14 29  1  0
 14 30  1  0
 15 16  1  0
 15 31  1  0
 15 32  1  0
 16 20  1  0
 16 17  1  0
 16 21  1  0
 17 18  1  0
 17 33  1  0
 17 34  1  0
 18 19  1  0
 18 35  1  0
 18 36  1  0
 19 20  1  0
 19 37  1  0
 19 38  1  0
 20 39  1  0
 20 45  1  0
 21 22  1  0
 21 40  1  0
 21 41  1  0
 22 42  1  0
 22 43  1  0
 24 44  1  0
M  CHG  1  20   1
M  END
>  <i_m_ct_stereo_status>  (2) 
1

>  <s_m_source_file>  (2) 
/var/tmp/pbs.5076255.sched01/tmpu5rzjxe4/0gixxd53k.sdf

>  <i_m_source_file_index>  (2) 
1

>  <i_lp_mmshare_version>  (2) 
48012

>  <i_f3d_flags>  (2) 
0

>  <s_epik_input>  (2) 
W2NIXTFbY0hdW2NIXXNjMS1jKFtjSF1zMiljKGMyMyljKG5bY0hdbjMpTihbQ0gyXVtDSDJdNClbQ0gyXVtDSDJdQzQ1W0NIMl1bQ0gyXVtDSDJdW05IXTU=

>  <s_epik_cmdline>  (2) 
J2VwaWtfcHl0aG9uJywgJy1waHQnLCAnMi4wJywgJy1waCcsICc3LjAnLCAnLXRuJywgJzgnLCAnLW1hJywgJzIwMCcsICctaW1hZScsICc8aW5maWxlLm1hZT4nLCAnLW9tYWUnLCAnPG91dGZpbGUubWFlPic=

>  <r_lp_tautomer_probability>  (2) 
1

>  <r_epik_Ionization_Penalty>  (2) 
7.89574e-05

>  <r_epik_Ionization_Penalty_Charging>  (2) 
6.35244e-05

>  <r_epik_Ionization_Penalty_Neutral>  (2) 
1.54329e-05

>  <r_epik_State_Penalty>  (2) 
-0

>  <r_epik_Charging_Adjusted_Penalty>  (2) 
6.35244e-05

>  <i_epik_Tot_Q>  (2) 
1

>  <i_epik_Tot_abs_Q>  (2) 
1

>  <s_lp_Force_Field>  (2) 
OPLS3e

>  <r_lp_Energy>  (2) 
55.5364

>  <b_lp_Chiralities_Consistent>  (2) 
1

>  <s_lp_Variant>  (2) 
0:0-1

>  <s_i_glide_gridfile>  (2) 
pfpi4k_grid

>  <i_i_glide_lignum>  (2) 
1

>  <i_i_glide_rotatable_bonds>  (2) 
2

>  <r_i_docking_score>  (2) 
-3.77252

>  <r_i_glide_ligand_efficiency>  (2) 
-0.157188

>  <r_i_glide_ligand_efficiency_sa>  (2) 
-0.45341

>  <r_i_glide_ligand_efficiency_ln>  (2) 
-0.902937

>  <r_i_glide_gscore>  (2) 
-3.77252

>  <r_i_glide_lipo>  (2) 
-0.257418

>  <r_i_glide_hbond>  (2) 
-0.349479

>  <r_i_glide_metal>  (2) 
-0

>  <r_i_glide_rewards>  (2) 
-0.971467

>  <r_i_glide_evdw>  (2) 
-25.7012

>  <r_i_glide_ecoul>  (2) 
-6.79256

>  <r_i_glide_erotb>  (2) 
0.299564

>  <r_i_glide_esite>  (2) 
-0.189775

>  <r_i_glide_emodel>  (2) 
-38.6164

>  <r_i_glide_energy>  (2) 
-32.4938

>  <r_i_glide_einternal>  (2) 
5.17971

>  <r_i_glide_intrahb_reward>  (2) 
-0

>  <i_i_glide_confnum>  (2) 
1

>  <i_i_glide_posenum>  (2) 
20

>  <r_i_glide_eff_state_penalty>  (2) 
0

>  <ligand_id>  (2) 
0

>  <original_smiles>  (2) 
c1csc(-c2csc3ncnc(N4CCC5(CCCN5)CC4)c23)c1

>  <smiles>  (2) 
[H]c1nc(N2C([H])([H])C([H])([H])C3(C([H])([H])C2([H])[H])C([H])([H])C([H])([H])C([H])([H])[N+]3([H])[H])c2c(-c3sc([H])c([H])c3[H])c([H])sc2n1

$$$$
0:0:2
     RDKit          3D

 45 49  0  0  1  0  0  0  0  0999 V2000
    6.5163   -8.4254    1.4861 C   0  0  0  0  0  0  0  0  0  0  0  0
    6.5582   -7.4467    2.4339 C   0  0  0  0  0  0  0  0  0  0  0  0
    5.0538   -7.3312    3.3130 S   0  0  0  0  0  0  0  0  0  0  0  0
    4.3207   -8.5312    2.2781 C   0  0  0  0  0  0  0  0  0  0  0  0
    2.9307   -8.9313    2.4867 C   0  0  0  0  0  0  0  0  0  0  0  0
    2.5692  -10.2566    2.4888 C   0  0  0  0  0  0  0  0  0  0  0  0
    0.9284  -10.6111    2.9125 S   0  0  0  0  0  0  0  0  0  0  0  0
    0.6237   -8.8972    3.0515 C   0  0  0  0  0  0  0  0  0  0  0  0
   -0.5926   -8.4154    3.4391 N   0  0  0  0  0  0  0  0  0  0  0  0
   -0.6492   -7.0890    3.4836 C   0  0  0  0  0  0  0  0  0  0  0  0
    0.2903   -6.2090    3.1480 N   0  0  0  0  0  0  0  0  0  0  0  0
    1.4886   -6.6943    2.7489 C   0  0  0  0  0  0  0  0  0  0  0  0
    2.4222   -5.7537    2.2877 N   0  0  0  0  0  0  0  0  0  0  0  0
    2.7675   -4.5833    3.0873 C   0  0  0  0  0  0  0  0  0  0  0  0
    2.5922   -3.2813    2.2739 C   0  0  0  0  0  0  0  0  0  0  0  0
    3.3345   -3.3718    0.9101 C   0  0  0  0  0  0  0  0  0  0  0  0
    4.8713   -3.4118    1.0686 C   0  0  0  0  0  0  0  0  0  0  0  0
    5.4072   -2.6470   -0.1471 C   0  0  0  0  0  0  0  0  0  0  0  0
    4.1773   -2.1418   -0.9189 C   0  0  0  0  0  0  0  0  0  0  0  0
    3.0767   -2.1756    0.0818 N   0  0  0  0  0  0  0  0  0  0  0  0
    2.8541   -4.6324    0.1436 C   0  0  0  0  0  0  0  0  0  0  0  0
    3.0340   -5.9067    0.9793 C   0  0  0  0  0  0  0  0  0  0  0  0
    1.7509   -8.0947    2.7342 C   0  0  0  0  0  0  0  0  0  0  0  0
    5.2309   -9.0502    1.3971 C   0  0  0  0  0  0  0  0  0  0  0  0
    7.3484   -8.7277    0.8581 H   0  0  0  0  0  0  0  0  0  0  0  0
    7.3916   -6.8032    2.6943 H   0  0  0  0  0  0  0  0  0  0  0  0
    3.2269  -11.0940    2.2967 H   0  0  0  0  0  0  0  0  0  0  0  0
   -1.5792   -6.6491    3.8255 H   0  0  0  0  0  0  0  0  0  0  0  0
    2.1974   -4.5350    4.0162 H   0  0  0  0  0  0  0  0  0  0  0  0
    3.8141   -4.6642    3.3854 H   0  0  0  0  0  0  0  0  0  0  0  0
    1.5231   -3.1139    2.1226 H   0  0  0  0  0  0  0  0  0  0  0  0
    2.9453   -2.4192    2.8554 H   0  0  0  0  0  0  0  0  0  0  0  0
    5.1821   -2.9025    1.9847 H   0  0  0  0  0  0  0  0  0  0  0  0
    5.2694   -4.4230    1.1035 H   0  0  0  0  0  0  0  0  0  0  0  0
    6.0400   -1.8217    0.1784 H   0  0  0  0  0  0  0  0  0  0  0  0
    5.9897   -3.3067   -0.7824 H   0  0  0  0  0  0  0  0  0  0  0  0
    4.2976   -1.1462   -1.3545 H   0  0  0  0  0  0  0  0  0  0  0  0
    3.8924   -2.8457   -1.7123 H   0  0  0  0  0  0  0  0  0  0  0  0
    2.1525   -2.1559   -0.3487 H   0  0  0  0  0  0  0  0  0  0  0  0
    1.8147   -4.5412   -0.1695 H   0  0  0  0  0  0  0  0  0  0  0  0
    3.4431   -4.7658   -0.7645 H   0  0  0  0  0  0  0  0  0  0  0  0
    4.1023   -6.0956    1.1005 H   0  0  0  0  0  0  0  0  0  0  0  0
    2.6028   -6.7666    0.4731 H   0  0  0  0  0  0  0  0  0  0  0  0
    5.0233   -9.8497    0.7029 H   0  0  0  0  0  0  0  0  0  0  0  0
    3.1447   -1.3634    0.6676 H   0  0  0  0  0  0  0  0  0  0  0  0
  1 24  1  0
  1  2  2  0
  1 25  1  0
  2  3  1  0
  2 26  1  0
  3  4  1  0
  4  5  1  0
  4 24  2  0
  5 23  1  0
  5  6  2  0
  6  7  1  0
  6 27  1  0
  7  8  1  0
  8 23  2  0
  8  9  1  0
  9 10  2  0
 10 11  1  0
 10 28  1  0
 11 12  2  0
 12 13  1  0
 12 23  1  0
 13 22  1  0
 13 14  1  0
 14 15  1  0
 14 29  1  0
 14 30  1  0
 15 16  1  0
 15 31  1  0
 15 32  1  0
 16 20  1  0
 16 17  1  0
 16 21  1  0
 17 18  1  0
 17 33  1  0
 17 34  1  0
 18 19  1  0
 18 35  1  0
 18 36  1  0
 19 20  1  0
 19 37  1  0
 19 38  1  0
 20 39  1  0
 20 45  1  0
 21 22  1  0
 21 40  1  0
 21 41  1  0
 22 42  1  0
 22 43  1  0
 24 44  1  0
M  CHG  1  20   1
M  END
>  <i_m_ct_stereo_status>  (3) 
1

>  <s_m_source_file>  (3) 
/var/tmp/pbs.5076255.sched01/tmpu5rzjxe4/0gixxd53k.sdf

>  <i_m_source_file_index>  (3) 
1

>  <i_lp_mmshare_version>  (3) 
48012

>  <i_f3d_flags>  (3) 
0

>  <s_epik_input>  (3) 
W2NIXTFbY0hdW2NIXXNjMS1jKFtjSF1zMiljKGMyMyljKG5bY0hdbjMpTihbQ0gyXVtDSDJdNClbQ0gyXVtDSDJdQzQ1W0NIMl1bQ0gyXVtDSDJdW05IXTU=

>  <s_epik_cmdline>  (3) 
J2VwaWtfcHl0aG9uJywgJy1waHQnLCAnMi4wJywgJy1waCcsICc3LjAnLCAnLXRuJywgJzgnLCAnLW1hJywgJzIwMCcsICctaW1hZScsICc8aW5maWxlLm1hZT4nLCAnLW9tYWUnLCAnPG91dGZpbGUubWFlPic=

>  <r_lp_tautomer_probability>  (3) 
1

>  <r_epik_Ionization_Penalty>  (3) 
7.89574e-05

>  <r_epik_Ionization_Penalty_Charging>  (3) 
6.35244e-05

>  <r_epik_Ionization_Penalty_Neutral>  (3) 
1.54329e-05

>  <r_epik_State_Penalty>  (3) 
-0

>  <r_epik_Charging_Adjusted_Penalty>  (3) 
6.35244e-05

>  <i_epik_Tot_Q>  (3) 
1

>  <i_epik_Tot_abs_Q>  (3) 
1

>  <s_lp_Force_Field>  (3) 
OPLS3e

>  <r_lp_Energy>  (3) 
55.5364

>  <b_lp_Chiralities_Consistent>  (3) 
1

>  <s_lp_Variant>  (3) 
0:0-1

>  <s_i_glide_gridfile>  (3) 
pfpi4k_grid

>  <i_i_glide_lignum>  (3) 
1

>  <i_i_glide_rotatable_bonds>  (3) 
2

>  <r_i_docking_score>  (3) 
-3.60166

>  <r_i_glide_ligand_efficiency>  (3) 
-0.150069

>  <r_i_glide_ligand_efficiency_sa>  (3) 
-0.432875

>  <r_i_glide_ligand_efficiency_ln>  (3) 
-0.862044

>  <r_i_glide_gscore>  (3) 
-3.60166

>  <r_i_glide_lipo>  (3) 
-0.345357

>  <r_i_glide_hbond>  (3) 
-0.252998

>  <r_i_glide_metal>  (3) 
-0

>  <r_i_glide_rewards>  (3) 
-0.971467

>  <r_i_glide_evdw>  (3) 
-27.1006

>  <r_i_glide_ecoul>  (3) 
-5.4657

>  <r_i_glide_erotb>  (3) 
0.299564

>  <r_i_glide_esite>  (3) 
-0.15652

>  <r_i_glide_emodel>  (3) 
-40.3144

>  <r_i_glide_energy>  (3) 
-32.5663

>  <r_i_glide_einternal>  (3) 
1.24171

>  <r_i_glide_intrahb_reward>  (3) 
-0

>  <i_i_glide_confnum>  (3) 
4

>  <i_i_glide_posenum>  (3) 
10

>  <r_i_glide_eff_state_penalty>  (3) 
0

>  <ligand_id>  (3) 
0

>  <original_smiles>  (3) 
c1csc(-c2csc3ncnc(N4CCC5(CCCN5)CC4)c23)c1

>  <smiles>  (3) 
[H]c1nc(N2C([H])([H])C([H])([H])C3(C([H])([H])C2([H])[H])C([H])([H])C([H])([H])C([H])([H])[N+]3([H])[H])c2c(-c3sc([H])c([H])c3[H])c([H])sc2n1

$$$$
1:0:0
     RDKit          3D

 18 20  0  0  1  0  0  0  0  0999 V2000
    2.7345  -11.5566    3.0225 C   0  0  0  0  0  0  0  0  0  0  0  0
    2.0778  -10.2315    2.6882 C   0  0  0  0  0  0  0  0  0  0  0  0
    0.7533  -10.1998    2.9813 N   0  0  0  0  0  0  0  0  0  0  0  0
    0.1247   -9.0321    2.6986 C   0  0  0  0  0  0  0  0  0  0  0  0
   -1.1585   -8.7475    2.9072 N   0  0  0  0  0  0  0  0  0  0  0  0
   -1.2979   -7.4235    2.4832 N   0  0  0  0  0  0  0  0  0  0  0  0
   -0.1862   -6.9271    2.0195 N   0  0  0  0  0  0  0  0  0  0  0  0
    0.6684   -7.9402    2.1696 N   0  0  0  0  0  0  0  0  0  0  0  0
    2.0240   -7.9960    1.8727 C   0  0  0  0  0  0  0  0  0  0  0  0
    2.8572   -6.9631    1.3042 C   0  0  0  0  0  0  0  0  0  0  0  0
    4.1612   -7.4068    1.1542 C   0  0  0  0  0  0  0  0  0  0  0  0
    4.4820   -9.0590    1.6713 S   0  0  0  0  0  0  0  0  0  0  0  0
    2.8084   -9.1541    2.1131 C   0  0  0  0  0  0  0  0  0  0  0  0
    3.7964  -11.5844    2.7779 H   0  0  0  0  0  0  0  0  0  0  0  0
    2.2438  -12.3591    2.4817 H   0  0  0  0  0  0  0  0  0  0  0  0
    2.6132  -11.7758    4.0851 H   0  0  0  0  0  0  0  0  0  0  0  0
    2.4375   -5.9985    1.0454 H   0  0  0  0  0  0  0  0  0  0  0  0
    4.9762   -6.8335    0.7461 H   0  0  0  0  0  0  0  0  0  0  0  0
  1  2  1  0
  1 14  1  0
  1 15  1  0
  1 16  1  0
  2 13  1  0
  2  3  2  0
  3  4  1  0
  4  8  1  0
  4  5  2  0
  5  6  1  0
  6  7  2  0
  7  8  1  0
  8  9  1  0
  9 13  2  0
  9 10  1  0
 10 11  2  0
 10 17  1  0
 11 12  1  0
 11 18  1  0
 12 13  1  0
M  END
>  <i_m_ct_stereo_status>  (4) 
1

>  <s_m_source_file>  (4) 
/var/tmp/pbs.5076255.sched01/tmpu5rzjxe4/0gixxd53k.sdf

>  <i_m_source_file_index>  (4) 
2

>  <i_lp_mmshare_version>  (4) 
48012

>  <i_f3d_flags>  (4) 
0

>  <s_epik_input>  (4) 
W2NIXTFbY0hdc2MoYyhuMilbQ0gzXSljMW4oYzIzKW5ubjM=

>  <s_epik_cmdline>  (4) 
J2VwaWtfcHl0aG9uJywgJy1waHQnLCAnMi4wJywgJy1waCcsICc3LjAnLCAnLXRuJywgJzgnLCAnLW1hJywgJzIwMCcsICctaW1hZScsICc8aW5maWxlLm1hZT4nLCAnLW9tYWUnLCAnPG91dGZpbGUubWFlPic=

>  <r_lp_tautomer_probability>  (4) 
1

>  <r_epik_Ionization_Penalty>  (4) 
2.20821e-10

>  <r_epik_Ionization_Penalty_Charging>  (4) 
0

>  <r_epik_Ionization_Penalty_Neutral>  (4) 
2.20821e-10

>  <r_epik_State_Penalty>  (4) 
-0

>  <r_epik_Charging_Adjusted_Penalty>  (4) 
0

>  <i_epik_Tot_Q>  (4) 
0

>  <i_epik_Tot_abs_Q>  (4) 
0

>  <s_lp_Force_Field>  (4) 
OPLS3e

>  <r_lp_Energy>  (4) 
11.4122

>  <b_lp_Chiralities_Consistent>  (4) 
1

>  <s_lp_Variant>  (4) 
1:0-1

>  <s_i_glide_gridfile>  (4) 
pfpi4k_grid

>  <i_i_glide_lignum>  (4) 
2

>  <i_i_glide_rotatable_bonds>  (4) 
0

>  <r_i_docking_score>  (4) 
-4.06933

>  <r_i_glide_ligand_efficiency>  (4) 
-0.313026

>  <r_i_glide_ligand_efficiency_sa>  (4) 
-0.736028

>  <r_i_glide_ligand_efficiency_ln>  (4) 
-1.14148

>  <r_i_glide_gscore>  (4) 
-4.06933

>  <r_i_glide_lipo>  (4) 
-0.200645

>  <r_i_glide_hbond>  (4) 
0

>  <r_i_glide_metal>  (4) 
-0

>  <r_i_glide_rewards>  (4) 
-2.10536

>  <r_i_glide_evdw>  (4) 
-20.93

>  <r_i_glide_ecoul>  (4) 
-2.81528

>  <r_i_glide_erotb>  (4) 
0

>  <r_i_glide_esite>  (4) 
-0.294539

>  <r_i_glide_emodel>  (4) 
-30.5624

>  <r_i_glide_energy>  (4) 
-23.7452

>  <r_i_glide_einternal>  (4) 
0

>  <r_i_glide_intrahb_reward>  (4) 
-0

>  <i_i_glide_confnum>  (4) 
1

>  <i_i_glide_posenum>  (4) 
19

>  <r_i_glide_eff_state_penalty>  (4) 
0

>  <ligand_id>  (4) 
1

>  <original_smiles>  (4) 
Cc1nc2nnnn2c2ccsc12

>  <smiles>  (4) 
[H]c1sc2c(C([H])([H])[H])nc3nnnn3c2c1[H]

$$$$
1:0:1
     RDKit          3D

 18 20  0  0  1  0  0  0  0  0999 V2000
    0.9564  -11.4826    4.4476 C   0  0  0  0  0  0  0  0  0  0  0  0
    1.1839  -10.2699    3.5611 C   0  0  0  0  0  0  0  0  0  0  0  0
    0.0501   -9.5664    3.3061 N   0  0  0  0  0  0  0  0  0  0  0  0
    0.2097   -8.4669    2.5262 C   0  0  0  0  0  0  0  0  0  0  0  0
   -0.7390   -7.6103    2.1547 N   0  0  0  0  0  0  0  0  0  0  0  0
   -0.0709   -6.6668    1.3590 N   0  0  0  0  0  0  0  0  0  0  0  0
    1.2053   -6.9059    1.2757 N   0  0  0  0  0  0  0  0  0  0  0  0
    1.3453   -8.0230    1.9942 N   0  0  0  0  0  0  0  0  0  0  0  0
    2.4912   -8.7582    2.2627 C   0  0  0  0  0  0  0  0  0  0  0  0
    3.8383   -8.4984    1.8190 C   0  0  0  0  0  0  0  0  0  0  0  0
    4.7129   -9.4572    2.3051 C   0  0  0  0  0  0  0  0  0  0  0  0
    3.9995  -10.7190    3.3071 S   0  0  0  0  0  0  0  0  0  0  0  0
    2.4745   -9.9284    3.0688 C   0  0  0  0  0  0  0  0  0  0  0  0
    1.8669  -12.0470    4.6533 H   0  0  0  0  0  0  0  0  0  0  0  0
    0.2378  -12.1559    3.9789 H   0  0  0  0  0  0  0  0  0  0  0  0
    0.5248  -11.1748    5.4017 H   0  0  0  0  0  0  0  0  0  0  0  0
    4.0558   -7.6453    1.1888 H   0  0  0  0  0  0  0  0  0  0  0  0
    5.7719   -9.5016    2.1139 H   0  0  0  0  0  0  0  0  0  0  0  0
  1  2  1  0
  1 14  1  0
  1 15  1  0
  1 16  1  0
  2 13  1  0
  2  3  2  0
  3  4  1  0
  4  8  1  0
  4  5  2  0
  5  6  1  0
  6  7  2  0
  7  8  1  0
  8  9  1  0
  9 13  2  0
  9 10  1  0
 10 11  2  0
 10 17  1  0
 11 12  1  0
 11 18  1  0
 12 13  1  0
M  END
>  <i_m_ct_stereo_status>  (5) 
1

>  <s_m_source_file>  (5) 
/var/tmp/pbs.5076255.sched01/tmpu5rzjxe4/0gixxd53k.sdf

>  <i_m_source_file_index>  (5) 
2

>  <i_lp_mmshare_version>  (5) 
48012

>  <i_f3d_flags>  (5) 
0

>  <s_epik_input>  (5) 
W2NIXTFbY0hdc2MoYyhuMilbQ0gzXSljMW4oYzIzKW5ubjM=

>  <s_epik_cmdline>  (5) 
J2VwaWtfcHl0aG9uJywgJy1waHQnLCAnMi4wJywgJy1waCcsICc3LjAnLCAnLXRuJywgJzgnLCAnLW1hJywgJzIwMCcsICctaW1hZScsICc8aW5maWxlLm1hZT4nLCAnLW9tYWUnLCAnPG91dGZpbGUubWFlPic=

>  <r_lp_tautomer_probability>  (5) 
1

>  <r_epik_Ionization_Penalty>  (5) 
2.20821e-10

>  <r_epik_Ionization_Penalty_Charging>  (5) 
0

>  <r_epik_Ionization_Penalty_Neutral>  (5) 
2.20821e-10

>  <r_epik_State_Penalty>  (5) 
-0

>  <r_epik_Charging_Adjusted_Penalty>  (5) 
0

>  <i_epik_Tot_Q>  (5) 
0

>  <i_epik_Tot_abs_Q>  (5) 
0

>  <s_lp_Force_Field>  (5) 
OPLS3e

>  <r_lp_Energy>  (5) 
11.4122

>  <b_lp_Chiralities_Consistent>  (5) 
1

>  <s_lp_Variant>  (5) 
1:0-1

>  <s_i_glide_gridfile>  (5) 
pfpi4k_grid

>  <i_i_glide_lignum>  (5) 
2

>  <i_i_glide_rotatable_bonds>  (5) 
0

>  <r_i_docking_score>  (5) 
-3.94157

>  <r_i_glide_ligand_efficiency>  (5) 
-0.303197

>  <r_i_glide_ligand_efficiency_sa>  (5) 
-0.712919

>  <r_i_glide_ligand_efficiency_ln>  (5) 
-1.10564

>  <r_i_glide_gscore>  (5) 
-3.94157

>  <r_i_glide_lipo>  (5) 
-0.114542

>  <r_i_glide_hbond>  (5) 
0

>  <r_i_glide_metal>  (5) 
-0

>  <r_i_glide_rewards>  (5) 
-2.10536

>  <r_i_glide_evdw>  (5) 
-21.1043

>  <r_i_glide_ecoul>  (5) 
-2.3297

>  <r_i_glide_erotb>  (5) 
0

>  <r_i_glide_esite>  (5) 
-0.316994

>  <r_i_glide_emodel>  (5) 
-30.0395

>  <r_i_glide_energy>  (5) 
-23.434

>  <r_i_glide_einternal>  (5) 
0

>  <r_i_glide_intrahb_reward>  (5) 
-0

>  <i_i_glide_confnum>  (5) 
1

>  <i_i_glide_posenum>  (5) 
10

>  <r_i_glide_eff_state_penalty>  (5) 
0

>  <ligand_id>  (5) 
1

>  <original_smiles>  (5) 
Cc1nc2nnnn2c2ccsc12

>  <smiles>  (5) 
[H]c1sc2c(C([H])([H])[H])nc3nnnn3c2c1[H]

$$$$
1:0:2
     RDKit          3D

 18 20  0  0  1  0  0  0  0  0999 V2000
   -1.8531   -8.9019    2.7969 C   0  0  0  0  0  0  0  0  0  0  0  0
   -0.4036   -8.5853    2.4936 C   0  0  0  0  0  0  0  0  0  0  0  0
   -0.2460   -7.3791    1.8889 N   0  0  0  0  0  0  0  0  0  0  0  0
    1.0357   -7.0593    1.5791 C   0  0  0  0  0  0  0  0  0  0  0  0
    1.4374   -5.9440    0.9812 N   0  0  0  0  0  0  0  0  0  0  0  0
    2.8360   -6.0719    0.9037 N   0  0  0  0  0  0  0  0  0  0  0  0
    3.2590   -7.1962    1.4128 N   0  0  0  0  0  0  0  0  0  0  0  0
    2.1280   -7.7820    1.8143 N   0  0  0  0  0  0  0  0  0  0  0  0
    1.9441   -9.0064    2.4405 C   0  0  0  0  0  0  0  0  0  0  0  0
    2.9430   -9.9780    2.8099 C   0  0  0  0  0  0  0  0  0  0  0  0
    2.3618  -11.0809    3.4144 C   0  0  0  0  0  0  0  0  0  0  0  0
    0.6118  -11.0315    3.5891 S   0  0  0  0  0  0  0  0  0  0  0  0
    0.6577   -9.4786    2.8197 C   0  0  0  0  0  0  0  0  0  0  0  0
   -1.9781   -9.8594    3.2788 H   0  0  0  0  0  0  0  0  0  0  0  0
   -2.4428   -8.9105    1.8802 H   0  0  0  0  0  0  0  0  0  0  0  0
   -2.2776   -8.1421    3.4532 H   0  0  0  0  0  0  0  0  0  0  0  0
    3.9910   -9.8042    2.6005 H   0  0  0  0  0  0  0  0  0  0  0  0
    2.8812  -11.9566    3.7720 H   0  0  0  0  0  0  0  0  0  0  0  0
  1  2  1  0
  1 14  1  0
  1 15  1  0
  1 16  1  0
  2 13  1  0
  2  3  2  0
  3  4  1  0
  4  8  1  0
  4  5  2  0
  5  6  1  0
  6  7  2  0
  7  8  1  0
  8  9  1  0
  9 13  2  0
  9 10  1  0
 10 11  2  0
 10 17  1  0
 11 12  1  0
 11 18  1  0
 12 13  1  0
M  END
>  <i_m_ct_stereo_status>  (6) 
1

>  <s_m_source_file>  (6) 
/var/tmp/pbs.5076255.sched01/tmpu5rzjxe4/0gixxd53k.sdf

>  <i_m_source_file_index>  (6) 
2

>  <i_lp_mmshare_version>  (6) 
48012

>  <i_f3d_flags>  (6) 
0

>  <s_epik_input>  (6) 
W2NIXTFbY0hdc2MoYyhuMilbQ0gzXSljMW4oYzIzKW5ubjM=

>  <s_epik_cmdline>  (6) 
J2VwaWtfcHl0aG9uJywgJy1waHQnLCAnMi4wJywgJy1waCcsICc3LjAnLCAnLXRuJywgJzgnLCAnLW1hJywgJzIwMCcsICctaW1hZScsICc8aW5maWxlLm1hZT4nLCAnLW9tYWUnLCAnPG91dGZpbGUubWFlPic=

>  <r_lp_tautomer_probability>  (6) 
1

>  <r_epik_Ionization_Penalty>  (6) 
2.20821e-10

>  <r_epik_Ionization_Penalty_Charging>  (6) 
0

>  <r_epik_Ionization_Penalty_Neutral>  (6) 
2.20821e-10

>  <r_epik_State_Penalty>  (6) 
-0

>  <r_epik_Charging_Adjusted_Penalty>  (6) 
0

>  <i_epik_Tot_Q>  (6) 
0

>  <i_epik_Tot_abs_Q>  (6) 
0

>  <s_lp_Force_Field>  (6) 
OPLS3e

>  <r_lp_Energy>  (6) 
11.4122

>  <b_lp_Chiralities_Consistent>  (6) 
1

>  <s_lp_Variant>  (6) 
1:0-1

>  <s_i_glide_gridfile>  (6) 
pfpi4k_grid

>  <i_i_glide_lignum>  (6) 
2

>  <i_i_glide_rotatable_bonds>  (6) 
0

>  <r_i_docking_score>  (6) 
-3.85627

>  <r_i_glide_ligand_efficiency>  (6) 
-0.296636

>  <r_i_glide_ligand_efficiency_sa>  (6) 
-0.697491

>  <r_i_glide_ligand_efficiency_ln>  (6) 
-1.08172

>  <r_i_glide_gscore>  (6) 
-3.85627

>  <r_i_glide_lipo>  (6) 
-0.13396

>  <r_i_glide_hbond>  (6) 
0

>  <r_i_glide_metal>  (6) 
-0

>  <r_i_glide_rewards>  (6) 
-2.10536

>  <r_i_glide_evdw>  (6) 
-21.0342

>  <r_i_glide_ecoul>  (6) 
-2.55796

>  <r_i_glide_erotb>  (6) 
0

>  <r_i_glide_esite>  (6) 
-0.181549

>  <r_i_glide_emodel>  (6) 
-30.0487

>  <r_i_glide_energy>  (6) 
-23.5922

>  <r_i_glide_einternal>  (6) 
0

>  <r_i_glide_intrahb_reward>  (6) 
-0

>  <i_i_glide_confnum>  (6) 
2

>  <i_i_glide_posenum>  (6) 
11

>  <r_i_glide_eff_state_penalty>  (6) 
0

>  <ligand_id>  (6) 
1

>  <original_smiles>  (6) 
Cc1nc2nnnn2c2ccsc12

>  <smiles>  (6) 
[H]c1sc2c(C([H])([H])[H])nc3nnnn3c2c1[H]

$$$$
2:0:0
     RDKit          3D

 47 50  0  0  1  0  0  0  0  0999 V2000
    3.3854   -0.1368   -4.6129 C   0  0  0  0  0  0  0  0  0  0  0  0
    4.2644   -1.1792   -4.2068 O   0  0  0  0  0  0  0  0  0  0  0  0
    4.0367   -1.6524   -2.8809 C   0  0  2  0  0  0  0  0  0  0  0  0
    4.6812   -0.6982   -1.8629 C   0  0  0  0  0  0  0  0  0  0  0  0
    4.5435   -1.1759   -0.4018 C   0  0  2  0  0  0  0  0  0  0  0  0
    5.1761   -0.1642    0.5767 C   0  0  0  0  0  0  0  0  0  0  0  0
    5.3516   -0.6875    1.9837 C   0  0  0  0  0  0  0  0  0  0  0  0
    5.1597   -1.9712    2.3150 C   0  0  0  0  0  0  0  0  0  0  0  0
    4.7514   -3.0406    1.3166 C   0  0  2  0  0  0  0  0  0  0  0  0
    5.4627   -4.2224    1.6199 O   0  0  0  0  0  0  0  0  0  0  0  0
    4.4839   -5.3135    1.3835 O   0  0  0  0  0  0  0  0  0  0  0  0
    3.2180   -4.6792    1.3962 C   0  0  2  0  0  0  0  0  0  0  0  0
    2.3990   -5.2256    2.5737 C   0  0  0  0  0  0  0  0  0  0  0  0
    2.5460   -4.9109    0.0449 C   0  0  0  0  0  0  0  0  0  0  0  0
    2.8870   -3.8551   -1.0171 C   0  0  0  0  0  0  0  0  0  0  0  0
    4.4060   -3.5879   -1.2594 C   0  0  1  0  0  0  0  0  0  0  0  0
    4.6599   -3.0520   -2.7076 C   0  0  1  0  0  0  0  0  0  0  0  0
    4.2471   -4.0167   -3.8278 C   0  0  0  0  0  0  0  0  0  0  0  0
    5.0629   -2.6315   -0.1817 C   0  0  1  0  0  0  0  0  0  0  0  0
    6.6162   -2.6815   -0.3580 C   0  0  0  0  0  0  0  0  0  0  0  0
    3.3828   -3.2846    1.5618 O   0  0  0  0  0  0  0  0  0  0  0  0
    3.6453    0.1816   -5.6232 H   0  0  0  0  0  0  0  0  0  0  0  0
    3.4558    0.7407   -3.9683 H   0  0  0  0  0  0  0  0  0  0  0  0
    2.3483   -0.4791   -4.6253 H   0  0  0  0  0  0  0  0  0  0  0  0
    2.9623   -1.7100   -2.7046 H   0  0  0  0  0  0  0  0  0  0  0  0
    5.7261   -0.5367   -2.1161 H   0  0  0  0  0  0  0  0  0  0  0  0
    4.2171    0.2744   -1.9521 H   0  0  0  0  0  0  0  0  0  0  0  0
    3.4809   -1.1721   -0.1643 H   0  0  0  0  0  0  0  0  0  0  0  0
    6.1669    0.1306    0.2319 H   0  0  0  0  0  0  0  0  0  0  0  0
    4.5415    0.7232    0.6221 H   0  0  0  0  0  0  0  0  0  0  0  0
    5.6578    0.0333    2.7276 H   0  0  0  0  0  0  0  0  0  0  0  0
    5.2989   -2.2941    3.3344 H   0  0  0  0  0  0  0  0  0  0  0  0
    2.9084   -5.0526    3.5193 H   0  0  0  0  0  0  0  0  0  0  0  0
    2.2448   -6.2967    2.4692 H   0  0  0  0  0  0  0  0  0  0  0  0
    1.4203   -4.7518    2.6337 H   0  0  0  0  0  0  0  0  0  0  0  0
    2.7966   -5.9062   -0.3106 H   0  0  0  0  0  0  0  0  0  0  0  0
    1.4669   -4.9067    0.1679 H   0  0  0  0  0  0  0  0  0  0  0  0
    2.4074   -4.2258   -1.9178 H   0  0  0  0  0  0  0  0  0  0  0  0
    2.3644   -2.9260   -0.7942 H   0  0  0  0  0  0  0  0  0  0  0  0
    4.9039   -4.5554   -1.1929 H   0  0  0  0  0  0  0  0  0  0  0  0
    5.7344   -2.9504   -2.8510 H   0  0  0  0  0  0  0  0  0  0  0  0
    3.1681   -4.0540   -3.9631 H   0  0  0  0  0  0  0  0  0  0  0  0
    4.6138   -5.0249   -3.6306 H   0  0  0  0  0  0  0  0  0  0  0  0
    4.6888   -3.7037   -4.7673 H   0  0  0  0  0  0  0  0  0  0  0  0
    6.9800   -3.7141   -0.3866 H   0  0  0  0  0  0  0  0  0  0  0  0
    7.1474   -2.1853    0.4595 H   0  0  0  0  0  0  0  0  0  0  0  0
    6.9504   -2.2033   -1.2753 H   0  0  0  0  0  0  0  0  0  0  0  0
  1  2  1  0
  1 22  1  0
  1 23  1  0
  1 24  1  0
  2  3  1  0
  3 17  1  0
  3  4  1  0
  3 25  1  1
  4  5  1  0
  4 26  1  0
  4 27  1  0
  5 19  1  0
  5  6  1  0
  5 28  1  1
  6  7  1  0
  6 29  1  0
  6 30  1  0
  7  8  2  0
  7 31  1  0
  8  9  1  0
  8 32  1  0
  9 19  1  0
  9 21  1  0
  9 10  1  1
 10 11  1  0
 11 12  1  0
 12 13  1  1
 12 14  1  0
 12 21  1  0
 13 33  1  0
 13 34  1  0
 13 35  1  0
 14 15  1  0
 14 36  1  0
 14 37  1  0
 15 16  1  0
 15 38  1  0
 15 39  1  0
 16 17  1  0
 16 19  1  0
 16 40  1  6
 17 18  1  0
 17 41  1  1
 18 42  1  0
 18 43  1  0
 18 44  1  0
 19 20  1  1
 20 45  1  0
 20 46  1  0
 20 47  1  0
M  END
>  <i_m_ct_stereo_status>  (7) 
1

>  <s_m_source_file>  (7) 
/var/tmp/pbs.5076255.sched01/tmpu5rzjxe4/0gixxd53k.sdf

>  <i_m_source_file_index>  (7) 
3

>  <i_lp_mmshare_version>  (7) 
48012

>  <i_f3d_flags>  (7) 
0

>  <s_epik_input>  (7) 
W0NIXTE9W0NIXVtDSDJdW0NASF0oW0NAXTIoW0NAXTEzNClbQ0gzXSlbQ0gyXVtDQEBIXShPW0NIM10pW0NASF0oW0NIM10pW0NAQEhdMltDSDJdW0NIMl1bQ0BdKE80KShPTzMpW0NIM10=

>  <s_epik_cmdline>  (7) 
J2VwaWtfcHl0aG9uJywgJy1waHQnLCAnMi4wJywgJy1waCcsICc3LjAnLCAnLXRuJywgJzgnLCAnLW1hJywgJzIwMCcsICctaW1hZScsICc8aW5maWxlLm1hZT4nLCAnLW9tYWUnLCAnPG91dGZpbGUubWFlPic=

>  <r_lp_tautomer_probability>  (7) 
1

>  <r_epik_Ionization_Penalty>  (7) 
3.48151e-11

>  <r_epik_Ionization_Penalty_Charging>  (7) 
0

>  <r_epik_Ionization_Penalty_Neutral>  (7) 
3.48151e-11

>  <r_epik_State_Penalty>  (7) 
-0

>  <r_epik_Charging_Adjusted_Penalty>  (7) 
0

>  <i_epik_Tot_Q>  (7) 
0

>  <i_epik_Tot_abs_Q>  (7) 
0

>  <s_lp_Force_Field>  (7) 
OPLS3e

>  <r_lp_Energy>  (7) 
29.6316

>  <b_lp_Chiralities_Consistent>  (7) 
1

>  <s_lp_Variant>  (7) 
2:0-1

>  <s_i_glide_gridfile>  (7) 
pfpi4k_grid

>  <i_i_glide_lignum>  (7) 
3

>  <i_i_glide_rotatable_bonds>  (7) 
1

>  <r_i_docking_score>  (7) 
-3.61254

>  <r_i_glide_ligand_efficiency>  (7) 
-0.172026

>  <r_i_glide_ligand_efficiency_sa>  (7) 
-0.474606

>  <r_i_glide_ligand_efficiency_ln>  (7) 
-0.893193

>  <r_i_glide_gscore>  (7) 
-3.61254

>  <r_i_glide_lipo>  (7) 
-0.706846

>  <r_i_glide_hbond>  (7) 
-0.111065

>  <r_i_glide_metal>  (7) 
-0

>  <r_i_glide_rewards>  (7) 
-1.44125

>  <r_i_glide_evdw>  (7) 
-22.57

>  <r_i_glide_ecoul>  (7) 
-1.49917

>  <r_i_glide_erotb>  (7) 
0

>  <r_i_glide_esite>  (7) 
0

>  <r_i_glide_emodel>  (7) 
-28.8999

>  <r_i_glide_energy>  (7) 
-24.0692

>  <r_i_glide_einternal>  (7) 
0.00595335

>  <r_i_glide_intrahb_reward>  (7) 
-0

>  <i_i_glide_confnum>  (7) 
2

>  <i_i_glide_posenum>  (7) 
32

>  <r_i_glide_eff_state_penalty>  (7) 
0

>  <ligand_id>  (7) 
2

>  <original_smiles>  (7) 
COC1CC2CC=CC34OOC(C)(CCC(C1C)C23C)O4

>  <smiles>  (7) 
[H]C1=C([H])C23OOC(C([H])([H])[H])(O2)C([H])([H])C([H])([H])C2([H])C([H])(C([H])([H])[H])C([H])(OC([H])([H])[H])C([H])([H])C([H])(C1([H])[H])C32C([H])([H])[H]

$$$$
2:0:1
     RDKit          3D

 47 50  0  0  1  0  0  0  0  0999 V2000
    4.4161   -2.8257    4.8489 C   0  0  0  0  0  0  0  0  0  0  0  0
    4.0355   -3.9109    4.0095 O   0  0  0  0  0  0  0  0  0  0  0  0
    4.2324   -3.8069    2.5911 C   0  0  2  0  0  0  0  0  0  0  0  0
    5.7317   -3.8473    2.2464 C   0  0  0  0  0  0  0  0  0  0  0  0
    6.0367   -3.6867    0.7433 C   0  0  2  0  0  0  0  0  0  0  0  0
    7.5698   -3.6775    0.5291 C   0  0  0  0  0  0  0  0  0  0  0  0
    7.9700   -3.1833   -0.8466 C   0  0  0  0  0  0  0  0  0  0  0  0
    7.1042   -2.6576   -1.7120 C   0  0  0  0  0  0  0  0  0  0  0  0
    5.6343   -2.4475   -1.4200 C   0  0  2  0  0  0  0  0  0  0  0  0
    5.2260   -1.1935   -1.9433 O   0  0  0  0  0  0  0  0  0  0  0  0
    3.8845   -1.4419   -2.5102 O   0  0  0  0  0  0  0  0  0  0  0  0
    3.7739   -2.8609   -2.6150 C   0  0  2  0  0  0  0  0  0  0  0  0
    3.5907   -3.2138   -4.0862 C   0  0  0  0  0  0  0  0  0  0  0  0
    2.6177   -3.3443   -1.7449 C   0  0  0  0  0  0  0  0  0  0  0  0
    2.9944   -3.6144   -0.2856 C   0  0  0  0  0  0  0  0  0  0  0  0
    3.7692   -2.4925    0.4449 C   0  0  1  0  0  0  0  0  0  0  0  0
    3.5349   -2.5629    1.9828 C   0  0  1  0  0  0  0  0  0  0  0  0
    2.0538   -2.4398    2.4117 C   0  0  0  0  0  0  0  0  0  0  0  0
    5.3188   -2.4488    0.1159 C   0  0  1  0  0  0  0  0  0  0  0  0
    5.9127   -1.1127    0.6974 C   0  0  0  0  0  0  0  0  0  0  0  0
    4.9612   -3.4673   -2.1324 O   0  0  0  0  0  0  0  0  0  0  0  0
    4.2395   -3.1175    5.8881 H   0  0  0  0  0  0  0  0  0  0  0  0
    3.8255   -1.9261    4.6697 H   0  0  0  0  0  0  0  0  0  0  0  0
    5.4705   -2.5657    4.7575 H   0  0  0  0  0  0  0  0  0  0  0  0
    3.7894   -4.7101    2.1699 H   0  0  0  0  0  0  0  0  0  0  0  0
    6.2107   -3.0292    2.7617 H   0  0  0  0  0  0  0  0  0  0  0  0
    6.1859   -4.7702    2.6126 H   0  0  0  0  0  0  0  0  0  0  0  0
    5.6742   -4.5768    0.2251 H   0  0  0  0  0  0  0  0  0  0  0  0
    8.0696   -3.0454    1.2660 H   0  0  0  0  0  0  0  0  0  0  0  0
    7.9615   -4.6856    0.6635 H   0  0  0  0  0  0  0  0  0  0  0  0
    9.0138   -3.3054   -1.1195 H   0  0  0  0  0  0  0  0  0  0  0  0
    7.4221   -2.3573   -2.6979 H   0  0  0  0  0  0  0  0  0  0  0  0
    4.4251   -2.8608   -4.6959 H   0  0  0  0  0  0  0  0  0  0  0  0
    2.6755   -2.7677   -4.4678 H   0  0  0  0  0  0  0  0  0  0  0  0
    3.5125   -4.2927   -4.2264 H   0  0  0  0  0  0  0  0  0  0  0  0
    1.7814   -2.6518   -1.8327 H   0  0  0  0  0  0  0  0  0  0  0  0
    2.1965   -4.2464   -2.1565 H   0  0  0  0  0  0  0  0  0  0  0  0
    2.0513   -3.8036    0.2118 H   0  0  0  0  0  0  0  0  0  0  0  0
    3.5351   -4.5638   -0.2253 H   0  0  0  0  0  0  0  0  0  0  0  0
    3.3299   -1.5453    0.1128 H   0  0  0  0  0  0  0  0  0  0  0  0
    4.0060   -1.6703    2.3781 H   0  0  0  0  0  0  0  0  0  0  0  0
    1.4816   -3.3426    2.2145 H   0  0  0  0  0  0  0  0  0  0  0  0
    1.5735   -1.5991    1.9184 H   0  0  0  0  0  0  0  0  0  0  0  0
    1.9567   -2.2727    3.4838 H   0  0  0  0  0  0  0  0  0  0  0  0
    5.3128   -0.2486    0.4081 H   0  0  0  0  0  0  0  0  0  0  0  0
    6.9331   -0.9132    0.3543 H   0  0  0  0  0  0  0  0  0  0  0  0
    5.9716   -1.1051    1.7794 H   0  0  0  0  0  0  0  0  0  0  0  0
  1  2  1  0
  1 22  1  0
  1 23  1  0
  1 24  1  0
  2  3  1  0
  3 17  1  0
  3  4  1  0
  3 25  1  6
  4  5  1  0
  4 26  1  0
  4 27  1  0
  5 19  1  0
  5  6  1  0
  5 28  1  6
  6  7  1  0
  6 29  1  0
  6 30  1  0
  7  8  2  0
  7 31  1  0
  8  9  1  0
  8 32  1  0
  9 19  1  0
  9 21  1  0
  9 10  1  6
 10 11  1  0
 11 12  1  0
 12 13  1  6
 12 14  1  0
 12 21  1  0
 13 33  1  0
 13 34  1  0
 13 35  1  0
 14 15  1  0
 14 36  1  0
 14 37  1  0
 15 16  1  0
 15 38  1  0
 15 39  1  0
 16 17  1  0
 16 19  1  0
 16 40  1  6
 17 18  1  0
 17 41  1  1
 18 42  1  0
 18 43  1  0
 18 44  1  0
 19 20  1  1
 20 45  1  0
 20 46  1  0
 20 47  1  0
M  END
>  <i_m_ct_stereo_status>  (8) 
1

>  <s_m_source_file>  (8) 
/var/tmp/pbs.5076255.sched01/tmpu5rzjxe4/0gixxd53k.sdf

>  <i_m_source_file_index>  (8) 
3

>  <i_lp_mmshare_version>  (8) 
48012

>  <i_f3d_flags>  (8) 
0

>  <s_epik_input>  (8) 
W0NIXTE9W0NIXVtDSDJdW0NASF0oW0NAXTIoW0NAXTEzNClbQ0gzXSlbQ0gyXVtDQEBIXShPW0NIM10pW0NASF0oW0NIM10pW0NAQEhdMltDSDJdW0NIMl1bQ0BdKE80KShPTzMpW0NIM10=

>  <s_epik_cmdline>  (8) 
J2VwaWtfcHl0aG9uJywgJy1waHQnLCAnMi4wJywgJy1waCcsICc3LjAnLCAnLXRuJywgJzgnLCAnLW1hJywgJzIwMCcsICctaW1hZScsICc8aW5maWxlLm1hZT4nLCAnLW9tYWUnLCAnPG91dGZpbGUubWFlPic=

>  <r_lp_tautomer_probability>  (8) 
1

>  <r_epik_Ionization_Penalty>  (8) 
3.48151e-11

>  <r_epik_Ionization_Penalty_Charging>  (8) 
0

>  <r_epik_Ionization_Penalty_Neutral>  (8) 
3.48151e-11

>  <r_epik_State_Penalty>  (8) 
-0

>  <r_epik_Charging_Adjusted_Penalty>  (8) 
0

>  <i_epik_Tot_Q>  (8) 
0

>  <i_epik_Tot_abs_Q>  (8) 
0

>  <s_lp_Force_Field>  (8) 
OPLS3e

>  <r_lp_Energy>  (8) 
29.6316

>  <b_lp_Chiralities_Consistent>  (8) 
1

>  <s_lp_Variant>  (8) 
2:0-1

>  <s_i_glide_gridfile>  (8) 
pfpi4k_grid

>  <i_i_glide_lignum>  (8) 
3

>  <i_i_glide_rotatable_bonds>  (8) 
1

>  <r_i_docking_score>  (8) 
-3.23396

>  <r_i_glide_ligand_efficiency>  (8) 
-0.153998

>  <r_i_glide_ligand_efficiency_sa>  (8) 
-0.424869

>  <r_i_glide_ligand_efficiency_ln>  (8) 
-0.79959

>  <r_i_glide_gscore>  (8) 
-3.23396

>  <r_i_glide_lipo>  (8) 
-0.62715

>  <r_i_glide_hbond>  (8) 
0

>  <r_i_glide_metal>  (8) 
-0

>  <r_i_glide_rewards>  (8) 
-1.40191

>  <r_i_glide_evdw>  (8) 
-20.1293

>  <r_i_glide_ecoul>  (8) 
-1.05022

>  <r_i_glide_erotb>  (8) 
0

>  <r_i_glide_esite>  (8) 
-0.0408969

>  <r_i_glide_emodel>  (8) 
-23.7196

>  <r_i_glide_energy>  (8) 
-21.1795

>  <r_i_glide_einternal>  (8) 
3.438

>  <r_i_glide_intrahb_reward>  (8) 
-0

>  <i_i_glide_confnum>  (8) 
2

>  <i_i_glide_posenum>  (8) 
36

>  <r_i_glide_eff_state_penalty>  (8) 
0

>  <ligand_id>  (8) 
2

>  <original_smiles>  (8) 
COC1CC2CC=CC34OOC(C)(CCC(C1C)C23C)O4

>  <smiles>  (8) 
[H]C1=C([H])C23OOC(C([H])([H])[H])(O2)C([H])([H])C([H])([H])C2([H])C([H])(C([H])([H])[H])C([H])(OC([H])([H])[H])C([H])([H])C([H])(C1([H])[H])C32C([H])([H])[H]

$$$$
2:0:2
     RDKit          3D

 47 50  0  0  1  0  0  0  0  0999 V2000
    4.1055   -0.1878   -4.7702 C   0  0  0  0  0  0  0  0  0  0  0  0
    3.0318   -0.8927   -4.1897 O   0  0  0  0  0  0  0  0  0  0  0  0
    3.2877   -1.5897   -2.9618 C   0  0  2  0  0  0  0  0  0  0  0  0
    4.2445   -0.8471   -2.0154 C   0  0  0  0  0  0  0  0  0  0  0  0
    4.4054   -1.5036   -0.6284 C   0  0  2  0  0  0  0  0  0  0  0  0
    5.3785   -0.6488    0.1992 C   0  0  0  0  0  0  0  0  0  0  0  0
    5.9531   -1.3806    1.3874 C   0  0  0  0  0  0  0  0  0  0  0  0
    5.7913   -2.6920    1.6006 C   0  0  0  0  0  0  0  0  0  0  0  0
    5.0250   -3.6006    0.6488 C   0  0  2  0  0  0  0  0  0  0  0  0
    5.7037   -4.8336    0.5389 O   0  0  0  0  0  0  0  0  0  0  0  0
    4.6142   -5.8480    0.4753 O   0  0  0  0  0  0  0  0  0  0  0  0
    3.4694   -5.1779    0.9696 C   0  0  2  0  0  0  0  0  0  0  0  0
    2.9922   -5.8611    2.2530 C   0  0  0  0  0  0  0  0  0  0  0  0
    2.3839   -5.1678   -0.0965 C   0  0  0  0  0  0  0  0  0  0  0  0
    2.5067   -3.9973   -1.1013 C   0  0  0  0  0  0  0  0  0  0  0  0
    3.9221   -3.7359   -1.7261 C   0  0  1  0  0  0  0  0  0  0  0  0
    3.8019   -3.0266   -3.1167 C   0  0  1  0  0  0  0  0  0  0  0  0
    2.9866   -3.7739   -4.1550 C   0  0  0  0  0  0  0  0  0  0  0  0
    4.9058   -2.9663   -0.7807 C   0  0  1  0  0  0  0  0  0  0  0  0
    6.3291   -3.0290   -1.4297 C   0  0  0  0  0  0  0  0  0  0  0  0
    3.7825   -3.8328    1.2624 O   0  0  0  0  0  0  0  0  0  0  0  0
    3.8379    0.1692   -5.7713 H   0  0  0  0  0  0  0  0  0  0  0  0
    4.9476   -0.8708   -4.8299 H   0  0  0  0  0  0  0  0  0  0  0  0
    4.3496    0.6849   -4.1661 H   0  0  0  0  0  0  0  0  0  0  0  0
    2.2982   -1.6699   -2.5238 H   0  0  0  0  0  0  0  0  0  0  0  0
    5.2479   -0.7653   -2.4370 H   0  0  0  0  0  0  0  0  0  0  0  0
    3.9335    0.1499   -1.9523 H   0  0  0  0  0  0  0  0  0  0  0  0
    3.4480   -1.5138   -0.0943 H   0  0  0  0  0  0  0  0  0  0  0  0
    6.2169   -0.3362   -0.4187 H   0  0  0  0  0  0  0  0  0  0  0  0
    4.8523    0.2470    0.5253 H   0  0  0  0  0  0  0  0  0  0  0  0
    6.5290   -0.7701    2.0648 H   0  0  0  0  0  0  0  0  0  0  0  0
    6.2018   -3.1850    2.4738 H   0  0  0  0  0  0  0  0  0  0  0  0
    3.7637   -5.8404    3.0220 H   0  0  0  0  0  0  0  0  0  0  0  0
    2.7331   -6.9037    2.0567 H   0  0  0  0  0  0  0  0  0  0  0  0
    2.1029   -5.3673    2.6516 H   0  0  0  0  0  0  0  0  0  0  0  0
    2.4016   -6.1486   -0.5721 H   0  0  0  0  0  0  0  0  0  0  0  0
    1.4068   -5.1164    0.3802 H   0  0  0  0  0  0  0  0  0  0  0  0
    1.7817   -4.2125   -1.8781 H   0  0  0  0  0  0  0  0  0  0  0  0
    2.1167   -3.0967   -0.6296 H   0  0  0  0  0  0  0  0  0  0  0  0
    4.4257   -4.6871   -1.8916 H   0  0  0  0  0  0  0  0  0  0  0  0
    4.7863   -3.0234   -3.5674 H   0  0  0  0  0  0  0  0  0  0  0  0
    1.9121   -3.8170   -3.9668 H   0  0  0  0  0  0  0  0  0  0  0  0
    3.3718   -4.7800   -4.3180 H   0  0  0  0  0  0  0  0  0  0  0  0
    3.1191   -3.1950   -5.0631 H   0  0  0  0  0  0  0  0  0  0  0  0
    6.5499   -4.0554   -1.6919 H   0  0  0  0  0  0  0  0  0  0  0  0
    7.1290   -2.6934   -0.7652 H   0  0  0  0  0  0  0  0  0  0  0  0
    6.4333   -2.4799   -2.3619 H   0  0  0  0  0  0  0  0  0  0  0  0
  1  2  1  0
  1 22  1  0
  1 23  1  0
  1 24  1  0
  2  3  1  0
  3 17  1  0
  3  4  1  0
  3 25  1  1
  4  5  1  0
  4 26  1  0
  4 27  1  0
  5 19  1  0
  5  6  1  0
  5 28  1  1
  6  7  1  0
  6 29  1  0
  6 30  1  0
  7  8  2  0
  7 31  1  0
  8  9  1  0
  8 32  1  0
  9 19  1  0
  9 21  1  0
  9 10  1  6
 10 11  1  0
 11 12  1  0
 12 13  1  1
 12 14  1  0
 12 21  1  0
 13 33  1  0
 13 34  1  0
 13 35  1  0
 14 15  1  0
 14 36  1  0
 14 37  1  0
 15 16  1  0
 15 38  1  0
 15 39  1  0
 16 17  1  0
 16 19  1  0
 16 40  1  6
 17 18  1  0
 17 41  1  6
 18 42  1  0
 18 43  1  0
 18 44  1  0
 19 20  1  6
 20 45  1  0
 20 46  1  0
 20 47  1  0
M  END
>  <i_m_ct_stereo_status>  (9) 
1

>  <s_m_source_file>  (9) 
/var/tmp/pbs.5076255.sched01/tmpu5rzjxe4/0gixxd53k.sdf

>  <i_m_source_file_index>  (9) 
3

>  <i_lp_mmshare_version>  (9) 
48012

>  <i_f3d_flags>  (9) 
0

>  <s_epik_input>  (9) 
W0NIXTE9W0NIXVtDSDJdW0NASF0oW0NAXTIoW0NAXTEzNClbQ0gzXSlbQ0gyXVtDQEBIXShPW0NIM10pW0NASF0oW0NIM10pW0NAQEhdMltDSDJdW0NIMl1bQ0BdKE80KShPTzMpW0NIM10=

>  <s_epik_cmdline>  (9) 
J2VwaWtfcHl0aG9uJywgJy1waHQnLCAnMi4wJywgJy1waCcsICc3LjAnLCAnLXRuJywgJzgnLCAnLW1hJywgJzIwMCcsICctaW1hZScsICc8aW5maWxlLm1hZT4nLCAnLW9tYWUnLCAnPG91dGZpbGUubWFlPic=

>  <r_lp_tautomer_probability>  (9) 
1

>  <r_epik_Ionization_Penalty>  (9) 
3.48151e-11

>  <r_epik_Ionization_Penalty_Charging>  (9) 
0

>  <r_epik_Ionization_Penalty_Neutral>  (9) 
3.48151e-11

>  <r_epik_State_Penalty>  (9) 
-0

>  <r_epik_Charging_Adjusted_Penalty>  (9) 
0

>  <i_epik_Tot_Q>  (9) 
0

>  <i_epik_Tot_abs_Q>  (9) 
0

>  <s_lp_Force_Field>  (9) 
OPLS3e

>  <r_lp_Energy>  (9) 
29.6316

>  <b_lp_Chiralities_Consistent>  (9) 
1

>  <s_lp_Variant>  (9) 
2:0-1

>  <s_i_glide_gridfile>  (9) 
pfpi4k_grid

>  <i_i_glide_lignum>  (9) 
3

>  <i_i_glide_rotatable_bonds>  (9) 
1

>  <r_i_docking_score>  (9) 
-2.81798

>  <r_i_glide_ligand_efficiency>  (9) 
-0.134189

>  <r_i_glide_ligand_efficiency_sa>  (9) 
-0.370219

>  <r_i_glide_ligand_efficiency_ln>  (9) 
-0.69674

>  <r_i_glide_gscore>  (9) 
-2.81798

>  <r_i_glide_lipo>  (9) 
-0.760659

>  <r_i_glide_hbond>  (9) 
0

>  <r_i_glide_metal>  (9) 
-0

>  <r_i_glide_rewards>  (9) 
-1.45109

>  <r_i_glide_evdw>  (9) 
-15.6085

>  <r_i_glide_ecoul>  (9) 
1.18156

>  <r_i_glide_erotb>  (9) 
0

>  <r_i_glide_esite>  (9) 
-0.00303989

>  <r_i_glide_emodel>  (9) 
-13.3696

>  <r_i_glide_energy>  (9) 
-14.4269

>  <r_i_glide_einternal>  (9) 
7.9574

>  <r_i_glide_intrahb_reward>  (9) 
-0

>  <i_i_glide_confnum>  (9) 
1

>  <i_i_glide_posenum>  (9) 
16

>  <r_i_glide_eff_state_penalty>  (9) 
0

>  <ligand_id>  (9) 
2

>  <original_smiles>  (9) 
COC1CC2CC=CC34OOC(C)(CCC(C1C)C23C)O4

>  <smiles>  (9) 
[H]C1=C([H])C23OOC(C([H])([H])[H])(O2)C([H])([H])C([H])([H])C2([H])C([H])(C([H])([H])[H])C([H])(OC([H])([H])[H])C([H])([H])C([H])(C1([H])[H])C32C([H])([H])[H]

$$$$
3:0:0
     RDKit          3D

 34 37  0  0  1  0  0  0  0  0999 V2000
    5.5402   -5.3000    0.1081 C   0  0  0  0  0  0  0  0  0  0  0  0
    5.0173   -3.8951   -0.2318 C   0  0  2  0  0  0  0  0  0  0  0  0
    3.6123   -3.9690   -0.4165 O   0  0  0  0  0  0  0  0  0  0  0  0
    3.1507   -2.6310   -0.5123 C   0  0  2  0  0  0  0  0  0  0  0  0
    2.8396   -2.2916   -1.9866 C   0  0  0  0  0  0  0  0  0  0  0  0
    3.8814   -2.7287   -3.0681 C   0  0  1  0  0  0  0  0  0  0  0  0
    4.4221   -1.5986   -3.7255 O   0  0  0  0  0  0  0  0  0  0  0  0
    4.8262   -3.7075   -2.6564 O   0  0  0  0  0  0  0  0  0  0  0  0
    5.6508   -3.3566   -1.5730 C   0  0  1  0  0  0  0  0  0  0  0  0
    5.9655   -1.9861   -1.5192 O   0  0  0  0  0  0  0  0  0  0  0  0
    5.4965   -1.2804   -0.3835 C   0  0  2  0  0  0  0  0  0  0  0  0
    6.2329   -1.8331    0.8228 C   0  0  0  0  0  0  0  0  0  0  0  0
    5.0945   -2.8497    0.8894 C   0  0  2  0  0  0  0  0  0  0  0  0
    4.7050   -3.3972    2.2603 C   0  0  0  0  0  0  0  0  0  0  0  0
    4.1926   -1.7964    0.2679 C   0  0  2  0  0  0  0  0  0  0  0  0
    3.4658   -0.7816    1.1598 C   0  0  0  0  0  0  0  0  0  0  0  0
    6.5986   -5.2885    0.3728 H   0  0  0  0  0  0  0  0  0  0  0  0
    5.4006   -5.9669   -0.7411 H   0  0  0  0  0  0  0  0  0  0  0  0
    4.9865   -5.7406    0.9383 H   0  0  0  0  0  0  0  0  0  0  0  0
    2.2071   -2.6327    0.0228 H   0  0  0  0  0  0  0  0  0  0  0  0
    1.9087   -2.8012   -2.2441 H   0  0  0  0  0  0  0  0  0  0  0  0
    2.6402   -1.2220   -2.0952 H   0  0  0  0  0  0  0  0  0  0  0  0
    3.3451   -3.2588   -3.8552 H   0  0  0  0  0  0  0  0  0  0  0  0
    4.5535   -0.9330   -3.0529 H   0  0  0  0  0  0  0  0  0  0  0  0
    6.6060   -3.8363   -1.7639 H   0  0  0  0  0  0  0  0  0  0  0  0
    5.5761   -0.2066   -0.4613 H   0  0  0  0  0  0  0  0  0  0  0  0
    7.2101   -2.2723    0.6265 H   0  0  0  0  0  0  0  0  0  0  0  0
    6.2597   -1.1487    1.6726 H   0  0  0  0  0  0  0  0  0  0  0  0
    4.6320   -2.5933    2.9926 H   0  0  0  0  0  0  0  0  0  0  0  0
    5.4370   -4.1071    2.6473 H   0  0  0  0  0  0  0  0  0  0  0  0
    3.7332   -3.8938    2.2369 H   0  0  0  0  0  0  0  0  0  0  0  0
    4.1550   -0.2398    1.8005 H   0  0  0  0  0  0  0  0  0  0  0  0
    2.7375   -1.2685    1.8057 H   0  0  0  0  0  0  0  0  0  0  0  0
    2.9301   -0.0442    0.5615 H   0  0  0  0  0  0  0  0  0  0  0  0
  2  1  1  1
  1 17  1  0
  1 18  1  0
  1 19  1  0
  2  9  1  0
  2 13  1  0
  2  3  1  0
  3  4  1  0
  4 15  1  0
  4  5  1  0
  4 20  1  1
  5  6  1  0
  5 21  1  0
  5 22  1  0
  6  7  1  0
  6  8  1  0
  6 23  1  6
  7 24  1  0
  8  9  1  0
  9 10  1  0
  9 25  1  6
 10 11  1  0
 11 15  1  0
 11 12  1  0
 11 26  1  6
 12 13  1  0
 12 27  1  0
 12 28  1  0
 13 14  1  1
 13 15  1  0
 14 29  1  0
 14 30  1  0
 14 31  1  0
 15 16  1  1
 16 32  1  0
 16 33  1  0
 16 34  1  0
M  END
>  <i_m_ct_stereo_status>  (10) 
1

>  <s_m_source_file>  (10) 
/var/tmp/pbs.5076255.sched01/tmpu5rzjxe4/0gixxd53k.sdf

>  <i_m_source_file_index>  (10) 
4

>  <i_lp_mmshare_version>  (10) 
48012

>  <i_f3d_flags>  (10) 
0

>  <s_epik_input>  (10) 
W0NIM11bQ0BAXTEyW0NASF0zT1tDQEhdKFtPSF0pW0NIMl1bQ0BASF0oTzEpW0NAXTQoW0NIM10pW0NASF0oTzMpW0NIMl1bQ0BdMjRbQ0gzXQ==

>  <s_epik_cmdline>  (10) 
J2VwaWtfcHl0aG9uJywgJy1waHQnLCAnMi4wJywgJy1waCcsICc3LjAnLCAnLXRuJywgJzgnLCAnLW1hJywgJzIwMCcsICctaW1hZScsICc8aW5maWxlLm1hZT4nLCAnLW9tYWUnLCAnPG91dGZpbGUubWFlPic=

>  <r_lp_tautomer_probability>  (10) 
1

>  <r_epik_Ionization_Penalty>  (10) 
3.44752e-07

>  <r_epik_Ionization_Penalty_Charging>  (10) 
0

>  <r_epik_Ionization_Penalty_Neutral>  (10) 
3.44752e-07

>  <r_epik_State_Penalty>  (10) 
-0

>  <r_epik_Charging_Adjusted_Penalty>  (10) 
0

>  <i_epik_Tot_Q>  (10) 
0

>  <i_epik_Tot_abs_Q>  (10) 
0

>  <s_epik_Chemistry_Notes>  (10) 
This compound contains an acetal/aminal-like group ( X-CH(R)-Y where X, Y are N, S, or O) that may be acid/base labile, releasing an aldehyde.

>  <s_lp_Force_Field>  (10) 
OPLS3e

>  <r_lp_Energy>  (10) 
48.2533

>  <b_lp_Chiralities_Consistent>  (10) 
1

>  <s_lp_Variant>  (10) 
3:0-1

>  <s_i_glide_gridfile>  (10) 
pfpi4k_grid

>  <i_i_glide_lignum>  (10) 
4

>  <i_i_glide_rotatable_bonds>  (10) 
1

>  <r_i_docking_score>  (10) 
-3.7131

>  <r_i_glide_ligand_efficiency>  (10) 
-0.232069

>  <r_i_glide_ligand_efficiency_sa>  (10) 
-0.584777

>  <r_i_glide_ligand_efficiency_ln>  (10) 
-0.984232

>  <r_i_glide_gscore>  (10) 
-3.7131

>  <r_i_glide_lipo>  (10) 
-0.287158

>  <r_i_glide_hbond>  (10) 
-0.0596315

>  <r_i_glide_metal>  (10) 
-0

>  <r_i_glide_rewards>  (10) 
-2.17332

>  <r_i_glide_evdw>  (10) 
-17.1759

>  <r_i_glide_ecoul>  (10) 
-2.228

>  <r_i_glide_erotb>  (10) 
0

>  <r_i_glide_esite>  (10) 
0

>  <r_i_glide_emodel>  (10) 
-23.3088

>  <r_i_glide_energy>  (10) 
-19.4039

>  <r_i_glide_einternal>  (10) 
0.624669

>  <r_i_glide_intrahb_reward>  (10) 
-0

>  <i_i_glide_confnum>  (10) 
1

>  <i_i_glide_posenum>  (10) 
1

>  <r_i_glide_eff_state_penalty>  (10) 
0

>  <ligand_id>  (10) 
3

>  <original_smiles>  (10) 
CC12OC3CC(O)OC1OC1CC2(C)C13C

>  <smiles>  (10) 
[H]OC1([H])OC2([H])OC3([H])C([H])([H])C4(C([H])([H])[H])C2(C([H])([H])[H])OC([H])(C1([H])[H])C34C([H])([H])[H]

$$$$
3:0:1
     RDKit          3D

 34 37  0  0  1  0  0  0  0  0999 V2000
    5.5519   -0.7151   -1.1535 C   0  0  0  0  0  0  0  0  0  0  0  0
    4.8576   -1.9477   -0.6712 C   0  0  2  0  0  0  0  0  0  0  0  0
    3.9043   -1.6042    0.3244 O   0  0  0  0  0  0  0  0  0  0  0  0
    3.1342   -2.7728    0.5611 C   0  0  2  0  0  0  0  0  0  0  0  0
    3.5693   -3.4228    1.8922 C   0  0  0  0  0  0  0  0  0  0  0  0
    5.1114   -3.5525    2.1462 C   0  0  1  0  0  0  0  0  0  0  0  0
    5.5293   -4.9010    2.1822 O   0  0  0  0  0  0  0  0  0  0  0  0
    5.9130   -2.7149    1.3589 O   0  0  0  0  0  0  0  0  0  0  0  0
    5.8874   -2.9273   -0.0241 C   0  0  1  0  0  0  0  0  0  0  0  0
    5.6410   -4.2685   -0.3613 O   0  0  0  0  0  0  0  0  0  0  0  0
    4.4227   -4.5360   -1.0569 C   0  0  2  0  0  0  0  0  0  0  0  0
    4.5241   -3.8641   -2.4203 C   0  0  0  0  0  0  0  0  0  0  0  0
    3.9541   -2.6415   -1.7060 C   0  0  2  0  0  0  0  0  0  0  0  0
    3.1436   -1.6582   -2.5522 C   0  0  0  0  0  0  0  0  0  0  0  0
    3.2250   -3.5815   -0.7517 C   0  0  2  0  0  0  0  0  0  0  0  0
    1.8157   -4.0844   -1.1059 C   0  0  0  0  0  0  0  0  0  0  0  0
    6.1664   -0.9830   -2.0071 H   0  0  0  0  0  0  0  0  0  0  0  0
    6.1573   -0.3026   -0.3442 H   0  0  0  0  0  0  0  0  0  0  0  0
    4.7996    0.0159   -1.4581 H   0  0  0  0  0  0  0  0  0  0  0  0
    2.1229   -2.4037    0.6987 H   0  0  0  0  0  0  0  0  0  0  0  0
    3.1851   -2.7697    2.6786 H   0  0  0  0  0  0  0  0  0  0  0  0
    3.0763   -4.3850    2.0272 H   0  0  0  0  0  0  0  0  0  0  0  0
    5.3203   -3.1789    3.1425 H   0  0  0  0  0  0  0  0  0  0  0  0
    5.2816   -5.3107    1.3670 H   0  0  0  0  0  0  0  0  0  0  0  0
    6.8886   -2.7411   -0.4037 H   0  0  0  0  0  0  0  0  0  0  0  0
    4.2219   -5.5999   -1.0999 H   0  0  0  0  0  0  0  0  0  0  0  0
    5.5287   -3.7353   -2.8174 H   0  0  0  0  0  0  0  0  0  0  0  0
    3.8352   -4.2539   -3.1703 H   0  0  0  0  0  0  0  0  0  0  0  0
    2.3629   -2.1700   -3.1142 H   0  0  0  0  0  0  0  0  0  0  0  0
    3.7503   -1.1108   -3.2746 H   0  0  0  0  0  0  0  0  0  0  0  0
    2.6623   -0.9143   -1.9146 H   0  0  0  0  0  0  0  0  0  0  0  0
    1.7507   -4.4912   -2.1030 H   0  0  0  0  0  0  0  0  0  0  0  0
    1.0986   -3.2678   -1.1155 H   0  0  0  0  0  0  0  0  0  0  0  0
    1.4907   -4.8440   -0.3973 H   0  0  0  0  0  0  0  0  0  0  0  0
  2  1  1  6
  1 17  1  0
  1 18  1  0
  1 19  1  0
  2  9  1  0
  2 13  1  0
  2  3  1  0
  3  4  1  0
  4 15  1  0
  4  5  1  0
  4 20  1  1
  5  6  1  0
  5 21  1  0
  5 22  1  0
  6  7  1  0
  6  8  1  0
  6 23  1  1
  7 24  1  0
  8  9  1  0
  9 10  1  0
  9 25  1  6
 10 11  1  0
 11 15  1  0
 11 12  1  0
 11 26  1  6
 12 13  1  0
 12 27  1  0
 12 28  1  0
 13 14  1  6
 13 15  1  0
 14 29  1  0
 14 30  1  0
 14 31  1  0
 15 16  1  6
 16 32  1  0
 16 33  1  0
 16 34  1  0
M  END
>  <i_m_ct_stereo_status>  (11) 
1

>  <s_m_source_file>  (11) 
/var/tmp/pbs.5076255.sched01/tmpu5rzjxe4/0gixxd53k.sdf

>  <i_m_source_file_index>  (11) 
4

>  <i_lp_mmshare_version>  (11) 
48012

>  <i_f3d_flags>  (11) 
0

>  <s_epik_input>  (11) 
W0NIM11bQ0BAXTEyW0NASF0zT1tDQEhdKFtPSF0pW0NIMl1bQ0BASF0oTzEpW0NAXTQoW0NIM10pW0NASF0oTzMpW0NIMl1bQ0BdMjRbQ0gzXQ==

>  <s_epik_cmdline>  (11) 
J2VwaWtfcHl0aG9uJywgJy1waHQnLCAnMi4wJywgJy1waCcsICc3LjAnLCAnLXRuJywgJzgnLCAnLW1hJywgJzIwMCcsICctaW1hZScsICc8aW5maWxlLm1hZT4nLCAnLW9tYWUnLCAnPG91dGZpbGUubWFlPic=

>  <r_lp_tautomer_probability>  (11) 
1

>  <r_epik_Ionization_Penalty>  (11) 
3.44752e-07

>  <r_epik_Ionization_Penalty_Charging>  (11) 
0

>  <r_epik_Ionization_Penalty_Neutral>  (11) 
3.44752e-07

>  <r_epik_State_Penalty>  (11) 
-0

>  <r_epik_Charging_Adjusted_Penalty>  (11) 
0

>  <i_epik_Tot_Q>  (11) 
0

>  <i_epik_Tot_abs_Q>  (11) 
0

>  <s_epik_Chemistry_Notes>  (11) 
This compound contains an acetal/aminal-like group ( X-CH(R)-Y where X, Y are N, S, or O) that may be acid/base labile, releasing an aldehyde.

>  <s_lp_Force_Field>  (11) 
OPLS3e

>  <r_lp_Energy>  (11) 
48.2533

>  <b_lp_Chiralities_Consistent>  (11) 
1

>  <s_lp_Variant>  (11) 
3:0-1

>  <s_i_glide_gridfile>  (11) 
pfpi4k_grid

>  <i_i_glide_lignum>  (11) 
4

>  <i_i_glide_rotatable_bonds>  (11) 
1

>  <r_i_docking_score>  (11) 
-2.6407

>  <r_i_glide_ligand_efficiency>  (11) 
-0.165044

>  <r_i_glide_ligand_efficiency_sa>  (11) 
-0.415884

>  <r_i_glide_ligand_efficiency_ln>  (11) 
-0.69997

>  <r_i_glide_gscore>  (11) 
-2.6407

>  <r_i_glide_lipo>  (11) 
-0.0332037

>  <r_i_glide_hbond>  (11) 
0

>  <r_i_glide_metal>  (11) 
-0

>  <r_i_glide_rewards>  (11) 
-1.9797

>  <r_i_glide_evdw>  (11) 
-9.4453

>  <r_i_glide_ecoul>  (11) 
-1.03686

>  <r_i_glide_erotb>  (11) 
0

>  <r_i_glide_esite>  (11) 
0

>  <r_i_glide_emodel>  (11) 
-13.7071

>  <r_i_glide_energy>  (11) 
-10.4822

>  <r_i_glide_einternal>  (11) 
0.00270712

>  <r_i_glide_intrahb_reward>  (11) 
-0

>  <i_i_glide_confnum>  (11) 
2

>  <i_i_glide_posenum>  (11) 
10

>  <r_i_glide_eff_state_penalty>  (11) 
0

>  <ligand_id>  (11) 
3

>  <original_smiles>  (11) 
CC12OC3CC(O)OC1OC1CC2(C)C13C

>  <smiles>  (11) 
[H]OC1([H])OC2([H])OC3([H])C([H])([H])C4(C([H])([H])[H])C2(C([H])([H])[H])OC([H])(C1([H])[H])C34C([H])([H])[H]

$$$$
4:0:0
     RDKit          3D

 30 32  0  0  1  0  0  0  0  0999 V2000
    3.7910   -1.8753   -0.1508 C   0  0  0  0  0  0  0  0  0  0  0  0
    3.3140   -3.1076    0.6358 C   0  0  0  0  0  0  0  0  0  0  0  0
    2.9221   -4.2835   -0.2750 C   0  0  0  0  0  0  0  0  0  0  0  0
    2.6780   -5.5766    0.4898 C   0  0  0  0  0  0  0  0  0  0  0  0
    3.7535   -6.3073    0.7650 N   0  0  0  0  0  0  0  0  0  0  0  0
    3.5772   -7.4596    1.4425 C   0  0  0  0  0  0  0  0  0  0  0  0
    4.7546   -8.2286    1.6871 N   0  0  0  0  0  0  0  0  0  0  0  0
    5.9975   -7.7660    1.8756 C   0  0  0  0  0  0  0  0  0  0  0  0
    6.9064   -8.7354    2.0075 N   0  0  0  0  0  0  0  0  0  0  0  0
    6.2008   -9.9250    1.8660 N   0  0  0  0  0  0  0  0  0  0  0  0
    4.9328   -9.5552    1.6623 C   0  0  0  0  0  0  0  0  0  0  0  0
    2.2727   -7.8311    1.8785 C   0  0  0  0  0  0  0  0  0  0  0  0
    1.9977   -8.9888    2.6481 C   0  0  0  0  0  0  0  0  0  0  0  0
    0.6716   -9.2655    3.0031 C   0  0  0  0  0  0  0  0  0  0  0  0
   -0.3182   -8.3645    2.5960 C   0  0  0  0  0  0  0  0  0  0  0  0
   -0.0655   -7.2370    1.9019 N   0  0  0  0  0  0  0  0  0  0  0  0
    1.2072   -6.9840    1.5391 C   0  0  0  0  0  0  0  0  0  0  0  0
    1.4208   -5.8564    0.8331 N   0  0  0  0  0  0  0  0  0  0  0  0
    4.0639   -1.0654    0.5275 H   0  0  0  0  0  0  0  0  0  0  0  0
    3.0148   -1.4990   -0.8151 H   0  0  0  0  0  0  0  0  0  0  0  0
    4.6712   -2.1058   -0.7556 H   0  0  0  0  0  0  0  0  0  0  0  0
    4.1190   -3.4215    1.3012 H   0  0  0  0  0  0  0  0  0  0  0  0
    2.4685   -2.8402    1.2712 H   0  0  0  0  0  0  0  0  0  0  0  0
    2.0255   -4.0306   -0.8422 H   0  0  0  0  0  0  0  0  0  0  0  0
    3.7072   -4.4591   -1.0126 H   0  0  0  0  0  0  0  0  0  0  0  0
    6.2590   -6.7221    1.8919 H   0  0  0  0  0  0  0  0  0  0  0  0
    4.1409  -10.2565    1.4622 H   0  0  0  0  0  0  0  0  0  0  0  0
    2.7617   -9.6667    2.9981 H   0  0  0  0  0  0  0  0  0  0  0  0
    0.4315  -10.1470    3.5839 H   0  0  0  0  0  0  0  0  0  0  0  0
   -1.3414   -8.5483    2.8554 H   0  0  0  0  0  0  0  0  0  0  0  0
  1  2  1  0
  1 19  1  0
  1 20  1  0
  1 21  1  0
  2  3  1  0
  2 22  1  0
  2 23  1  0
  3  4  1  0
  3 24  1  0
  3 25  1  0
  4 18  2  0
  4  5  1  0
  5  6  2  0
  6  7  1  0
  6 12  1  0
  7 11  1  0
  7  8  1  0
  8  9  2  0
  8 26  1  0
  9 10  1  0
 10 11  2  0
 11 27  1  0
 12 17  2  0
 12 13  1  0
 13 14  2  0
 13 28  1  0
 14 15  1  0
 14 29  1  0
 15 16  2  0
 15 30  1  0
 16 17  1  0
 17 18  1  0
M  END
>  <i_m_ct_stereo_status>  (12) 
1

>  <s_m_source_file>  (12) 
/var/tmp/pbs.5076255.sched01/tmpu5rzjxe4/0gixxd53k.sdf

>  <i_m_source_file_index>  (12) 
5

>  <i_lp_mmshare_version>  (12) 
48012

>  <i_f3d_flags>  (12) 
0

>  <s_epik_input>  (12) 
W2NIXTFbY0hdW2NIXW5jKGMxMiluYyhbQ0gyXVtDSDJdW0NIM10pbmMyLW4zW2NIXW5uW2NIXTM=

>  <s_epik_cmdline>  (12) 
J2VwaWtfcHl0aG9uJywgJy1waHQnLCAnMi4wJywgJy1waCcsICc3LjAnLCAnLXRuJywgJzgnLCAnLW1hJywgJzIwMCcsICctaW1hZScsICc8aW5maWxlLm1hZT4nLCAnLW9tYWUnLCAnPG91dGZpbGUubWFlPic=

>  <r_lp_tautomer_probability>  (12) 
1

>  <r_epik_Ionization_Penalty>  (12) 
4.07599e-06

>  <r_epik_Ionization_Penalty_Charging>  (12) 
0

>  <r_epik_Ionization_Penalty_Neutral>  (12) 
4.07599e-06

>  <r_epik_State_Penalty>  (12) 
-0

>  <r_epik_Charging_Adjusted_Penalty>  (12) 
0

>  <i_epik_Tot_Q>  (12) 
0

>  <i_epik_Tot_abs_Q>  (12) 
0

>  <s_lp_Force_Field>  (12) 
OPLS3e

>  <r_lp_Energy>  (12) 
25.1795

>  <b_lp_Chiralities_Consistent>  (12) 
1

>  <s_lp_Variant>  (12) 
4:0-1

>  <s_i_glide_gridfile>  (12) 
pfpi4k_grid

>  <i_i_glide_lignum>  (12) 
5

>  <i_i_glide_rotatable_bonds>  (12) 
3

>  <r_i_docking_score>  (12) 
-3.95114

>  <r_i_glide_ligand_efficiency>  (12) 
-0.219508

>  <r_i_glide_ligand_efficiency_sa>  (12) 
-0.575273

>  <r_i_glide_ligand_efficiency_ln>  (12) 
-1.01562

>  <r_i_glide_gscore>  (12) 
-3.95114

>  <r_i_glide_lipo>  (12) 
-0.0118889

>  <r_i_glide_hbond>  (12) 
-0.154934

>  <r_i_glide_metal>  (12) 
-0

>  <r_i_glide_rewards>  (12) 
-1.9772

>  <r_i_glide_evdw>  (12) 
-22.3009

>  <r_i_glide_ecoul>  (12) 
-7.37063

>  <r_i_glide_erotb>  (12) 
0.599366

>  <r_i_glide_esite>  (12) 
-0.185841

>  <r_i_glide_emodel>  (12) 
-37.6273

>  <r_i_glide_energy>  (12) 
-29.6715

>  <r_i_glide_einternal>  (12) 
0.335664

>  <r_i_glide_intrahb_reward>  (12) 
-0

>  <i_i_glide_confnum>  (12) 
3

>  <i_i_glide_posenum>  (12) 
27

>  <r_i_glide_eff_state_penalty>  (12) 
0

>  <ligand_id>  (12) 
4

>  <original_smiles>  (12) 
CCCc1nc(-n2cnnc2)c2cccnc2n1

>  <smiles>  (12) 
[H]c1nc2nc(C([H])([H])C([H])([H])C([H])([H])[H])nc(-n3c([H])nnc3[H])c2c([H])c1[H]

$$$$
4:0:1
     RDKit          3D

 30 32  0  0  1  0  0  0  0  0999 V2000
    4.0010   -3.7850    2.0733 C   0  0  0  0  0  0  0  0  0  0  0  0
    2.8277   -3.5924    1.1024 C   0  0  0  0  0  0  0  0  0  0  0  0
    2.6040   -4.7859    0.1563 C   0  0  0  0  0  0  0  0  0  0  0  0
    2.2323   -6.0701    0.8794 C   0  0  0  0  0  0  0  0  0  0  0  0
    3.2355   -6.8734    1.2149 N   0  0  0  0  0  0  0  0  0  0  0  0
    2.9392   -8.0021    1.8897 C   0  0  0  0  0  0  0  0  0  0  0  0
    4.0369   -8.8508    2.2141 N   0  0  0  0  0  0  0  0  0  0  0  0
    4.3119   -9.5012    3.3555 C   0  0  0  0  0  0  0  0  0  0  0  0
    5.4849  -10.1438    3.3170 N   0  0  0  0  0  0  0  0  0  0  0  0
    6.0254   -9.8583    2.0632 N   0  0  0  0  0  0  0  0  0  0  0  0
    5.1197   -9.0840    1.4579 C   0  0  0  0  0  0  0  0  0  0  0  0
    1.5864   -8.2847    2.2283 C   0  0  0  0  0  0  0  0  0  0  0  0
    1.1865   -9.4479    2.9288 C   0  0  0  0  0  0  0  0  0  0  0  0
   -0.1711   -9.6164    3.2165 C   0  0  0  0  0  0  0  0  0  0  0  0
   -1.0728   -8.6472    2.7649 C   0  0  0  0  0  0  0  0  0  0  0  0
   -0.7015   -7.5402    2.0922 N   0  0  0  0  0  0  0  0  0  0  0  0
    0.6055   -7.3703    1.8191 C   0  0  0  0  0  0  0  0  0  0  0  0
    0.9401   -6.2578    1.1362 N   0  0  0  0  0  0  0  0  0  0  0  0
    4.1286   -2.9129    2.7143 H   0  0  0  0  0  0  0  0  0  0  0  0
    4.9330   -3.9487    1.5313 H   0  0  0  0  0  0  0  0  0  0  0  0
    3.8383   -4.6428    2.7246 H   0  0  0  0  0  0  0  0  0  0  0  0
    1.9176   -3.3892    1.6665 H   0  0  0  0  0  0  0  0  0  0  0  0
    3.0114   -2.7030    0.5000 H   0  0  0  0  0  0  0  0  0  0  0  0
    1.8134   -4.5496   -0.5580 H   0  0  0  0  0  0  0  0  0  0  0  0
    3.5003   -4.9543   -0.4410 H   0  0  0  0  0  0  0  0  0  0  0  0
    3.6858   -9.4878    4.2383 H   0  0  0  0  0  0  0  0  0  0  0  0
    5.2752   -8.6666    0.4740 H   0  0  0  0  0  0  0  0  0  0  0  0
    1.8672  -10.2176    3.2528 H   0  0  0  0  0  0  0  0  0  0  0  0
   -0.5105  -10.4840    3.7709 H   0  0  0  0  0  0  0  0  0  0  0  0
   -2.1231   -8.7725    2.9553 H   0  0  0  0  0  0  0  0  0  0  0  0
  1  2  1  0
  1 19  1  0
  1 20  1  0
  1 21  1  0
  2  3  1  0
  2 22  1  0
  2 23  1  0
  3  4  1  0
  3 24  1  0
  3 25  1  0
  4 18  2  0
  4  5  1  0
  5  6  2  0
  6  7  1  0
  6 12  1  0
  7 11  1  0
  7  8  1  0
  8  9  2  0
  8 26  1  0
  9 10  1  0
 10 11  2  0
 11 27  1  0
 12 17  2  0
 12 13  1  0
 13 14  2  0
 13 28  1  0
 14 15  1  0
 14 29  1  0
 15 16  2  0
 15 30  1  0
 16 17  1  0
 17 18  1  0
M  END
>  <i_m_ct_stereo_status>  (13) 
1

>  <s_m_source_file>  (13) 
/var/tmp/pbs.5076255.sched01/tmpu5rzjxe4/0gixxd53k.sdf

>  <i_m_source_file_index>  (13) 
5

>  <i_lp_mmshare_version>  (13) 
48012

>  <i_f3d_flags>  (13) 
0

>  <s_epik_input>  (13) 
W2NIXTFbY0hdW2NIXW5jKGMxMiluYyhbQ0gyXVtDSDJdW0NIM10pbmMyLW4zW2NIXW5uW2NIXTM=

>  <s_epik_cmdline>  (13) 
J2VwaWtfcHl0aG9uJywgJy1waHQnLCAnMi4wJywgJy1waCcsICc3LjAnLCAnLXRuJywgJzgnLCAnLW1hJywgJzIwMCcsICctaW1hZScsICc8aW5maWxlLm1hZT4nLCAnLW9tYWUnLCAnPG91dGZpbGUubWFlPic=

>  <r_lp_tautomer_probability>  (13) 
1

>  <r_epik_Ionization_Penalty>  (13) 
4.07599e-06

>  <r_epik_Ionization_Penalty_Charging>  (13) 
0

>  <r_epik_Ionization_Penalty_Neutral>  (13) 
4.07599e-06

>  <r_epik_State_Penalty>  (13) 
-0

>  <r_epik_Charging_Adjusted_Penalty>  (13) 
0

>  <i_epik_Tot_Q>  (13) 
0

>  <i_epik_Tot_abs_Q>  (13) 
0

>  <s_lp_Force_Field>  (13) 
OPLS3e

>  <r_lp_Energy>  (13) 
25.1795

>  <b_lp_Chiralities_Consistent>  (13) 
1

>  <s_lp_Variant>  (13) 
4:0-1

>  <s_i_glide_gridfile>  (13) 
pfpi4k_grid

>  <i_i_glide_lignum>  (13) 
5

>  <i_i_glide_rotatable_bonds>  (13) 
3

>  <r_i_docking_score>  (13) 
-3.68849

>  <r_i_glide_ligand_efficiency>  (13) 
-0.204916

>  <r_i_glide_ligand_efficiency_sa>  (13) 
-0.537032

>  <r_i_glide_ligand_efficiency_ln>  (13) 
-0.948108

>  <r_i_glide_gscore>  (13) 
-3.68849

>  <r_i_glide_lipo>  (13) 
-0.0333808

>  <r_i_glide_hbond>  (13) 
-0.16

>  <r_i_glide_metal>  (13) 
-0

>  <r_i_glide_rewards>  (13) 
-1.77093

>  <r_i_glide_evdw>  (13) 
-22.817

>  <r_i_glide_ecoul>  (13) 
-6.51154

>  <r_i_glide_erotb>  (13) 
0.599366

>  <r_i_glide_esite>  (13) 
-0.205967

>  <r_i_glide_emodel>  (13) 
-36.4175

>  <r_i_glide_energy>  (13) 
-29.3285

>  <r_i_glide_einternal>  (13) 
0.984

>  <r_i_glide_intrahb_reward>  (13) 
-0

>  <i_i_glide_confnum>  (13) 
3

>  <i_i_glide_posenum>  (13) 
1

>  <r_i_glide_eff_state_penalty>  (13) 
0

>  <ligand_id>  (13) 
4

>  <original_smiles>  (13) 
CCCc1nc(-n2cnnc2)c2cccnc2n1

>  <smiles>  (13) 
[H]c1nc2nc(C([H])([H])C([H])([H])C([H])([H])[H])nc(-n3c([H])nnc3[H])c2c([H])c1[H]

$$$$
4:0:2
     RDKit          3D

 30 32  0  0  1  0  0  0  0  0999 V2000
    3.4087    4.1350    4.2958 C   0  0  0  0  0  0  0  0  0  0  0  0
    1.8771    4.1109    4.2679 C   0  0  0  0  0  0  0  0  0  0  0  0
    1.3057    3.4685    2.9953 C   0  0  0  0  0  0  0  0  0  0  0  0
    1.4083    1.9555    2.9645 C   0  0  0  0  0  0  0  0  0  0  0  0
    0.5303    1.2795    3.6963 N   0  0  0  0  0  0  0  0  0  0  0  0
    0.6246   -0.0651    3.6965 C   0  0  0  0  0  0  0  0  0  0  0  0
   -0.3086   -0.7562    4.5194 N   0  0  0  0  0  0  0  0  0  0  0  0
   -1.5620   -0.3747    4.8020 C   0  0  0  0  0  0  0  0  0  0  0  0
   -2.1771   -1.1970    5.6591 N   0  0  0  0  0  0  0  0  0  0  0  0
   -1.2355   -2.1753    5.9718 N   0  0  0  0  0  0  0  0  0  0  0  0
   -0.1360   -1.8434    5.2842 C   0  0  0  0  0  0  0  0  0  0  0  0
    1.6230   -0.7129    2.9107 C   0  0  0  0  0  0  0  0  0  0  0  0
    1.7603   -2.1167    2.8037 C   0  0  0  0  0  0  0  0  0  0  0  0
    2.7874   -2.6442    2.0107 C   0  0  0  0  0  0  0  0  0  0  0  0
    3.6220   -1.7396    1.3397 C   0  0  0  0  0  0  0  0  0  0  0  0
    3.4930   -0.4053    1.4297 N   0  0  0  0  0  0  0  0  0  0  0  0
    2.5023    0.1071    2.1839 C   0  0  0  0  0  0  0  0  0  0  0  0
    2.3889    1.4415    2.2318 N   0  0  0  0  0  0  0  0  0  0  0  0
    3.7751    4.6049    5.2082 H   0  0  0  0  0  0  0  0  0  0  0  0
    3.8035    4.6963    3.4478 H   0  0  0  0  0  0  0  0  0  0  0  0
    3.8143    3.1253    4.2459 H   0  0  0  0  0  0  0  0  0  0  0  0
    1.4794    3.6097    5.1508 H   0  0  0  0  0  0  0  0  0  0  0  0
    1.5243    5.1406    4.3210 H   0  0  0  0  0  0  0  0  0  0  0  0
    0.2557    3.7334    2.8842 H   0  0  0  0  0  0  0  0  0  0  0  0
    1.8179    3.8854    2.1260 H   0  0  0  0  0  0  0  0  0  0  0  0
   -2.0340    0.5109    4.4003 H   0  0  0  0  0  0  0  0  0  0  0  0
    0.7886   -2.3975    5.3739 H   0  0  0  0  0  0  0  0  0  0  0  0
    1.0980   -2.8138    3.2862 H   0  0  0  0  0  0  0  0  0  0  0  0
    2.9237   -3.7140    1.9108 H   0  0  0  0  0  0  0  0  0  0  0  0
    4.4162   -2.1026    0.7085 H   0  0  0  0  0  0  0  0  0  0  0  0
  1  2  1  0
  1 19  1  0
  1 20  1  0
  1 21  1  0
  2  3  1  0
  2 22  1  0
  2 23  1  0
  3  4  1  0
  3 24  1  0
  3 25  1  0
  4 18  2  0
  4  5  1  0
  5  6  2  0
  6  7  1  0
  6 12  1  0
  7 11  1  0
  7  8  1  0
  8  9  2  0
  8 26  1  0
  9 10  1  0
 10 11  2  0
 11 27  1  0
 12 17  2  0
 12 13  1  0
 13 14  2  0
 13 28  1  0
 14 15  1  0
 14 29  1  0
 15 16  2  0
 15 30  1  0
 16 17  1  0
 17 18  1  0
M  END
>  <i_m_ct_stereo_status>  (14) 
1

>  <s_m_source_file>  (14) 
/var/tmp/pbs.5076255.sched01/tmpu5rzjxe4/0gixxd53k.sdf

>  <i_m_source_file_index>  (14) 
5

>  <i_lp_mmshare_version>  (14) 
48012

>  <i_f3d_flags>  (14) 
0

>  <s_epik_input>  (14) 
W2NIXTFbY0hdW2NIXW5jKGMxMiluYyhbQ0gyXVtDSDJdW0NIM10pbmMyLW4zW2NIXW5uW2NIXTM=

>  <s_epik_cmdline>  (14) 
J2VwaWtfcHl0aG9uJywgJy1waHQnLCAnMi4wJywgJy1waCcsICc3LjAnLCAnLXRuJywgJzgnLCAnLW1hJywgJzIwMCcsICctaW1hZScsICc8aW5maWxlLm1hZT4nLCAnLW9tYWUnLCAnPG91dGZpbGUubWFlPic=

>  <r_lp_tautomer_probability>  (14) 
1

>  <r_epik_Ionization_Penalty>  (14) 
4.07599e-06

>  <r_epik_Ionization_Penalty_Charging>  (14) 
0

>  <r_epik_Ionization_Penalty_Neutral>  (14) 
4.07599e-06

>  <r_epik_State_Penalty>  (14) 
-0

>  <r_epik_Charging_Adjusted_Penalty>  (14) 
0

>  <i_epik_Tot_Q>  (14) 
0

>  <i_epik_Tot_abs_Q>  (14) 
0

>  <s_lp_Force_Field>  (14) 
OPLS3e

>  <r_lp_Energy>  (14) 
25.1795

>  <b_lp_Chiralities_Consistent>  (14) 
1

>  <s_lp_Variant>  (14) 
4:0-1

>  <s_i_glide_gridfile>  (14) 
pfpi4k_grid

>  <i_i_glide_lignum>  (14) 
5

>  <i_i_glide_rotatable_bonds>  (14) 
3

>  <r_i_docking_score>  (14) 
-3.2461

>  <r_i_glide_ligand_efficiency>  (14) 
-0.180339

>  <r_i_glide_ligand_efficiency_sa>  (14) 
-0.472622

>  <r_i_glide_ligand_efficiency_ln>  (14) 
-0.834394

>  <r_i_glide_gscore>  (14) 
-3.2461

>  <r_i_glide_lipo>  (14) 
0

>  <r_i_glide_hbond>  (14) 
0

>  <r_i_glide_metal>  (14) 
-0

>  <r_i_glide_rewards>  (14) 
-1.77093

>  <r_i_glide_evdw>  (14) 
-19.0646

>  <r_i_glide_ecoul>  (14) 
-5.72821

>  <r_i_glide_erotb>  (14) 
0.599366

>  <r_i_glide_esite>  (14) 
-0.262082

>  <r_i_glide_emodel>  (14) 
-30.6691

>  <r_i_glide_energy>  (14) 
-24.7928

>  <r_i_glide_einternal>  (14) 
1.51261

>  <r_i_glide_intrahb_reward>  (14) 
-0

>  <i_i_glide_confnum>  (14) 
2

>  <i_i_glide_posenum>  (14) 
3

>  <r_i_glide_eff_state_penalty>  (14) 
0

>  <ligand_id>  (14) 
4

>  <original_smiles>  (14) 
CCCc1nc(-n2cnnc2)c2cccnc2n1

>  <smiles>  (14) 
[H]c1nc2nc(C([H])([H])C([H])([H])C([H])([H])[H])nc(-n3c([H])nnc3[H])c2c([H])c1[H]

$$$$
5:0:0
     RDKit          3D

 27 29  0  0  1  0  0  0  0  0999 V2000
   -0.6010   -8.9865    2.9336 C   0  0  0  0  0  0  0  0  0  0  0  0
    0.1897   -7.7828    2.7480 N   0  0  0  0  0  0  0  0  0  0  0  0
    1.0155   -7.5284    1.6633 C   0  0  0  0  0  0  0  0  0  0  0  0
    1.6160   -6.3062    1.8006 C   0  0  0  0  0  0  0  0  0  0  0  0
    1.1529   -5.7697    3.0455 C   0  0  0  0  0  0  0  0  0  0  0  0
    1.3848   -4.5715    3.7596 C   0  0  0  0  0  0  0  0  0  0  0  0
    0.7573   -4.3177    5.0017 C   0  0  0  0  0  0  0  0  0  0  0  0
    1.0445   -3.0051    5.7157 C   0  0  0  0  0  0  0  0  0  0  0  0
    0.0397   -1.9992    5.4126 N   0  0  0  0  0  0  0  0  0  0  0  0
    0.2049   -1.0615    4.4623 N   0  0  0  0  0  0  0  0  0  0  0  0
   -0.9511   -0.4235    4.5680 C   0  0  0  0  0  0  0  0  0  0  0  0
   -1.7835   -0.9383    5.5218 N   0  0  0  0  0  0  0  0  0  0  0  0
   -1.1465   -1.9291    6.0540 N   0  0  0  0  0  0  0  0  0  0  0  0
   -0.1207   -5.2803    5.5569 C   0  0  0  0  0  0  0  0  0  0  0  0
   -0.9150   -5.0246    7.0706 Cl  0  0  0  0  0  0  0  0  0  0  0  0
   -0.3685   -6.4756    4.8596 C   0  0  0  0  0  0  0  0  0  0  0  0
    0.2598   -6.7140    3.6262 C   0  0  0  0  0  0  0  0  0  0  0  0
   -0.4782   -9.6590    2.0829 H   0  0  0  0  0  0  0  0  0  0  0  0
   -1.6566   -8.7287    3.0297 H   0  0  0  0  0  0  0  0  0  0  0  0
   -0.2799   -9.5052    3.8388 H   0  0  0  0  0  0  0  0  0  0  0  0
    1.1104   -8.2545    0.8714 H   0  0  0  0  0  0  0  0  0  0  0  0
    2.3119   -5.8416    1.1174 H   0  0  0  0  0  0  0  0  0  0  0  0
    2.0547   -3.8392    3.3324 H   0  0  0  0  0  0  0  0  0  0  0  0
    1.0891   -3.1583    6.7935 H   0  0  0  0  0  0  0  0  0  0  0  0
    2.0227   -2.6244    5.4199 H   0  0  0  0  0  0  0  0  0  0  0  0
   -1.2090    0.4193    3.9414 H   0  0  0  0  0  0  0  0  0  0  0  0
   -1.0353   -7.2152    5.2700 H   0  0  0  0  0  0  0  0  0  0  0  0
  1  2  1  0
  1 18  1  0
  1 19  1  0
  1 20  1  0
  2 17  1  0
  2  3  1  0
  3  4  2  0
  3 21  1  0
  4  5  1  0
  4 22  1  0
  5 17  2  0
  5  6  1  0
  6  7  2  0
  6 23  1  0
  7  8  1  0
  7 14  1  0
  8  9  1  0
  8 24  1  0
  8 25  1  0
  9 13  1  0
  9 10  1  0
 10 11  2  0
 11 12  1  0
 11 26  1  0
 12 13  2  0
 14 15  1  0
 14 16  2  0
 16 17  1  0
 16 27  1  0
M  END
>  <i_m_ct_stereo_status>  (15) 
1

>  <s_m_source_file>  (15) 
/var/tmp/pbs.5076255.sched01/tmpu5rzjxe4/0gixxd53k.sdf

>  <i_m_source_file_index>  (15) 
6

>  <i_lp_mmshare_version>  (15) 
48012

>  <i_f3d_flags>  (15) 
0

>  <s_epik_input>  (15) 
W2NIXTFbY0hdbihbQ0gzXSljKGMxMilbY0hdYyhDbCljKFtjSF0yKVtDSDJdbjNuW2NIXW5uMw==

>  <s_epik_cmdline>  (15) 
J2VwaWtfcHl0aG9uJywgJy1waHQnLCAnMi4wJywgJy1waCcsICc3LjAnLCAnLXRuJywgJzgnLCAnLW1hJywgJzIwMCcsICctaW1hZScsICc8aW5maWxlLm1hZT4nLCAnLW9tYWUnLCAnPG91dGZpbGUubWFlPic=

>  <r_lp_tautomer_probability>  (15) 
1

>  <r_epik_Ionization_Penalty>  (15) 
1.95475e-07

>  <r_epik_Ionization_Penalty_Charging>  (15) 
0

>  <r_epik_Ionization_Penalty_Neutral>  (15) 
1.95475e-07

>  <r_epik_State_Penalty>  (15) 
-0

>  <r_epik_Charging_Adjusted_Penalty>  (15) 
0

>  <i_epik_Tot_Q>  (15) 
0

>  <i_epik_Tot_abs_Q>  (15) 
0

>  <s_lp_Force_Field>  (15) 
OPLS3e

>  <r_lp_Energy>  (15) 
16.5001

>  <b_lp_Chiralities_Consistent>  (15) 
1

>  <s_lp_Variant>  (15) 
5:0-1

>  <s_i_glide_gridfile>  (15) 
pfpi4k_grid

>  <i_i_glide_lignum>  (15) 
6

>  <i_i_glide_rotatable_bonds>  (15) 
2

>  <r_i_docking_score>  (15) 
-2.94585

>  <r_i_glide_ligand_efficiency>  (15) 
-0.173285

>  <r_i_glide_ligand_efficiency_sa>  (15) 
-0.445565

>  <r_i_glide_ligand_efficiency_ln>  (15) 
-0.768506

>  <r_i_glide_gscore>  (15) 
-2.94585

>  <r_i_glide_lipo>  (15) 
-0.0605524

>  <r_i_glide_hbond>  (15) 
0

>  <r_i_glide_metal>  (15) 
-0

>  <r_i_glide_rewards>  (15) 
-1.72034

>  <r_i_glide_evdw>  (15) 
-19.7648

>  <r_i_glide_ecoul>  (15) 
-3.56341

>  <r_i_glide_erotb>  (15) 
0.569004

>  <r_i_glide_esite>  (15) 
-0.211204

>  <r_i_glide_emodel>  (15) 
-28.2029

>  <r_i_glide_energy>  (15) 
-23.3282

>  <r_i_glide_einternal>  (15) 
0.0408859

>  <r_i_glide_intrahb_reward>  (15) 
-0

>  <i_i_glide_confnum>  (15) 
1

>  <i_i_glide_posenum>  (15) 
1

>  <r_i_glide_eff_state_penalty>  (15) 
0

>  <ligand_id>  (15) 
5

>  <original_smiles>  (15) 
Cn1ccc2cc(Cn3ncnn3)c(Cl)cc21

>  <smiles>  (15) 
[H]c1nnn(C([H])([H])c2c(Cl)c([H])c3c(c2[H])c([H])c([H])n3C([H])([H])[H])n1

$$$$
5:0:1
     RDKit          3D

 27 29  0  0  1  0  0  0  0  0999 V2000
    0.6244  -11.0159    3.0308 C   0  0  0  0  0  0  0  0  0  0  0  0
   -0.0346   -9.7474    3.2661 N   0  0  0  0  0  0  0  0  0  0  0  0
   -1.0428   -9.2094    2.4784 C   0  0  0  0  0  0  0  0  0  0  0  0
   -1.4368   -7.9992    2.9746 C   0  0  0  0  0  0  0  0  0  0  0  0
   -0.6512   -7.7772    4.1502 C   0  0  0  0  0  0  0  0  0  0  0  0
   -0.5810   -6.7471    5.1084 C   0  0  0  0  0  0  0  0  0  0  0  0
    0.3246   -6.7920    6.1962 C   0  0  0  0  0  0  0  0  0  0  0  0
    0.3485   -5.6457    7.2050 C   0  0  0  0  0  0  0  0  0  0  0  0
    0.0608   -4.3594    6.5916 N   0  0  0  0  0  0  0  0  0  0  0  0
    0.8380   -3.8149    5.6359 N   0  0  0  0  0  0  0  0  0  0  0  0
    0.1354   -2.7285    5.3614 C   0  0  0  0  0  0  0  0  0  0  0  0
   -1.0016   -2.6005    6.1073 N   0  0  0  0  0  0  0  0  0  0  0  0
   -1.0411   -3.6341    6.8874 N   0  0  0  0  0  0  0  0  0  0  0  0
    1.1793   -7.9131    6.3388 C   0  0  0  0  0  0  0  0  0  0  0  0
    2.2944   -8.0423    7.6528 Cl  0  0  0  0  0  0  0  0  0  0  0  0
    1.1256   -8.9542    5.3946 C   0  0  0  0  0  0  0  0  0  0  0  0
    0.2237   -8.8852    4.3188 C   0  0  0  0  0  0  0  0  0  0  0  0
    0.2147  -11.4964    2.1450 H   0  0  0  0  0  0  0  0  0  0  0  0
    0.4774  -11.6714    3.8922 H   0  0  0  0  0  0  0  0  0  0  0  0
    1.6957  -10.8566    2.8836 H   0  0  0  0  0  0  0  0  0  0  0  0
   -1.3920   -9.7364    1.6015 H   0  0  0  0  0  0  0  0  0  0  0  0
   -2.1945   -7.3459    2.5717 H   0  0  0  0  0  0  0  0  0  0  0  0
   -1.2503   -5.9123    4.9879 H   0  0  0  0  0  0  0  0  0  0  0  0
   -0.3890   -5.8491    7.9834 H   0  0  0  0  0  0  0  0  0  0  0  0
    1.3182   -5.5610    7.6907 H   0  0  0  0  0  0  0  0  0  0  0  0
    0.4361   -2.0173    4.6069 H   0  0  0  0  0  0  0  0  0  0  0  0
    1.7687   -9.8139    5.4981 H   0  0  0  0  0  0  0  0  0  0  0  0
  1  2  1  0
  1 18  1  0
  1 19  1  0
  1 20  1  0
  2 17  1  0
  2  3  1  0
  3  4  2  0
  3 21  1  0
  4  5  1  0
  4 22  1  0
  5 17  2  0
  5  6  1  0
  6  7  2  0
  6 23  1  0
  7  8  1  0
  7 14  1  0
  8  9  1  0
  8 24  1  0
  8 25  1  0
  9 13  1  0
  9 10  1  0
 10 11  2  0
 11 12  1  0
 11 26  1  0
 12 13  2  0
 14 15  1  0
 14 16  2  0
 16 17  1  0
 16 27  1  0
M  END
>  <i_m_ct_stereo_status>  (16) 
1

>  <s_m_source_file>  (16) 
/var/tmp/pbs.5076255.sched01/tmpu5rzjxe4/0gixxd53k.sdf

>  <i_m_source_file_index>  (16) 
6

>  <i_lp_mmshare_version>  (16) 
48012

>  <i_f3d_flags>  (16) 
0

>  <s_epik_input>  (16) 
W2NIXTFbY0hdbihbQ0gzXSljKGMxMilbY0hdYyhDbCljKFtjSF0yKVtDSDJdbjNuW2NIXW5uMw==

>  <s_epik_cmdline>  (16) 
J2VwaWtfcHl0aG9uJywgJy1waHQnLCAnMi4wJywgJy1waCcsICc3LjAnLCAnLXRuJywgJzgnLCAnLW1hJywgJzIwMCcsICctaW1hZScsICc8aW5maWxlLm1hZT4nLCAnLW9tYWUnLCAnPG91dGZpbGUubWFlPic=

>  <r_lp_tautomer_probability>  (16) 
1

>  <r_epik_Ionization_Penalty>  (16) 
1.95475e-07

>  <r_epik_Ionization_Penalty_Charging>  (16) 
0

>  <r_epik_Ionization_Penalty_Neutral>  (16) 
1.95475e-07

>  <r_epik_State_Penalty>  (16) 
-0

>  <r_epik_Charging_Adjusted_Penalty>  (16) 
0

>  <i_epik_Tot_Q>  (16) 
0

>  <i_epik_Tot_abs_Q>  (16) 
0

>  <s_lp_Force_Field>  (16) 
OPLS3e

>  <r_lp_Energy>  (16) 
16.5001

>  <b_lp_Chiralities_Consistent>  (16) 
1

>  <s_lp_Variant>  (16) 
5:0-1

>  <s_i_glide_gridfile>  (16) 
pfpi4k_grid

>  <i_i_glide_lignum>  (16) 
6

>  <i_i_glide_rotatable_bonds>  (16) 
2

>  <r_i_docking_score>  (16) 
-2.89449

>  <r_i_glide_ligand_efficiency>  (16) 
-0.170264

>  <r_i_glide_ligand_efficiency_sa>  (16) 
-0.437797

>  <r_i_glide_ligand_efficiency_ln>  (16) 
-0.755108

>  <r_i_glide_gscore>  (16) 
-2.89449

>  <r_i_glide_lipo>  (16) 
-0.260221

>  <r_i_glide_hbond>  (16) 
0

>  <r_i_glide_metal>  (16) 
-0

>  <r_i_glide_rewards>  (16) 
-1.72034

>  <r_i_glide_evdw>  (16) 
-20.6097

>  <r_i_glide_ecoul>  (16) 
-2.13194

>  <r_i_glide_erotb>  (16) 
0.569004

>  <r_i_glide_esite>  (16) 
-0.132655

>  <r_i_glide_emodel>  (16) 
-26.7142

>  <r_i_glide_energy>  (16) 
-22.7416

>  <r_i_glide_einternal>  (16) 
1.62905

>  <r_i_glide_intrahb_reward>  (16) 
-0

>  <i_i_glide_confnum>  (16) 
6

>  <i_i_glide_posenum>  (16) 
19

>  <r_i_glide_eff_state_penalty>  (16) 
0

>  <ligand_id>  (16) 
5

>  <original_smiles>  (16) 
Cn1ccc2cc(Cn3ncnn3)c(Cl)cc21

>  <smiles>  (16) 
[H]c1nnn(C([H])([H])c2c(Cl)c([H])c3c(c2[H])c([H])c([H])n3C([H])([H])[H])n1

$$$$
5:0:2
     RDKit          3D

 27 29  0  0  1  0  0  0  0  0999 V2000
    1.0344  -11.6199    4.2079 C   0  0  0  0  0  0  0  0  0  0  0  0
    0.5889  -10.2572    4.0176 N   0  0  0  0  0  0  0  0  0  0  0  0
    0.1099   -9.7317    2.8230 C   0  0  0  0  0  0  0  0  0  0  0  0
   -0.2534   -8.4239    3.0036 C   0  0  0  0  0  0  0  0  0  0  0  0
   -0.0053   -8.1348    4.3844 C   0  0  0  0  0  0  0  0  0  0  0  0
   -0.1800   -6.9911    5.1897 C   0  0  0  0  0  0  0  0  0  0  0  0
    0.2139   -6.9507    6.5554 C   0  0  0  0  0  0  0  0  0  0  0  0
    0.0493   -5.6578    7.3644 C   0  0  0  0  0  0  0  0  0  0  0  0
    0.1259   -4.4392    6.5624 N   0  0  0  0  0  0  0  0  0  0  0  0
    1.0975   -4.2207    5.6487 N   0  0  0  0  0  0  0  0  0  0  0  0
    0.6433   -3.0820    5.1292 C   0  0  0  0  0  0  0  0  0  0  0  0
   -0.4698   -2.5913    5.7429 N   0  0  0  0  0  0  0  0  0  0  0  0
   -0.7804   -3.4441    6.6702 N   0  0  0  0  0  0  0  0  0  0  0  0
    0.7270   -8.1282    7.1544 C   0  0  0  0  0  0  0  0  0  0  0  0
    1.1493   -8.1755    8.8303 Cl  0  0  0  0  0  0  0  0  0  0  0  0
    0.8824   -9.2941    6.3740 C   0  0  0  0  0  0  0  0  0  0  0  0
    0.5311   -9.2866    5.0063 C   0  0  0  0  0  0  0  0  0  0  0  0
    0.9334  -12.1807    3.2783 H   0  0  0  0  0  0  0  0  0  0  0  0
    0.4243  -12.0970    4.9782 H   0  0  0  0  0  0  0  0  0  0  0  0
    2.0790  -11.6271    4.5245 H   0  0  0  0  0  0  0  0  0  0  0  0
    0.0544  -10.3359    1.9297 H   0  0  0  0  0  0  0  0  0  0  0  0
   -0.6491   -7.7439    2.2685 H   0  0  0  0  0  0  0  0  0  0  0  0
   -0.6017   -6.1343    4.6911 H   0  0  0  0  0  0  0  0  0  0  0  0
   -0.9225   -5.6990    7.8584 H   0  0  0  0  0  0  0  0  0  0  0  0
    0.8079   -5.5782    8.1394 H   0  0  0  0  0  0  0  0  0  0  0  0
    1.1137   -2.6236    4.2638 H   0  0  0  0  0  0  0  0  0  0  0  0
    1.2620  -10.2026    6.8138 H   0  0  0  0  0  0  0  0  0  0  0  0
  1  2  1  0
  1 18  1  0
  1 19  1  0
  1 20  1  0
  2 17  1  0
  2  3  1  0
  3  4  2  0
  3 21  1  0
  4  5  1  0
  4 22  1  0
  5 17  2  0
  5  6  1  0
  6  7  2  0
  6 23  1  0
  7  8  1  0
  7 14  1  0
  8  9  1  0
  8 24  1  0
  8 25  1  0
  9 13  1  0
  9 10  1  0
 10 11  2  0
 11 12  1  0
 11 26  1  0
 12 13  2  0
 14 15  1  0
 14 16  2  0
 16 17  1  0
 16 27  1  0
M  END
>  <i_m_ct_stereo_status>  (17) 
1

>  <s_m_source_file>  (17) 
/var/tmp/pbs.5076255.sched01/tmpu5rzjxe4/0gixxd53k.sdf

>  <i_m_source_file_index>  (17) 
6

>  <i_lp_mmshare_version>  (17) 
48012

>  <i_f3d_flags>  (17) 
0

>  <s_epik_input>  (17) 
W2NIXTFbY0hdbihbQ0gzXSljKGMxMilbY0hdYyhDbCljKFtjSF0yKVtDSDJdbjNuW2NIXW5uMw==

>  <s_epik_cmdline>  (17) 
J2VwaWtfcHl0aG9uJywgJy1waHQnLCAnMi4wJywgJy1waCcsICc3LjAnLCAnLXRuJywgJzgnLCAnLW1hJywgJzIwMCcsICctaW1hZScsICc8aW5maWxlLm1hZT4nLCAnLW9tYWUnLCAnPG91dGZpbGUubWFlPic=

>  <r_lp_tautomer_probability>  (17) 
1

>  <r_epik_Ionization_Penalty>  (17) 
1.95475e-07

>  <r_epik_Ionization_Penalty_Charging>  (17) 
0

>  <r_epik_Ionization_Penalty_Neutral>  (17) 
1.95475e-07

>  <r_epik_State_Penalty>  (17) 
-0

>  <r_epik_Charging_Adjusted_Penalty>  (17) 
0

>  <i_epik_Tot_Q>  (17) 
0

>  <i_epik_Tot_abs_Q>  (17) 
0

>  <s_lp_Force_Field>  (17) 
OPLS3e

>  <r_lp_Energy>  (17) 
16.5001

>  <b_lp_Chiralities_Consistent>  (17) 
1

>  <s_lp_Variant>  (17) 
5:0-1

>  <s_i_glide_gridfile>  (17) 
pfpi4k_grid

>  <i_i_glide_lignum>  (17) 
6

>  <i_i_glide_rotatable_bonds>  (17) 
2

>  <r_i_docking_score>  (17) 
-2.77108

>  <r_i_glide_ligand_efficiency>  (17) 
-0.163005

>  <r_i_glide_ligand_efficiency_sa>  (17) 
-0.419132

>  <r_i_glide_ligand_efficiency_ln>  (17) 
-0.722914

>  <r_i_glide_gscore>  (17) 
-2.77108

>  <r_i_glide_lipo>  (17) 
-0.0740507

>  <r_i_glide_hbond>  (17) 
0

>  <r_i_glide_metal>  (17) 
-0

>  <r_i_glide_rewards>  (17) 
-1.72034

>  <r_i_glide_evdw>  (17) 
-19.906

>  <r_i_glide_ecoul>  (17) 
-2.944

>  <r_i_glide_erotb>  (17) 
0.569004

>  <r_i_glide_esite>  (17) 
-0.108794

>  <r_i_glide_emodel>  (17) 
-25.9757

>  <r_i_glide_energy>  (17) 
-22.85

>  <r_i_glide_einternal>  (17) 
2.36147

>  <r_i_glide_intrahb_reward>  (17) 
-0

>  <i_i_glide_confnum>  (17) 
2

>  <i_i_glide_posenum>  (17) 
34

>  <r_i_glide_eff_state_penalty>  (17) 
0

>  <ligand_id>  (17) 
5

>  <original_smiles>  (17) 
Cn1ccc2cc(Cn3ncnn3)c(Cl)cc21

>  <smiles>  (17) 
[H]c1nnn(C([H])([H])c2c(Cl)c([H])c3c(c2[H])c([H])c([H])n3C([H])([H])[H])n1

$$$$
6:0:0
     RDKit          3D

 56 59  0  0  1  0  0  0  0  0999 V2000
    1.0360  -10.9564    3.6399 C   0  0  0  0  0  0  0  0  0  0  0  0
    0.3221  -10.2509    2.4754 C   0  0  0  0  0  0  0  0  0  0  0  0
   -0.7336   -9.2081    2.8967 C   0  0  0  0  0  0  0  0  0  0  0  0
   -0.1251   -7.9183    3.4799 C   0  0  0  0  0  0  0  0  0  0  0  0
    0.2845   -6.8602    2.4366 C   0  0  0  0  0  0  0  0  0  0  0  0
   -0.4263   -6.6775    1.4441 O   0  0  0  0  0  0  0  0  0  0  0  0
    1.4051   -6.1338    2.6359 N   0  0  0  0  0  0  0  0  0  0  0  0
    2.0048   -5.3009    1.5893 C   0  0  0  0  0  0  0  0  0  0  0  0
    3.4705   -5.7148    1.3857 C   0  0  0  0  0  0  0  0  0  0  0  0
    4.2212   -5.5988    2.6593 N   0  0  0  0  0  0  0  0  0  0  0  0
    5.6668   -5.8597    2.4540 C   0  0  2  0  0  0  0  0  0  0  0  0
    6.5051   -6.0363    3.7256 C   0  0  0  0  0  0  0  0  0  0  0  0
    6.1369   -5.4708    4.9666 C   0  0  0  0  0  0  0  0  0  0  0  0
    6.8832   -5.7436    6.1272 C   0  0  0  0  0  0  0  0  0  0  0  0
    8.0776   -6.4923    6.0458 C   0  0  0  0  0  0  0  0  0  0  0  0
    9.0203   -6.7672    7.4682 Cl  0  0  0  0  0  0  0  0  0  0  0  0
    8.4913   -6.9966    4.8026 C   0  0  0  0  0  0  0  0  0  0  0  0
    7.7099   -6.7790    3.6458 C   0  0  0  0  0  0  0  0  0  0  0  0
    8.1695   -7.3391    2.3091 C   0  0  0  0  0  0  0  0  0  0  0  0
    8.6184   -6.2577    1.3069 C   0  0  0  0  0  0  0  0  0  0  0  0
    7.7002   -5.0641    0.9912 C   0  0  0  0  0  0  0  0  0  0  0  0
    8.2102   -4.0998    0.0966 C   0  0  0  0  0  0  0  0  0  0  0  0
    7.4310   -2.9915   -0.2569 C   0  0  0  0  0  0  0  0  0  0  0  0
    6.1616   -2.8610    0.3282 C   0  0  0  0  0  0  0  0  0  0  0  0
    5.6782   -3.7425    1.2187 N   0  0  0  0  0  0  0  0  0  0  0  0
    6.3904   -4.8480    1.5343 C   0  0  0  0  0  0  0  0  0  0  0  0
    3.5919   -6.5406    3.6001 C   0  0  0  0  0  0  0  0  0  0  0  0
    2.1668   -6.0657    3.8825 C   0  0  0  0  0  0  0  0  0  0  0  0
    1.6845  -11.7515    3.2694 H   0  0  0  0  0  0  0  0  0  0  0  0
    0.3213  -11.4146    4.3259 H   0  0  0  0  0  0  0  0  0  0  0  0
    1.6643  -10.2775    4.2177 H   0  0  0  0  0  0  0  0  0  0  0  0
    1.0650   -9.7991    1.8094 H   0  0  0  0  0  0  0  0  0  0  0  0
   -0.1849  -11.0161    1.8838 H   0  0  0  0  0  0  0  0  0  0  0  0
   -1.3820   -8.9792    2.0485 H   0  0  0  0  0  0  0  0  0  0  0  0
   -1.3802   -9.6414    3.6592 H   0  0  0  0  0  0  0  0  0  0  0  0
   -0.8432   -7.4382    4.1445 H   0  0  0  0  0  0  0  0  0  0  0  0
    0.7031   -8.2363    4.1109 H   0  0  0  0  0  0  0  0  0  0  0  0
    1.5031   -5.3937    0.6229 H   0  0  0  0  0  0  0  0  0  0  0  0
    1.9439   -4.2470    1.8647 H   0  0  0  0  0  0  0  0  0  0  0  0
    3.5221   -6.7423    1.0194 H   0  0  0  0  0  0  0  0  0  0  0  0
    3.8534   -5.0857    0.5789 H   0  0  0  0  0  0  0  0  0  0  0  0
    5.6657   -6.8125    1.9335 H   0  0  0  0  0  0  0  0  0  0  0  0
    5.2480   -4.8613    5.0534 H   0  0  0  0  0  0  0  0  0  0  0  0
    6.5415   -5.3796    7.0842 H   0  0  0  0  0  0  0  0  0  0  0  0
    9.4161   -7.5575    4.7438 H   0  0  0  0  0  0  0  0  0  0  0  0
    8.9921   -8.0352    2.4871 H   0  0  0  0  0  0  0  0  0  0  0  0
    7.4000   -7.9794    1.8730 H   0  0  0  0  0  0  0  0  0  0  0  0
    9.5334   -5.8296    1.7060 H   0  0  0  0  0  0  0  0  0  0  0  0
    8.8959   -6.7386    0.3739 H   0  0  0  0  0  0  0  0  0  0  0  0
    9.2043   -4.2049   -0.3102 H   0  0  0  0  0  0  0  0  0  0  0  0
    7.7867   -2.2835   -0.9885 H   0  0  0  0  0  0  0  0  0  0  0  0
    5.4916   -2.0654    0.0372 H   0  0  0  0  0  0  0  0  0  0  0  0
    3.6131   -7.5553    3.1909 H   0  0  0  0  0  0  0  0  0  0  0  0
    4.0541   -6.5687    4.5866 H   0  0  0  0  0  0  0  0  0  0  0  0
    2.1546   -5.0306    4.2338 H   0  0  0  0  0  0  0  0  0  0  0  0
    1.7687   -6.6548    4.7058 H   0  0  0  0  0  0  0  0  0  0  0  0
  1  2  1  0
  1 29  1  0
  1 30  1  0
  1 31  1  0
  2  3  1  0
  2 32  1  0
  2 33  1  0
  3  4  1  0
  3 34  1  0
  3 35  1  0
  4  5  1  0
  4 36  1  0
  4 37  1  0
  5  6  2  0
  5  7  1  0
  7 28  1  0
  7  8  1  0
  8  9  1  0
  8 38  1  0
  8 39  1  0
  9 10  1  0
  9 40  1  0
  9 41  1  0
 10 11  1  0
 10 27  1  0
 11 26  1  0
 11 12  1  0
 11 42  1  6
 12 18  1  0
 12 13  2  0
 13 14  1  0
 13 43  1  0
 14 15  2  0
 14 44  1  0
 15 16  1  0
 15 17  1  0
 17 18  2  0
 17 45  1  0
 18 19  1  0
 19 20  1  0
 19 46  1  0
 19 47  1  0
 20 21  1  0
 20 48  1  0
 20 49  1  0
 21 26  2  0
 21 22  1  0
 22 23  2  0
 22 50  1  0
 23 24  1  0
 23 51  1  0
 24 25  2  0
 24 52  1  0
 25 26  1  0
 27 28  1  0
 27 53  1  0
 27 54  1  0
 28 55  1  0
 28 56  1  0
M  END
>  <i_m_ct_stereo_status>  (18) 
1

>  <s_m_source_file>  (18) 
/var/tmp/pbs.5076255.sched01/tmpu5rzjxe4/0gixxd53k.sdf

>  <i_m_source_file_index>  (18) 
7

>  <i_lp_mmshare_version>  (18) 
48012

>  <i_f3d_flags>  (18) 
0

>  <s_epik_input>  (18) 
W0NIM11bQ0gyXVtDSDJdW0NIMl1DKD1PKU4xW0NIMl1bQ0gyXU4oW0NIMl1bQ0gyXTEpW0NASF0yYyhuW2NIXVtjSF1bY0hdMyljM1tDSDJdW0NIMl1jKGMyNClbY0hdYyhDbClbY0hdW2NIXTQ=

>  <s_epik_cmdline>  (18) 
J2VwaWtfcHl0aG9uJywgJy1waHQnLCAnMi4wJywgJy1waCcsICc3LjAnLCAnLXRuJywgJzgnLCAnLW1hJywgJzIwMCcsICctaW1hZScsICc8aW5maWxlLm1hZT4nLCAnLW9tYWUnLCAnPG91dGZpbGUubWFlPic=

>  <r_epik_Ionization_Penalty>  (18) 
0.303072

>  <r_epik_Ionization_Penalty_Charging>  (18) 
0

>  <r_epik_Ionization_Penalty_Neutral>  (18) 
0.303072

>  <r_epik_State_Penalty>  (18) 
0.296678

>  <r_epik_Charging_Adjusted_Penalty>  (18) 
0.296678

>  <i_epik_Tot_Q>  (18) 
0

>  <i_epik_Tot_abs_Q>  (18) 
0

>  <s_lp_Force_Field>  (18) 
OPLS3e

>  <r_lp_Energy>  (18) 
70.2486

>  <b_lp_Chiralities_Consistent>  (18) 
1

>  <s_lp_Variant>  (18) 
6:0-1

>  <s_i_glide_gridfile>  (18) 
pfpi4k_grid

>  <i_i_glide_lignum>  (18) 
7

>  <i_i_glide_rotatable_bonds>  (18) 
5

>  <r_i_docking_score>  (18) 
-3.15953

>  <r_i_glide_ligand_efficiency>  (18) 
-0.11284

>  <r_i_glide_ligand_efficiency_sa>  (18) 
-0.342649

>  <r_i_glide_ligand_efficiency_ln>  (18) 
-0.729311

>  <r_i_glide_gscore>  (18) 
-3.15953

>  <r_i_glide_lipo>  (18) 
-0.909336

>  <r_i_glide_hbond>  (18) 
-0.253003

>  <r_i_glide_metal>  (18) 
-0

>  <r_i_glide_rewards>  (18) 
-0.695859

>  <r_i_glide_evdw>  (18) 
-27.0287

>  <r_i_glide_ecoul>  (18) 
-2.2117

>  <r_i_glide_erotb>  (18) 
0.494573

>  <r_i_glide_esite>  (18) 
-0.11271

>  <r_i_glide_emodel>  (18) 
-33.1407

>  <r_i_glide_energy>  (18) 
-29.2404

>  <r_i_glide_einternal>  (18) 
2.768

>  <r_i_glide_intrahb_reward>  (18) 
-0

>  <i_i_glide_confnum>  (18) 
5

>  <i_i_glide_posenum>  (18) 
24

>  <r_i_glide_eff_state_penalty>  (18) 
0

>  <ligand_id>  (18) 
6

>  <original_smiles>  (18) 
CCCCC(=O)N1CCN(C2c3ccc(Cl)cc3CCc3cccnc32)CC1

>  <smiles>  (18) 
[H]c1nc2c(c([H])c1[H])C([H])([H])C([H])([H])c1c([H])c(Cl)c([H])c([H])c1C2([H])N1C([H])([H])C([H])([H])N(C(=O)C([H])([H])C([H])([H])C([H])([H])C([H])([H])[H])C([H])([H])C1([H])[H]

$$$$
6:0:1
     RDKit          3D

 56 59  0  0  1  0  0  0  0  0999 V2000
   -2.5829    3.4708    5.2857 C   0  0  0  0  0  0  0  0  0  0  0  0
   -2.6440    3.0222    3.8157 C   0  0  0  0  0  0  0  0  0  0  0  0
   -1.2930    3.1147    3.0878 C   0  0  0  0  0  0  0  0  0  0  0  0
   -0.0579    2.5255    3.7952 C   0  0  0  0  0  0  0  0  0  0  0  0
   -0.1755    1.0577    4.2613 C   0  0  0  0  0  0  0  0  0  0  0  0
   -1.2068    0.7008    4.8353 O   0  0  0  0  0  0  0  0  0  0  0  0
    0.8669    0.2116    4.1226 N   0  0  0  0  0  0  0  0  0  0  0  0
    2.1317    0.4895    3.4339 C   0  0  0  0  0  0  0  0  0  0  0  0
    2.3419   -0.5768    2.3562 C   0  0  0  0  0  0  0  0  0  0  0  0
    2.3867   -1.9249    2.9669 N   0  0  0  0  0  0  0  0  0  0  0  0
    2.7965   -2.9349    1.9591 C   0  0  2  0  0  0  0  0  0  0  0  0
    2.6251   -4.3981    2.3810 C   0  0  0  0  0  0  0  0  0  0  0  0
    2.6362   -4.8080    3.7254 C   0  0  0  0  0  0  0  0  0  0  0  0
    2.3763   -6.1496    4.0707 C   0  0  0  0  0  0  0  0  0  0  0  0
    2.2141   -7.1224    3.0617 C   0  0  0  0  0  0  0  0  0  0  0  0
    1.9524   -8.7790    3.4845 Cl  0  0  0  0  0  0  0  0  0  0  0  0
    2.2734   -6.7344    1.7125 C   0  0  0  0  0  0  0  0  0  0  0  0
    2.4785   -5.3835    1.3591 C   0  0  0  0  0  0  0  0  0  0  0  0
    2.5363   -4.9773   -0.1006 C   0  0  0  0  0  0  0  0  0  0  0  0
    3.9399   -4.5290   -0.5580 C   0  0  0  0  0  0  0  0  0  0  0  0
    4.6939   -3.4385    0.2184 C   0  0  0  0  0  0  0  0  0  0  0  0
    5.9887   -3.1138   -0.2626 C   0  0  0  0  0  0  0  0  0  0  0  0
    6.7477   -2.1247    0.3928 C   0  0  0  0  0  0  0  0  0  0  0  0
    6.1871   -1.5075    1.5185 C   0  0  0  0  0  0  0  0  0  0  0  0
    4.9851   -1.8330    2.0070 N   0  0  0  0  0  0  0  0  0  0  0  0
    4.2210   -2.7630    1.3842 C   0  0  0  0  0  0  0  0  0  0  0  0
    1.0547   -2.1774    3.5378 C   0  0  0  0  0  0  0  0  0  0  0  0
    0.8151   -1.1586    4.6535 C   0  0  0  0  0  0  0  0  0  0  0  0
   -3.5735    3.4223    5.7412 H   0  0  0  0  0  0  0  0  0  0  0  0
   -2.1864    4.4838    5.3571 H   0  0  0  0  0  0  0  0  0  0  0  0
   -1.9342    2.8349    5.8907 H   0  0  0  0  0  0  0  0  0  0  0  0
   -3.0104    1.9983    3.7609 H   0  0  0  0  0  0  0  0  0  0  0  0
   -3.3784    3.6241    3.2728 H   0  0  0  0  0  0  0  0  0  0  0  0
   -1.3929    2.6407    2.1108 H   0  0  0  0  0  0  0  0  0  0  0  0
   -1.0798    4.1660    2.8857 H   0  0  0  0  0  0  0  0  0  0  0  0
    0.7324    2.6961    3.0845 H   0  0  0  0  0  0  0  0  0  0  0  0
    0.1889    3.1207    4.6740 H   0  0  0  0  0  0  0  0  0  0  0  0
    2.1981    1.4405    2.9128 H   0  0  0  0  0  0  0  0  0  0  0  0
    2.9407    0.4574    4.1701 H   0  0  0  0  0  0  0  0  0  0  0  0
    1.5443   -0.5422    1.6111 H   0  0  0  0  0  0  0  0  0  0  0  0
    3.2583   -0.2936    1.8418 H   0  0  0  0  0  0  0  0  0  0  0  0
    2.1043   -2.7456    1.1450 H   0  0  0  0  0  0  0  0  0  0  0  0
    2.8009   -4.0860    4.5242 H   0  0  0  0  0  0  0  0  0  0  0  0
    2.3023   -6.4366    5.1050 H   0  0  0  0  0  0  0  0  0  0  0  0
    2.1669   -7.4916    0.9441 H   0  0  0  0  0  0  0  0  0  0  0  0
    2.1893   -5.8191   -0.6981 H   0  0  0  0  0  0  0  0  0  0  0  0
    1.8170   -4.1907   -0.3226 H   0  0  0  0  0  0  0  0  0  0  0  0
    4.5731   -5.4167   -0.5529 H   0  0  0  0  0  0  0  0  0  0  0  0
    3.8739   -4.2262   -1.6010 H   0  0  0  0  0  0  0  0  0  0  0  0
    6.3998   -3.6546   -1.1093 H   0  0  0  0  0  0  0  0  0  0  0  0
    7.7196   -1.8442    0.0244 H   0  0  0  0  0  0  0  0  0  0  0  0
    6.7029   -0.7023    2.0162 H   0  0  0  0  0  0  0  0  0  0  0  0
    0.2839   -2.0836    2.7704 H   0  0  0  0  0  0  0  0  0  0  0  0
    0.9442   -3.1435    4.0379 H   0  0  0  0  0  0  0  0  0  0  0  0
    1.5582   -1.2379    5.4472 H   0  0  0  0  0  0  0  0  0  0  0  0
   -0.1329   -1.4103    5.1299 H   0  0  0  0  0  0  0  0  0  0  0  0
  1  2  1  0
  1 29  1  0
  1 30  1  0
  1 31  1  0
  2  3  1  0
  2 32  1  0
  2 33  1  0
  3  4  1  0
  3 34  1  0
  3 35  1  0
  4  5  1  0
  4 36  1  0
  4 37  1  0
  5  6  2  0
  5  7  1  0
  7 28  1  0
  7  8  1  0
  8  9  1  0
  8 38  1  0
  8 39  1  0
  9 10  1  0
  9 40  1  0
  9 41  1  0
 10 11  1  0
 10 27  1  0
 11 26  1  0
 11 12  1  0
 11 42  1  6
 12 18  1  0
 12 13  2  0
 13 14  1  0
 13 43  1  0
 14 15  2  0
 14 44  1  0
 15 16  1  0
 15 17  1  0
 17 18  2  0
 17 45  1  0
 18 19  1  0
 19 20  1  0
 19 46  1  0
 19 47  1  0
 20 21  1  0
 20 48  1  0
 20 49  1  0
 21 26  2  0
 21 22  1  0
 22 23  2  0
 22 50  1  0
 23 24  1  0
 23 51  1  0
 24 25  2  0
 24 52  1  0
 25 26  1  0
 27 28  1  0
 27 53  1  0
 27 54  1  0
 28 55  1  0
 28 56  1  0
M  END
>  <i_m_ct_stereo_status>  (19) 
1

>  <s_m_source_file>  (19) 
/var/tmp/pbs.5076255.sched01/tmpu5rzjxe4/0gixxd53k.sdf

>  <i_m_source_file_index>  (19) 
7

>  <i_lp_mmshare_version>  (19) 
48012

>  <i_f3d_flags>  (19) 
0

>  <s_epik_input>  (19) 
W0NIM11bQ0gyXVtDSDJdW0NIMl1DKD1PKU4xW0NIMl1bQ0gyXU4oW0NIMl1bQ0gyXTEpW0NASF0yYyhuW2NIXVtjSF1bY0hdMyljM1tDSDJdW0NIMl1jKGMyNClbY0hdYyhDbClbY0hdW2NIXTQ=

>  <s_epik_cmdline>  (19) 
J2VwaWtfcHl0aG9uJywgJy1waHQnLCAnMi4wJywgJy1waCcsICc3LjAnLCAnLXRuJywgJzgnLCAnLW1hJywgJzIwMCcsICctaW1hZScsICc8aW5maWxlLm1hZT4nLCAnLW9tYWUnLCAnPG91dGZpbGUubWFlPic=

>  <r_epik_Ionization_Penalty>  (19) 
0.303072

>  <r_epik_Ionization_Penalty_Charging>  (19) 
0

>  <r_epik_Ionization_Penalty_Neutral>  (19) 
0.303072

>  <r_epik_State_Penalty>  (19) 
0.296678

>  <r_epik_Charging_Adjusted_Penalty>  (19) 
0.296678

>  <i_epik_Tot_Q>  (19) 
0

>  <i_epik_Tot_abs_Q>  (19) 
0

>  <s_lp_Force_Field>  (19) 
OPLS3e

>  <r_lp_Energy>  (19) 
70.2486

>  <b_lp_Chiralities_Consistent>  (19) 
1

>  <s_lp_Variant>  (19) 
6:0-1

>  <s_i_glide_gridfile>  (19) 
pfpi4k_grid

>  <i_i_glide_lignum>  (19) 
7

>  <i_i_glide_rotatable_bonds>  (19) 
5

>  <r_i_docking_score>  (19) 
-2.32447

>  <r_i_glide_ligand_efficiency>  (19) 
-0.0830167

>  <r_i_glide_ligand_efficiency_sa>  (19) 
-0.252088

>  <r_i_glide_ligand_efficiency_ln>  (19) 
-0.536556

>  <r_i_glide_gscore>  (19) 
-2.32447

>  <r_i_glide_lipo>  (19) 
-0.381844

>  <r_i_glide_hbond>  (19) 
0

>  <r_i_glide_metal>  (19) 
-0

>  <r_i_glide_rewards>  (19) 
-0.695859

>  <r_i_glide_evdw>  (19) 
-24.6002

>  <r_i_glide_ecoul>  (19) 
-3.25819

>  <r_i_glide_erotb>  (19) 
0.494573

>  <r_i_glide_esite>  (19) 
-0.022598

>  <r_i_glide_emodel>  (19) 
-30.5603

>  <r_i_glide_energy>  (19) 
-27.8584

>  <r_i_glide_einternal>  (19) 
1.67404

>  <r_i_glide_intrahb_reward>  (19) 
-0

>  <i_i_glide_confnum>  (19) 
4

>  <i_i_glide_posenum>  (19) 
3

>  <r_i_glide_eff_state_penalty>  (19) 
0

>  <ligand_id>  (19) 
6

>  <original_smiles>  (19) 
CCCCC(=O)N1CCN(C2c3ccc(Cl)cc3CCc3cccnc32)CC1

>  <smiles>  (19) 
[H]c1nc2c(c([H])c1[H])C([H])([H])C([H])([H])c1c([H])c(Cl)c([H])c([H])c1C2([H])N1C([H])([H])C([H])([H])N(C(=O)C([H])([H])C([H])([H])C([H])([H])C([H])([H])[H])C([H])([H])C1([H])[H]

$$$$
6:0:2
     RDKit          3D

 56 59  0  0  1  0  0  0  0  0999 V2000
    7.3953   -2.2660   -0.2790 C   0  0  0  0  0  0  0  0  0  0  0  0
    7.4094   -2.8497   -1.6937 C   0  0  0  0  0  0  0  0  0  0  0  0
    6.0531   -2.9977   -2.4378 C   0  0  0  0  0  0  0  0  0  0  0  0
    4.9860   -3.8998   -1.7760 C   0  0  0  0  0  0  0  0  0  0  0  0
    4.4528   -3.3604   -0.4316 C   0  0  0  0  0  0  0  0  0  0  0  0
    4.2269   -2.1526   -0.3404 O   0  0  0  0  0  0  0  0  0  0  0  0
    4.3103   -4.2158    0.6165 N   0  0  0  0  0  0  0  0  0  0  0  0
    4.3481   -5.6845    0.5464 C   0  0  0  0  0  0  0  0  0  0  0  0
    3.0545   -6.2600    1.1262 C   0  0  0  0  0  0  0  0  0  0  0  0
    2.8706   -5.8206    2.5254 N   0  0  0  0  0  0  0  0  0  0  0  0
    1.7086   -6.5226    3.1342 C   0  0  2  0  0  0  0  0  0  0  0  0
    1.2367   -5.9731    4.4796 C   0  0  0  0  0  0  0  0  0  0  0  0
    2.0873   -5.2769    5.3638 C   0  0  0  0  0  0  0  0  0  0  0  0
    1.5956   -4.7118    6.5460 C   0  0  0  0  0  0  0  0  0  0  0  0
    0.2485   -4.9229    6.9285 C   0  0  0  0  0  0  0  0  0  0  0  0
   -0.3606   -4.2682    8.4061 Cl  0  0  0  0  0  0  0  0  0  0  0  0
   -0.5908   -5.6701    6.0873 C   0  0  0  0  0  0  0  0  0  0  0  0
   -0.1156   -6.2086    4.8709 C   0  0  0  0  0  0  0  0  0  0  0  0
   -1.0460   -7.0166    3.9836 C   0  0  0  0  0  0  0  0  0  0  0  0
   -0.6787   -8.5102    3.8988 C   0  0  0  0  0  0  0  0  0  0  0  0
    0.7563   -8.9288    3.5410 C   0  0  0  0  0  0  0  0  0  0  0  0
    0.9994  -10.3276    3.5338 C   0  0  0  0  0  0  0  0  0  0  0  0
    2.2884  -10.8036    3.2170 C   0  0  0  0  0  0  0  0  0  0  0  0
    3.2855   -9.8682    2.9357 C   0  0  0  0  0  0  0  0  0  0  0  0
    3.0745   -8.5464    2.9652 N   0  0  0  0  0  0  0  0  0  0  0  0
    1.8466   -8.0564    3.2584 C   0  0  0  0  0  0  0  0  0  0  0  0
    2.7177   -4.3593    2.5041 C   0  0  0  0  0  0  0  0  0  0  0  0
    4.0181   -3.7425    1.9779 C   0  0  0  0  0  0  0  0  0  0  0  0
    8.4071   -2.1874    0.1263 H   0  0  0  0  0  0  0  0  0  0  0  0
    6.8298   -2.8958    0.4067 H   0  0  0  0  0  0  0  0  0  0  0  0
    6.9399   -1.2816   -0.3093 H   0  0  0  0  0  0  0  0  0  0  0  0
    8.0848   -2.2624   -2.3049 H   0  0  0  0  0  0  0  0  0  0  0  0
    7.9275   -3.7948   -1.6540 H   0  0  0  0  0  0  0  0  0  0  0  0
    5.6349   -2.0143   -2.6482 H   0  0  0  0  0  0  0  0  0  0  0  0
    6.2515   -3.4478   -3.4131 H   0  0  0  0  0  0  0  0  0  0  0  0
    4.1251   -4.0172   -2.4416 H   0  0  0  0  0  0  0  0  0  0  0  0
    5.4092   -4.8907   -1.6597 H   0  0  0  0  0  0  0  0  0  0  0  0
    4.4068   -6.0966   -0.4626 H   0  0  0  0  0  0  0  0  0  0  0  0
    5.2196   -6.0406    1.0989 H   0  0  0  0  0  0  0  0  0  0  0  0
    2.2052   -5.9375    0.5195 H   0  0  0  0  0  0  0  0  0  0  0  0
    3.1370   -7.3424    1.0040 H   0  0  0  0  0  0  0  0  0  0  0  0
    0.9181   -6.3353    2.4142 H   0  0  0  0  0  0  0  0  0  0  0  0
    3.1425   -5.1343    5.1084 H   0  0  0  0  0  0  0  0  0  0  0  0
    2.2388   -4.1146    7.1745 H   0  0  0  0  0  0  0  0  0  0  0  0
   -1.6188   -5.8417    6.3897 H   0  0  0  0  0  0  0  0  0  0  0  0
   -2.0725   -6.9130    4.3499 H   0  0  0  0  0  0  0  0  0  0  0  0
   -1.0803   -6.6048    2.9754 H   0  0  0  0  0  0  0  0  0  0  0  0
   -0.8948   -8.9395    4.8770 H   0  0  0  0  0  0  0  0  0  0  0  0
   -1.3716   -8.9956    3.2127 H   0  0  0  0  0  0  0  0  0  0  0  0
    0.2059  -11.0170    3.8001 H   0  0  0  0  0  0  0  0  0  0  0  0
    2.4705  -11.8639    3.1547 H   0  0  0  0  0  0  0  0  0  0  0  0
    4.2622  -10.1954    2.6163 H   0  0  0  0  0  0  0  0  0  0  0  0
    1.8844   -4.0649    1.8672 H   0  0  0  0  0  0  0  0  0  0  0  0
    2.5914   -3.9115    3.4917 H   0  0  0  0  0  0  0  0  0  0  0  0
    4.8692   -4.0108    2.6039 H   0  0  0  0  0  0  0  0  0  0  0  0
    3.9495   -2.6557    2.0379 H   0  0  0  0  0  0  0  0  0  0  0  0
  1  2  1  0
  1 29  1  0
  1 30  1  0
  1 31  1  0
  2  3  1  0
  2 32  1  0
  2 33  1  0
  3  4  1  0
  3 34  1  0
  3 35  1  0
  4  5  1  0
  4 36  1  0
  4 37  1  0
  5  6  2  0
  5  7  1  0
  7 28  1  0
  7  8  1  0
  8  9  1  0
  8 38  1  0
  8 39  1  0
  9 10  1  0
  9 40  1  0
  9 41  1  0
 10 11  1  0
 10 27  1  0
 11 26  1  0
 11 12  1  0
 11 42  1  6
 12 18  1  0
 12 13  2  0
 13 14  1  0
 13 43  1  0
 14 15  2  0
 14 44  1  0
 15 16  1  0
 15 17  1  0
 17 18  2  0
 17 45  1  0
 18 19  1  0
 19 20  1  0
 19 46  1  0
 19 47  1  0
 20 21  1  0
 20 48  1  0
 20 49  1  0
 21 26  2  0
 21 22  1  0
 22 23  2  0
 22 50  1  0
 23 24  1  0
 23 51  1  0
 24 25  2  0
 24 52  1  0
 25 26  1  0
 27 28  1  0
 27 53  1  0
 27 54  1  0
 28 55  1  0
 28 56  1  0
M  END
>  <i_m_ct_stereo_status>  (20) 
1

>  <s_m_source_file>  (20) 
/var/tmp/pbs.5076255.sched01/tmpu5rzjxe4/0gixxd53k.sdf

>  <i_m_source_file_index>  (20) 
7

>  <i_lp_mmshare_version>  (20) 
48012

>  <i_f3d_flags>  (20) 
0

>  <s_epik_input>  (20) 
W0NIM11bQ0gyXVtDSDJdW0NIMl1DKD1PKU4xW0NIMl1bQ0gyXU4oW0NIMl1bQ0gyXTEpW0NASF0yYyhuW2NIXVtjSF1bY0hdMyljM1tDSDJdW0NIMl1jKGMyNClbY0hdYyhDbClbY0hdW2NIXTQ=

>  <s_epik_cmdline>  (20) 
J2VwaWtfcHl0aG9uJywgJy1waHQnLCAnMi4wJywgJy1waCcsICc3LjAnLCAnLXRuJywgJzgnLCAnLW1hJywgJzIwMCcsICctaW1hZScsICc8aW5maWxlLm1hZT4nLCAnLW9tYWUnLCAnPG91dGZpbGUubWFlPic=

>  <r_epik_Ionization_Penalty>  (20) 
0.303072

>  <r_epik_Ionization_Penalty_Charging>  (20) 
0

>  <r_epik_Ionization_Penalty_Neutral>  (20) 
0.303072

>  <r_epik_State_Penalty>  (20) 
0.296678

>  <r_epik_Charging_Adjusted_Penalty>  (20) 
0.296678

>  <i_epik_Tot_Q>  (20) 
0

>  <i_epik_Tot_abs_Q>  (20) 
0

>  <s_lp_Force_Field>  (20) 
OPLS3e

>  <r_lp_Energy>  (20) 
70.2486

>  <b_lp_Chiralities_Consistent>  (20) 
1

>  <s_lp_Variant>  (20) 
6:0-1

>  <s_i_glide_gridfile>  (20) 
pfpi4k_grid

>  <i_i_glide_lignum>  (20) 
7

>  <i_i_glide_rotatable_bonds>  (20) 
5

>  <r_i_docking_score>  (20) 
-2.26675

>  <r_i_glide_ligand_efficiency>  (20) 
-0.0809554

>  <r_i_glide_ligand_efficiency_sa>  (20) 
-0.245828

>  <r_i_glide_ligand_efficiency_ln>  (20) 
-0.523233

>  <r_i_glide_gscore>  (20) 
-2.26675

>  <r_i_glide_lipo>  (20) 
-0.410496

>  <r_i_glide_hbond>  (20) 
0

>  <r_i_glide_metal>  (20) 
-0

>  <r_i_glide_rewards>  (20) 
-0.797176

>  <r_i_glide_evdw>  (20) 
-29.4476

>  <r_i_glide_ecoul>  (20) 
-0.541816

>  <r_i_glide_erotb>  (20) 
0.494573

>  <r_i_glide_esite>  (20) 
0

>  <r_i_glide_emodel>  (20) 
-32.7484

>  <r_i_glide_energy>  (20) 
-29.9894

>  <r_i_glide_einternal>  (20) 
1.05976

>  <r_i_glide_intrahb_reward>  (20) 
-0

>  <i_i_glide_confnum>  (20) 
2

>  <i_i_glide_posenum>  (20) 
2

>  <r_i_glide_eff_state_penalty>  (20) 
0

>  <ligand_id>  (20) 
6

>  <original_smiles>  (20) 
CCCCC(=O)N1CCN(C2c3ccc(Cl)cc3CCc3cccnc32)CC1

>  <smiles>  (20) 
[H]c1nc2c(c([H])c1[H])C([H])([H])C([H])([H])c1c([H])c(Cl)c([H])c([H])c1C2([H])N1C([H])([H])C([H])([H])N(C(=O)C([H])([H])C([H])([H])C([H])([H])C([H])([H])[H])C([H])([H])C1([H])[H]

$$$$
6:1:0
     RDKit          3D

 57 60  0  0  1  0  0  0  0  0999 V2000
   -4.1959    3.5973    2.1810 C   0  0  0  0  0  0  0  0  0  0  0  0
   -2.8372    3.9063    2.8263 C   0  0  0  0  0  0  0  0  0  0  0  0
   -2.5490    3.0175    4.0484 C   0  0  0  0  0  0  0  0  0  0  0  0
   -1.0905    2.5396    4.1488 C   0  0  0  0  0  0  0  0  0  0  0  0
   -0.5835    1.6992    2.9513 C   0  0  0  0  0  0  0  0  0  0  0  0
   -1.3866    1.3097    2.0986 O   0  0  0  0  0  0  0  0  0  0  0  0
    0.7397    1.4543    2.8710 N   0  0  0  0  0  0  0  0  0  0  0  0
    1.3762    0.9901    1.6314 C   0  0  0  0  0  0  0  0  0  0  0  0
    2.0963   -0.3460    1.8421 C   0  0  0  0  0  0  0  0  0  0  0  0
    3.0666   -0.2572    2.9864 N   0  0  0  0  0  0  0  0  0  0  0  0
    3.8856   -1.4973    3.1591 C   0  0  2  0  0  0  0  0  0  0  0  0
    4.6920   -1.6135    4.4519 C   0  0  0  0  0  0  0  0  0  0  0  0
    5.1864   -0.4900    5.1565 C   0  0  0  0  0  0  0  0  0  0  0  0
    5.8637   -0.6582    6.3754 C   0  0  0  0  0  0  0  0  0  0  0  0
    6.1546   -1.9515    6.8537 C   0  0  0  0  0  0  0  0  0  0  0  0
    7.0602   -2.1495    8.3136 Cl  0  0  0  0  0  0  0  0  0  0  0  0
    5.7250   -3.0747    6.1227 C   0  0  0  0  0  0  0  0  0  0  0  0
    4.9930   -2.9103    4.9263 C   0  0  0  0  0  0  0  0  0  0  0  0
    4.5470   -4.1396    4.1414 C   0  0  0  0  0  0  0  0  0  0  0  0
    5.2674   -4.3185    2.7912 C   0  0  0  0  0  0  0  0  0  0  0  0
    5.3474   -3.1485    1.7877 C   0  0  0  0  0  0  0  0  0  0  0  0
    6.0633   -3.3904    0.5939 C   0  0  0  0  0  0  0  0  0  0  0  0
    6.1615   -2.3794   -0.3742 C   0  0  0  0  0  0  0  0  0  0  0  0
    5.5496   -1.1427   -0.1106 C   0  0  0  0  0  0  0  0  0  0  0  0
    4.9133   -0.8762    1.0394 N   0  0  0  0  0  0  0  0  0  0  0  0
    4.7787   -1.8472    1.9651 C   0  0  0  0  0  0  0  0  0  0  0  0
    2.3291    0.1567    4.2183 C   0  0  0  0  0  0  0  0  0  0  0  0
    1.6449    1.5101    4.0217 C   0  0  0  0  0  0  0  0  0  0  0  0
   -4.3579    4.2182    1.3000 H   0  0  0  0  0  0  0  0  0  0  0  0
   -5.0140    3.7721    2.8726 H   0  0  0  0  0  0  0  0  0  0  0  0
   -4.2456    2.5551    1.8584 H   0  0  0  0  0  0  0  0  0  0  0  0
   -2.0568    3.7741    2.0840 H   0  0  0  0  0  0  0  0  0  0  0  0
   -2.7701    4.9580    3.0986 H   0  0  0  0  0  0  0  0  0  0  0  0
   -2.8101    3.5597    4.9543 H   0  0  0  0  0  0  0  0  0  0  0  0
   -3.1891    2.1414    4.0322 H   0  0  0  0  0  0  0  0  0  0  0  0
   -0.4376    3.4060    4.2713 H   0  0  0  0  0  0  0  0  0  0  0  0
   -1.0034    1.9412    5.0564 H   0  0  0  0  0  0  0  0  0  0  0  0
    0.6557    0.8739    0.8197 H   0  0  0  0  0  0  0  0  0  0  0  0
    2.0870    1.7458    1.2914 H   0  0  0  0  0  0  0  0  0  0  0  0
    1.3641   -1.1271    2.0683 H   0  0  0  0  0  0  0  0  0  0  0  0
    2.5440   -0.6250    0.8880 H   0  0  0  0  0  0  0  0  0  0  0  0
    3.1045   -2.2500    3.1952 H   0  0  0  0  0  0  0  0  0  0  0  0
    5.0149    0.5196    4.7983 H   0  0  0  0  0  0  0  0  0  0  0  0
    6.1739    0.2073    6.9429 H   0  0  0  0  0  0  0  0  0  0  0  0
    5.9748   -4.0634    6.4800 H   0  0  0  0  0  0  0  0  0  0  0  0
    4.7084   -5.0342    4.7515 H   0  0  0  0  0  0  0  0  0  0  0  0
    3.4661   -4.1287    4.0003 H   0  0  0  0  0  0  0  0  0  0  0  0
    6.2927   -4.5932    3.0122 H   0  0  0  0  0  0  0  0  0  0  0  0
    4.8475   -5.1760    2.2802 H   0  0  0  0  0  0  0  0  0  0  0  0
    6.5474   -4.3416    0.4376 H   0  0  0  0  0  0  0  0  0  0  0  0
    6.6632   -2.5734   -1.3173 H   0  0  0  0  0  0  0  0  0  0  0  0
    5.5409   -0.3628   -0.8630 H   0  0  0  0  0  0  0  0  0  0  0  0
    1.5853   -0.6205    4.4392 H   0  0  0  0  0  0  0  0  0  0  0  0
    2.9271    0.2805    5.1191 H   0  0  0  0  0  0  0  0  0  0  0  0
    2.3720    2.3091    3.8678 H   0  0  0  0  0  0  0  0  0  0  0  0
    1.1433    1.7255    4.9660 H   0  0  0  0  0  0  0  0  0  0  0  0
    3.7316    0.4700    2.7463 H   0  0  0  0  0  0  0  0  0  0  0  0
  1  2  1  0
  1 29  1  0
  1 30  1  0
  1 31  1  0
  2  3  1  0
  2 32  1  0
  2 33  1  0
  3  4  1  0
  3 34  1  0
  3 35  1  0
  4  5  1  0
  4 36  1  0
  4 37  1  0
  5  6  2  0
  5  7  1  0
  7 28  1  0
  7  8  1  0
  8  9  1  0
  8 38  1  0
  8 39  1  0
  9 10  1  0
  9 40  1  0
  9 41  1  0
 10 11  1  0
 10 27  1  0
 10 57  1  0
 11 26  1  0
 11 12  1  0
 11 42  1  1
 12 18  1  0
 12 13  2  0
 13 14  1  0
 13 43  1  0
 14 15  2  0
 14 44  1  0
 15 16  1  0
 15 17  1  0
 17 18  2  0
 17 45  1  0
 18 19  1  0
 19 20  1  0
 19 46  1  0
 19 47  1  0
 20 21  1  0
 20 48  1  0
 20 49  1  0
 21 26  2  0
 21 22  1  0
 22 23  2  0
 22 50  1  0
 23 24  1  0
 23 51  1  0
 24 25  2  0
 24 52  1  0
 25 26  1  0
 27 28  1  0
 27 53  1  0
 27 54  1  0
 28 55  1  0
 28 56  1  0
M  CHG  1  10   1
M  END
>  <i_m_ct_stereo_status>  (21) 
1

>  <s_m_source_file>  (21) 
/var/tmp/pbs.5076255.sched01/tmpu5rzjxe4/0gixxd53k.sdf

>  <i_m_source_file_index>  (21) 
8

>  <i_lp_mmshare_version>  (21) 
48012

>  <i_f3d_flags>  (21) 
0

>  <s_epik_input>  (21) 
W0NIM11bQ0gyXVtDSDJdW0NIMl1DKD1PKU4xW0NIMl1bQ0gyXU4oW0NIMl1bQ0gyXTEpW0NASF0yYyhuW2NIXVtjSF1bY0hdMyljM1tDSDJdW0NIMl1jKGMyNClbY0hdYyhDbClbY0hdW2NIXTQ=

>  <s_epik_cmdline>  (21) 
J2VwaWtfcHl0aG9uJywgJy1waHQnLCAnMi4wJywgJy1waCcsICc3LjAnLCAnLXRuJywgJzgnLCAnLW1hJywgJzIwMCcsICctaW1hZScsICc8aW5maWxlLm1hZT4nLCAnLW9tYWUnLCAnPG91dGZpbGUubWFlPic=

>  <r_epik_Ionization_Penalty>  (21) 
0.542299

>  <r_epik_Ionization_Penalty_Charging>  (21) 
0.542297

>  <r_epik_Ionization_Penalty_Neutral>  (21) 
1.88592e-06

>  <r_epik_State_Penalty>  (21) 
0.551972

>  <r_epik_Charging_Adjusted_Penalty>  (21) 
1.09427

>  <i_epik_Tot_Q>  (21) 
1

>  <i_epik_Tot_abs_Q>  (21) 
1

>  <s_lp_Force_Field>  (21) 
OPLS3e

>  <r_lp_Energy>  (21) 
58.481

>  <b_lp_Chiralities_Consistent>  (21) 
1

>  <s_lp_Variant>  (21) 
6:0-2

>  <s_i_glide_gridfile>  (21) 
pfpi4k_grid

>  <i_i_glide_lignum>  (21) 
8

>  <i_i_glide_rotatable_bonds>  (21) 
5

>  <r_i_docking_score>  (21) 
-2.58561

>  <r_i_glide_ligand_efficiency>  (21) 
-0.0923431

>  <r_i_glide_ligand_efficiency_sa>  (21) 
-0.280408

>  <r_i_glide_ligand_efficiency_ln>  (21) 
-0.596834

>  <r_i_glide_gscore>  (21) 
-2.58561

>  <r_i_glide_lipo>  (21) 
-0.667204

>  <r_i_glide_hbond>  (21) 
0

>  <r_i_glide_metal>  (21) 
-0

>  <r_i_glide_rewards>  (21) 
-0.688987

>  <r_i_glide_evdw>  (21) 
-28.0701

>  <r_i_glide_ecoul>  (21) 
-1.5262

>  <r_i_glide_erotb>  (21) 
0.492327

>  <r_i_glide_esite>  (21) 
-0.0893089

>  <r_i_glide_emodel>  (21) 
-31.4067

>  <r_i_glide_energy>  (21) 
-29.5963

>  <r_i_glide_einternal>  (21) 
4.55782

>  <r_i_glide_intrahb_reward>  (21) 
-0

>  <i_i_glide_confnum>  (21) 
5

>  <i_i_glide_posenum>  (21) 
9

>  <r_i_glide_eff_state_penalty>  (21) 
0

>  <ligand_id>  (21) 
6

>  <original_smiles>  (21) 
CCCCC(=O)N1CCN(C2c3ccc(Cl)cc3CCc3cccnc32)CC1

>  <smiles>  (21) 
[H]c1nc2c(c([H])c1[H])C([H])([H])C([H])([H])c1c([H])c(Cl)c([H])c([H])c1C2([H])[N+]1([H])C([H])([H])C([H])([H])N(C(=O)C([H])([H])C([H])([H])C([H])([H])C([H])([H])[H])C([H])([H])C1([H])[H]

$$$$
6:1:1
     RDKit          3D

 57 60  0  0  1  0  0  0  0  0999 V2000
    6.9805   -1.6947    0.8850 C   0  0  0  0  0  0  0  0  0  0  0  0
    5.6446   -1.1364    0.3966 C   0  0  0  0  0  0  0  0  0  0  0  0
    4.5867   -1.0643    1.5079 C   0  0  0  0  0  0  0  0  0  0  0  0
    3.3269   -0.3198    1.0229 C   0  0  0  0  0  0  0  0  0  0  0  0
    2.1694   -0.3665    2.0393 C   0  0  0  0  0  0  0  0  0  0  0  0
    1.7575   -1.4654    2.4073 O   0  0  0  0  0  0  0  0  0  0  0  0
    1.5842    0.7846    2.4596 N   0  0  0  0  0  0  0  0  0  0  0  0
    2.1768    2.1236    2.3338 C   0  0  0  0  0  0  0  0  0  0  0  0
    2.2735    2.8009    3.6923 C   0  0  0  0  0  0  0  0  0  0  0  0
    0.9306    2.8767    4.3593 N   0  0  0  0  0  0  0  0  0  0  0  0
    0.9614    3.6682    5.6160 C   0  0  2  0  0  0  0  0  0  0  0  0
   -0.2819    3.5919    6.5100 C   0  0  0  0  0  0  0  0  0  0  0  0
   -1.5751    3.3569    5.9878 C   0  0  0  0  0  0  0  0  0  0  0  0
   -2.6680    3.2171    6.8624 C   0  0  0  0  0  0  0  0  0  0  0  0
   -2.4970    3.4208    8.2384 C   0  0  0  0  0  0  0  0  0  0  0  0
   -3.8607    3.3367    9.2879 Cl  0  0  0  0  0  0  0  0  0  0  0  0
   -1.2264    3.7227    8.7579 C   0  0  0  0  0  0  0  0  0  0  0  0
   -0.1156    3.8001    7.8903 C   0  0  0  0  0  0  0  0  0  0  0  0
    1.2579    4.1380    8.4638 C   0  0  0  0  0  0  0  0  0  0  0  0
    1.7792    5.5283    8.0593 C   0  0  0  0  0  0  0  0  0  0  0  0
    1.7992    5.9353    6.5531 C   0  0  0  0  0  0  0  0  0  0  0  0
    2.2664    7.2523    6.2929 C   0  0  0  0  0  0  0  0  0  0  0  0
    2.3287    7.6859    4.9498 C   0  0  0  0  0  0  0  0  0  0  0  0
    1.8908    6.8042    3.9526 C   0  0  0  0  0  0  0  0  0  0  0  0
    1.4100    5.5951    4.1922 N   0  0  0  0  0  0  0  0  0  0  0  0
    1.3814    5.1388    5.4835 C   0  0  0  0  0  0  0  0  0  0  0  0
    0.3951    1.4851    4.5035 C   0  0  0  0  0  0  0  0  0  0  0  0
    0.2931    0.7824    3.1488 C   0  0  0  0  0  0  0  0  0  0  0  0
    7.7081   -1.7481    0.0773 H   0  0  0  0  0  0  0  0  0  0  0  0
    6.8599   -2.6973    1.2933 H   0  0  0  0  0  0  0  0  0  0  0  0
    7.3962   -1.0562    1.6645 H   0  0  0  0  0  0  0  0  0  0  0  0
    5.8113   -0.1423   -0.0169 H   0  0  0  0  0  0  0  0  0  0  0  0
    5.2658   -1.7511   -0.4215 H   0  0  0  0  0  0  0  0  0  0  0  0
    4.3345   -2.0695    1.8460 H   0  0  0  0  0  0  0  0  0  0  0  0
    4.9933   -0.5352    2.3723 H   0  0  0  0  0  0  0  0  0  0  0  0
    3.6162    0.6781    0.7103 H   0  0  0  0  0  0  0  0  0  0  0  0
    2.9464   -0.7927    0.1136 H   0  0  0  0  0  0  0  0  0  0  0  0
    3.2138    2.1257    2.0225 H   0  0  0  0  0  0  0  0  0  0  0  0
    1.5908    2.7323    1.6356 H   0  0  0  0  0  0  0  0  0  0  0  0
    2.9437    2.2309    4.3417 H   0  0  0  0  0  0  0  0  0  0  0  0
    2.7732    3.7488    3.5196 H   0  0  0  0  0  0  0  0  0  0  0  0
    1.7676    3.1774    6.1570 H   0  0  0  0  0  0  0  0  0  0  0  0
   -1.7564    3.2377    4.9280 H   0  0  0  0  0  0  0  0  0  0  0  0
   -3.6410    2.9631    6.4649 H   0  0  0  0  0  0  0  0  0  0  0  0
   -1.1154    3.9053    9.8156 H   0  0  0  0  0  0  0  0  0  0  0  0
    1.2140    4.0852    9.5578 H   0  0  0  0  0  0  0  0  0  0  0  0
    1.9788    3.3620    8.2062 H   0  0  0  0  0  0  0  0  0  0  0  0
    1.1561    6.2638    8.5525 H   0  0  0  0  0  0  0  0  0  0  0  0
    2.7757    5.6583    8.4503 H   0  0  0  0  0  0  0  0  0  0  0  0
    2.5526    7.9066    7.0870 H   0  0  0  0  0  0  0  0  0  0  0  0
    2.7193    8.6692    4.7058 H   0  0  0  0  0  0  0  0  0  0  0  0
    1.9793    7.0670    2.8982 H   0  0  0  0  0  0  0  0  0  0  0  0
    1.0765    0.9337    5.1680 H   0  0  0  0  0  0  0  0  0  0  0  0
   -0.5979    1.3873    4.9386 H   0  0  0  0  0  0  0  0  0  0  0  0
   -0.4455    1.2889    2.5208 H   0  0  0  0  0  0  0  0  0  0  0  0
   -0.1175   -0.2133    3.3314 H   0  0  0  0  0  0  0  0  0  0  0  0
    0.3394    3.4040    3.7164 H   0  0  0  0  0  0  0  0  0  0  0  0
  1  2  1  0
  1 29  1  0
  1 30  1  0
  1 31  1  0
  2  3  1  0
  2 32  1  0
  2 33  1  0
  3  4  1  0
  3 34  1  0
  3 35  1  0
  4  5  1  0
  4 36  1  0
  4 37  1  0
  5  6  2  0
  5  7  1  0
  7 28  1  0
  7  8  1  0
  8  9  1  0
  8 38  1  0
  8 39  1  0
  9 10  1  0
  9 40  1  0
  9 41  1  0
 10 11  1  0
 10 27  1  0
 10 57  1  0
 11 26  1  0
 11 12  1  0
 11 42  1  1
 12 18  1  0
 12 13  2  0
 13 14  1  0
 13 43  1  0
 14 15  2  0
 14 44  1  0
 15 16  1  0
 15 17  1  0
 17 18  2  0
 17 45  1  0
 18 19  1  0
 19 20  1  0
 19 46  1  0
 19 47  1  0
 20 21  1  0
 20 48  1  0
 20 49  1  0
 21 26  2  0
 21 22  1  0
 22 23  2  0
 22 50  1  0
 23 24  1  0
 23 51  1  0
 24 25  2  0
 24 52  1  0
 25 26  1  0
 27 28  1  0
 27 53  1  0
 27 54  1  0
 28 55  1  0
 28 56  1  0
M  CHG  1  10   1
M  END
>  <i_m_ct_stereo_status>  (22) 
1

>  <s_m_source_file>  (22) 
/var/tmp/pbs.5076255.sched01/tmpu5rzjxe4/0gixxd53k.sdf

>  <i_m_source_file_index>  (22) 
8

>  <i_lp_mmshare_version>  (22) 
48012

>  <i_f3d_flags>  (22) 
0

>  <s_epik_input>  (22) 
W0NIM11bQ0gyXVtDSDJdW0NIMl1DKD1PKU4xW0NIMl1bQ0gyXU4oW0NIMl1bQ0gyXTEpW0NASF0yYyhuW2NIXVtjSF1bY0hdMyljM1tDSDJdW0NIMl1jKGMyNClbY0hdYyhDbClbY0hdW2NIXTQ=

>  <s_epik_cmdline>  (22) 
J2VwaWtfcHl0aG9uJywgJy1waHQnLCAnMi4wJywgJy1waCcsICc3LjAnLCAnLXRuJywgJzgnLCAnLW1hJywgJzIwMCcsICctaW1hZScsICc8aW5maWxlLm1hZT4nLCAnLW9tYWUnLCAnPG91dGZpbGUubWFlPic=

>  <r_epik_Ionization_Penalty>  (22) 
0.542299

>  <r_epik_Ionization_Penalty_Charging>  (22) 
0.542297

>  <r_epik_Ionization_Penalty_Neutral>  (22) 
1.88592e-06

>  <r_epik_State_Penalty>  (22) 
0.551972

>  <r_epik_Charging_Adjusted_Penalty>  (22) 
1.09427

>  <i_epik_Tot_Q>  (22) 
1

>  <i_epik_Tot_abs_Q>  (22) 
1

>  <s_lp_Force_Field>  (22) 
OPLS3e

>  <r_lp_Energy>  (22) 
58.481

>  <b_lp_Chiralities_Consistent>  (22) 
1

>  <s_lp_Variant>  (22) 
6:0-2

>  <s_i_glide_gridfile>  (22) 
pfpi4k_grid

>  <i_i_glide_lignum>  (22) 
8

>  <i_i_glide_rotatable_bonds>  (22) 
5

>  <r_i_docking_score>  (22) 
-2.32206

>  <r_i_glide_ligand_efficiency>  (22) 
-0.0829308

>  <r_i_glide_ligand_efficiency_sa>  (22) 
-0.251827

>  <r_i_glide_ligand_efficiency_ln>  (22) 
-0.536

>  <r_i_glide_gscore>  (22) 
-2.32206

>  <r_i_glide_lipo>  (22) 
-0.516984

>  <r_i_glide_hbond>  (22) 
0

>  <r_i_glide_metal>  (22) 
-0

>  <r_i_glide_rewards>  (22) 
-0.688987

>  <r_i_glide_evdw>  (22) 
-25.2929

>  <r_i_glide_ecoul>  (22) 
-1.67515

>  <r_i_glide_erotb>  (22) 
0.492327

>  <r_i_glide_esite>  (22) 
-0.0925017

>  <r_i_glide_emodel>  (22) 
-29.0627

>  <r_i_glide_energy>  (22) 
-26.968

>  <r_i_glide_einternal>  (22) 
3.00895

>  <r_i_glide_intrahb_reward>  (22) 
-0

>  <i_i_glide_confnum>  (22) 
3

>  <i_i_glide_posenum>  (22) 
26

>  <r_i_glide_eff_state_penalty>  (22) 
0

>  <ligand_id>  (22) 
6

>  <original_smiles>  (22) 
CCCCC(=O)N1CCN(C2c3ccc(Cl)cc3CCc3cccnc32)CC1

>  <smiles>  (22) 
[H]c1nc2c(c([H])c1[H])C([H])([H])C([H])([H])c1c([H])c(Cl)c([H])c([H])c1C2([H])[N+]1([H])C([H])([H])C([H])([H])N(C(=O)C([H])([H])C([H])([H])C([H])([H])C([H])([H])[H])C([H])([H])C1([H])[H]

$$$$
6:1:2
     RDKit          3D

 57 60  0  0  1  0  0  0  0  0999 V2000
    5.2283   -2.2715   -1.8735 C   0  0  0  0  0  0  0  0  0  0  0  0
    5.1329   -1.4633   -0.5789 C   0  0  0  0  0  0  0  0  0  0  0  0
    3.7217   -1.4887    0.0207 C   0  0  0  0  0  0  0  0  0  0  0  0
    3.6484   -0.6144    1.2845 C   0  0  0  0  0  0  0  0  0  0  0  0
    2.2515   -0.5852    1.9374 C   0  0  0  0  0  0  0  0  0  0  0  0
    1.6600   -1.6512    2.0953 O   0  0  0  0  0  0  0  0  0  0  0  0
    1.7163    0.5913    2.3610 N   0  0  0  0  0  0  0  0  0  0  0  0
    2.3625    1.9055    2.2916 C   0  0  0  0  0  0  0  0  0  0  0  0
    2.4426    2.5594    3.6610 C   0  0  0  0  0  0  0  0  0  0  0  0
    1.0730    2.6978    4.2613 N   0  0  0  0  0  0  0  0  0  0  0  0
    1.0784    3.4790    5.5263 C   0  0  2  0  0  0  0  0  0  0  0  0
   -0.2087    3.4562    6.3584 C   0  0  0  0  0  0  0  0  0  0  0  0
   -1.4853    3.2910    5.7720 C   0  0  0  0  0  0  0  0  0  0  0  0
   -2.6231    3.1886    6.5942 C   0  0  0  0  0  0  0  0  0  0  0  0
   -2.5120    3.3700    7.9817 C   0  0  0  0  0  0  0  0  0  0  0  0
   -3.9233    3.3453    8.9783 Cl  0  0  0  0  0  0  0  0  0  0  0  0
   -1.2529    3.6060    8.5619 C   0  0  0  0  0  0  0  0  0  0  0  0
   -0.0990    3.6407    7.7483 C   0  0  0  0  0  0  0  0  0  0  0  0
    1.2601    3.9065    8.3915 C   0  0  0  0  0  0  0  0  0  0  0  0
    1.8656    5.2741    8.0250 C   0  0  0  0  0  0  0  0  0  0  0  0
    1.9773    5.6938    6.5273 C   0  0  0  0  0  0  0  0  0  0  0  0
    2.5183    6.9899    6.3046 C   0  0  0  0  0  0  0  0  0  0  0  0
    2.6644    7.4351    4.9698 C   0  0  0  0  0  0  0  0  0  0  0  0
    2.2349    6.5852    3.9410 C   0  0  0  0  0  0  0  0  0  0  0  0
    1.6870    5.3956    4.1431 N   0  0  0  0  0  0  0  0  0  0  0  0
    1.5733    4.9301    5.4268 C   0  0  0  0  0  0  0  0  0  0  0  0
    0.4610    1.3319    4.3580 C   0  0  0  0  0  0  0  0  0  0  0  0
    0.3929    0.6510    2.9862 C   0  0  0  0  0  0  0  0  0  0  0  0
    6.2428   -2.2573   -2.2694 H   0  0  0  0  0  0  0  0  0  0  0  0
    4.5603   -1.8712   -2.6377 H   0  0  0  0  0  0  0  0  0  0  0  0
    4.9525   -3.3114   -1.6983 H   0  0  0  0  0  0  0  0  0  0  0  0
    5.8356   -1.8516    0.1545 H   0  0  0  0  0  0  0  0  0  0  0  0
    5.4303   -0.4315   -0.7759 H   0  0  0  0  0  0  0  0  0  0  0  0
    3.0522   -1.0751   -0.7210 H   0  0  0  0  0  0  0  0  0  0  0  0
    3.3923   -2.5088    0.2259 H   0  0  0  0  0  0  0  0  0  0  0  0
    4.3428   -0.9842    2.0453 H   0  0  0  0  0  0  0  0  0  0  0  0
    4.0050    0.3556    0.9577 H   0  0  0  0  0  0  0  0  0  0  0  0
    3.3987    1.8876    2.0071 H   0  0  0  0  0  0  0  0  0  0  0  0
    1.8308    2.5482    1.5846 H   0  0  0  0  0  0  0  0  0  0  0  0
    3.0496    1.9486    4.3352 H   0  0  0  0  0  0  0  0  0  0  0  0
    2.9982    3.4830    3.5260 H   0  0  0  0  0  0  0  0  0  0  0  0
    1.8312    2.9480    6.1038 H   0  0  0  0  0  0  0  0  0  0  0  0
   -1.6211    3.1959    4.7023 H   0  0  0  0  0  0  0  0  0  0  0  0
   -3.5852    2.9803    6.1468 H   0  0  0  0  0  0  0  0  0  0  0  0
   -1.1841    3.7733    9.6253 H   0  0  0  0  0  0  0  0  0  0  0  0
    1.1608    3.8456    9.4813 H   0  0  0  0  0  0  0  0  0  0  0  0
    1.9550    3.0992    8.1613 H   0  0  0  0  0  0  0  0  0  0  0  0
    1.2550    6.0331    8.4988 H   0  0  0  0  0  0  0  0  0  0  0  0
    2.8465    5.3524    8.4669 H   0  0  0  0  0  0  0  0  0  0  0  0
    2.7967    7.6206    7.1200 H   0  0  0  0  0  0  0  0  0  0  0  0
    3.1189    8.3971    4.7604 H   0  0  0  0  0  0  0  0  0  0  0  0
    2.4064    6.8529    2.8983 H   0  0  0  0  0  0  0  0  0  0  0  0
    1.0826    0.7390    5.0462 H   0  0  0  0  0  0  0  0  0  0  0  0
   -0.5589    1.2727    4.7440 H   0  0  0  0  0  0  0  0  0  0  0  0
   -0.2841    1.2000    2.3277 H   0  0  0  0  0  0  0  0  0  0  0  0
   -0.0791   -0.3199    3.1474 H   0  0  0  0  0  0  0  0  0  0  0  0
    0.5426    3.2618    3.5968 H   0  0  0  0  0  0  0  0  0  0  0  0
  1  2  1  0
  1 29  1  0
  1 30  1  0
  1 31  1  0
  2  3  1  0
  2 32  1  0
  2 33  1  0
  3  4  1  0
  3 34  1  0
  3 35  1  0
  4  5  1  0
  4 36  1  0
  4 37  1  0
  5  6  2  0
  5  7  1  0
  7 28  1  0
  7  8  1  0
  8  9  1  0
  8 38  1  0
  8 39  1  0
  9 10  1  0
  9 40  1  0
  9 41  1  0
 10 11  1  0
 10 27  1  0
 10 57  1  0
 11 26  1  0
 11 12  1  0
 11 42  1  1
 12 18  1  0
 12 13  2  0
 13 14  1  0
 13 43  1  0
 14 15  2  0
 14 44  1  0
 15 16  1  0
 15 17  1  0
 17 18  2  0
 17 45  1  0
 18 19  1  0
 19 20  1  0
 19 46  1  0
 19 47  1  0
 20 21  1  0
 20 48  1  0
 20 49  1  0
 21 26  2  0
 21 22  1  0
 22 23  2  0
 22 50  1  0
 23 24  1  0
 23 51  1  0
 24 25  2  0
 24 52  1  0
 25 26  1  0
 27 28  1  0
 27 53  1  0
 27 54  1  0
 28 55  1  0
 28 56  1  0
M  CHG  1  10   1
M  END
>  <i_m_ct_stereo_status>  (23) 
1

>  <s_m_source_file>  (23) 
/var/tmp/pbs.5076255.sched01/tmpu5rzjxe4/0gixxd53k.sdf

>  <i_m_source_file_index>  (23) 
8

>  <i_lp_mmshare_version>  (23) 
48012

>  <i_f3d_flags>  (23) 
0

>  <s_epik_input>  (23) 
W0NIM11bQ0gyXVtDSDJdW0NIMl1DKD1PKU4xW0NIMl1bQ0gyXU4oW0NIMl1bQ0gyXTEpW0NASF0yYyhuW2NIXVtjSF1bY0hdMyljM1tDSDJdW0NIMl1jKGMyNClbY0hdYyhDbClbY0hdW2NIXTQ=

>  <s_epik_cmdline>  (23) 
J2VwaWtfcHl0aG9uJywgJy1waHQnLCAnMi4wJywgJy1waCcsICc3LjAnLCAnLXRuJywgJzgnLCAnLW1hJywgJzIwMCcsICctaW1hZScsICc8aW5maWxlLm1hZT4nLCAnLW9tYWUnLCAnPG91dGZpbGUubWFlPic=

>  <r_epik_Ionization_Penalty>  (23) 
0.542299

>  <r_epik_Ionization_Penalty_Charging>  (23) 
0.542297

>  <r_epik_Ionization_Penalty_Neutral>  (23) 
1.88592e-06

>  <r_epik_State_Penalty>  (23) 
0.551972

>  <r_epik_Charging_Adjusted_Penalty>  (23) 
1.09427

>  <i_epik_Tot_Q>  (23) 
1

>  <i_epik_Tot_abs_Q>  (23) 
1

>  <s_lp_Force_Field>  (23) 
OPLS3e

>  <r_lp_Energy>  (23) 
58.481

>  <b_lp_Chiralities_Consistent>  (23) 
1

>  <s_lp_Variant>  (23) 
6:0-2

>  <s_i_glide_gridfile>  (23) 
pfpi4k_grid

>  <i_i_glide_lignum>  (23) 
8

>  <i_i_glide_rotatable_bonds>  (23) 
5

>  <r_i_docking_score>  (23) 
-2.05396

>  <r_i_glide_ligand_efficiency>  (23) 
-0.0733556

>  <r_i_glide_ligand_efficiency_sa>  (23) 
-0.222751

>  <r_i_glide_ligand_efficiency_ln>  (23) 
-0.474114

>  <r_i_glide_gscore>  (23) 
-2.05396

>  <r_i_glide_lipo>  (23) 
-0.285802

>  <r_i_glide_hbond>  (23) 
0

>  <r_i_glide_metal>  (23) 
-0

>  <r_i_glide_rewards>  (23) 
-0.688987

>  <r_i_glide_evdw>  (23) 
-25.6251

>  <r_i_glide_ecoul>  (23) 
-1.27185

>  <r_i_glide_erotb>  (23) 
0.492327

>  <r_i_glide_esite>  (23) 
-0.09946

>  <r_i_glide_emodel>  (23) 
-29.2717

>  <r_i_glide_energy>  (23) 
-26.897

>  <r_i_glide_einternal>  (23) 
1.44488

>  <r_i_glide_intrahb_reward>  (23) 
-0

>  <i_i_glide_confnum>  (23) 
1

>  <i_i_glide_posenum>  (23) 
8

>  <r_i_glide_eff_state_penalty>  (23) 
0

>  <ligand_id>  (23) 
6

>  <original_smiles>  (23) 
CCCCC(=O)N1CCN(C2c3ccc(Cl)cc3CCc3cccnc32)CC1

>  <smiles>  (23) 
[H]c1nc2c(c([H])c1[H])C([H])([H])C([H])([H])c1c([H])c(Cl)c([H])c([H])c1C2([H])[N+]1([H])C([H])([H])C([H])([H])N(C(=O)C([H])([H])C([H])([H])C([H])([H])C([H])([H])[H])C([H])([H])C1([H])[H]

$$$$
7:0:0
     RDKit          3D

 96103  0  0  1  0  0  0  0  0999 V2000
    1.1325   -3.8366    7.9590 C   0  0  0  0  0  0  0  0  0  0  0  0
    1.6675   -3.3505    6.5889 C   0  0  2  0  0  0  0  0  0  0  0  0
    0.5997   -3.5033    5.4812 C   0  0  0  0  0  0  0  0  0  0  0  0
    1.0477   -4.3731    4.2973 C   0  0  0  0  0  0  0  0  0  0  0  0
    1.7616   -5.6786    4.7353 C   0  0  2  0  0  0  0  0  0  0  0  0
    0.7919   -6.6384    5.5465 C   0  0  1  0  0  0  0  0  0  0  0  0
   -0.5405   -6.8149    4.7664 C   0  0  0  0  0  0  0  0  0  0  0  0
    1.3832   -8.0213    6.0094 C   0  0  1  0  0  0  0  0  0  0  0  0
    0.2992   -9.0739    6.3972 C   0  0  0  0  0  0  0  0  0  0  0  0
    2.2021   -8.5410    4.9560 O   0  0  0  0  0  0  0  0  0  0  0  0
    1.3602   -9.2524    3.9390 O   0  0  0  0  0  0  0  0  0  0  0  0
    1.9687  -10.4828    3.5209 C   0  0  1  0  0  0  0  0  0  0  0  0
    0.7845  -11.2882    2.9706 C   0  0  0  0  0  0  0  0  0  0  0  0
    2.9013  -10.3005    2.4606 O   0  0  0  0  0  0  0  0  0  0  0  0
    4.1027  -10.8585    2.8997 C   0  0  1  0  0  0  0  0  0  0  0  0
    4.6058  -10.0633    3.9371 O   0  0  0  0  0  0  0  0  0  0  0  0
    4.0651  -10.6397    5.0876 C   0  0  2  0  0  0  0  0  0  0  0  0
    4.9410  -11.7326    5.4797 N   0  0  0  0  0  0  0  0  0  0  0  0
    4.7310  -12.6229    4.5956 C   0  0  0  0  0  0  0  0  0  0  0  0
    3.6813  -12.1402    3.6359 C   0  0  1  0  0  0  0  0  0  0  0  0
    2.7995  -11.3298    4.5274 C   0  0  2  0  0  0  0  0  0  0  0  0
    2.2453   -7.9026    7.3002 C   0  0  0  0  0  0  0  0  0  0  0  0
    3.3342   -6.8246    7.4265 C   0  0  0  0  0  0  0  0  0  0  0  0
    3.9200   -6.3300    6.1071 C   0  0  2  0  0  0  0  0  0  0  0  0
    5.3233   -5.6967    6.1406 C   0  0  2  0  0  0  0  0  0  0  0  0
    6.4659   -6.7105    6.3394 C   0  0  0  0  0  0  0  0  0  0  0  0
    5.4387   -4.5043    7.1076 C   0  0  0  0  0  0  0  0  0  0  0  0
    4.1485   -3.6798    7.2721 C   0  0  0  0  0  0  0  0  0  0  0  0
    3.0853   -3.8430    6.1508 C   0  0  1  0  0  0  0  0  0  0  0  0
    3.1390   -5.2303    5.3702 C   0  0  2  0  0  0  0  0  0  0  0  0
    4.2030   -5.1045    4.2158 C   0  0  1  0  0  0  0  0  0  0  0  0
    4.1010   -3.9129    3.4780 O   0  0  0  0  0  0  0  0  0  0  0  0
    3.9928   -4.0873    2.0953 C   0  0  2  0  0  0  0  0  0  0  0  0
    5.0493   -4.8311    1.5263 O   0  0  0  0  0  0  0  0  0  0  0  0
    3.9050   -2.8312    1.4886 O   0  0  0  0  0  0  0  0  0  0  0  0
    3.2648   -2.8692    0.2248 C   0  0  0  0  0  0  0  0  0  0  0  0
    3.7615   -1.7382   -0.6850 C   0  0  0  0  0  0  0  0  0  0  0  0
    3.0464   -1.7292   -1.9974 N   0  0  0  0  0  0  0  0  0  0  0  0
    3.6520   -0.8216   -2.9984 C   0  0  0  0  0  0  0  0  0  0  0  0
    3.0655   -1.2532   -4.3388 C   0  0  0  0  0  0  0  0  0  0  0  0
    2.6065   -2.7027   -4.1236 C   0  0  0  0  0  0  0  0  0  0  0  0
    2.9666   -3.0314   -2.6849 C   0  0  0  0  0  0  0  0  0  0  0  0
    5.4539   -5.1684    4.8248 O   0  0  0  0  0  0  0  0  0  0  0  0
    1.0863   -4.9148    8.0569 H   0  0  0  0  0  0  0  0  0  0  0  0
    0.1278   -3.4591    8.1380 H   0  0  0  0  0  0  0  0  0  0  0  0
    1.7316   -3.4611    8.7862 H   0  0  0  0  0  0  0  0  0  0  0  0
    1.7732   -2.2743    6.7329 H   0  0  0  0  0  0  0  0  0  0  0  0
   -0.3219   -3.9092    5.8920 H   0  0  0  0  0  0  0  0  0  0  0  0
    0.3358   -2.5195    5.0954 H   0  0  0  0  0  0  0  0  0  0  0  0
    0.2152   -4.5776    3.6263 H   0  0  0  0  0  0  0  0  0  0  0  0
    1.7109   -3.7741    3.6813 H   0  0  0  0  0  0  0  0  0  0  0  0
    1.9902   -6.2319    3.8251 H   0  0  0  0  0  0  0  0  0  0  0  0
    0.4971   -6.1368    6.4600 H   0  0  0  0  0  0  0  0  0  0  0  0
   -0.3793   -7.1895    3.7547 H   0  0  0  0  0  0  0  0  0  0  0  0
   -1.0772   -5.8770    4.6992 H   0  0  0  0  0  0  0  0  0  0  0  0
   -1.2632   -7.4722    5.2386 H   0  0  0  0  0  0  0  0  0  0  0  0
   -0.3679   -8.6888    7.1679 H   0  0  0  0  0  0  0  0  0  0  0  0
    0.7419   -9.9849    6.7992 H   0  0  0  0  0  0  0  0  0  0  0  0
   -0.3417   -9.3988    5.5776 H   0  0  0  0  0  0  0  0  0  0  0  0
    0.2498  -10.7403    2.1977 H   0  0  0  0  0  0  0  0  0  0  0  0
    0.0856  -11.5063    3.7722 H   0  0  0  0  0  0  0  0  0  0  0  0
    1.0816  -12.2430    2.5270 H   0  0  0  0  0  0  0  0  0  0  0  0
    4.8294  -11.0054    2.1002 H   0  0  0  0  0  0  0  0  0  0  0  0
    3.9214   -9.9285    5.9012 H   0  0  0  0  0  0  0  0  0  0  0  0
    5.1924  -13.6068    4.4913 H   0  0  0  0  0  0  0  0  0  0  0  0
    3.2557  -12.9062    2.9905 H   0  0  0  0  0  0  0  0  0  0  0  0
    2.2391  -11.8810    5.2902 H   0  0  0  0  0  0  0  0  0  0  0  0
    1.5859   -7.7693    8.1568 H   0  0  0  0  0  0  0  0  0  0  0  0
    2.7131   -8.8675    7.4804 H   0  0  0  0  0  0  0  0  0  0  0  0
    2.9608   -5.9943    8.0095 H   0  0  0  0  0  0  0  0  0  0  0  0
    4.1375   -7.2404    8.0329 H   0  0  0  0  0  0  0  0  0  0  0  0
    4.0293   -7.1996    5.4643 H   0  0  0  0  0  0  0  0  0  0  0  0
    6.4302   -7.1663    7.3293 H   0  0  0  0  0  0  0  0  0  0  0  0
    7.4397   -6.2287    6.2374 H   0  0  0  0  0  0  0  0  0  0  0  0
    6.4202   -7.5142    5.6021 H   0  0  0  0  0  0  0  0  0  0  0  0
    5.7274   -4.8700    8.0931 H   0  0  0  0  0  0  0  0  0  0  0  0
    6.2595   -3.8595    6.7901 H   0  0  0  0  0  0  0  0  0  0  0  0
    3.7410   -3.9300    8.2444 H   0  0  0  0  0  0  0  0  0  0  0  0
    4.4205   -2.6272    7.3539 H   0  0  0  0  0  0  0  0  0  0  0  0
    3.3618   -3.0633    5.4468 H   0  0  0  0  0  0  0  0  0  0  0  0
    4.1512   -5.9892    3.5724 H   0  0  0  0  0  0  0  0  0  0  0  0
    3.0493   -4.6251    1.9190 H   0  0  0  0  0  0  0  0  0  0  0  0
    4.8851   -5.7575    1.6769 H   0  0  0  0  0  0  0  0  0  0  0  0
    3.4660   -3.8267   -0.2580 H   0  0  0  0  0  0  0  0  0  0  0  0
    2.1913   -2.7987    0.3846 H   0  0  0  0  0  0  0  0  0  0  0  0
    3.6067   -0.7718   -0.2015 H   0  0  0  0  0  0  0  0  0  0  0  0
    4.8385   -1.8384   -0.8250 H   0  0  0  0  0  0  0  0  0  0  0  0
    3.5074    0.2356   -2.7920 H   0  0  0  0  0  0  0  0  0  0  0  0
    4.7303   -0.9981   -3.0350 H   0  0  0  0  0  0  0  0  0  0  0  0
    2.2146   -0.6222   -4.6049 H   0  0  0  0  0  0  0  0  0  0  0  0
    3.7930   -1.1529   -5.1428 H   0  0  0  0  0  0  0  0  0  0  0  0
    1.5287   -2.7842   -4.2692 H   0  0  0  0  0  0  0  0  0  0  0  0
    3.0884   -3.4165   -4.7853 H   0  0  0  0  0  0  0  0  0  0  0  0
    3.9520   -3.5032   -2.6651 H   0  0  0  0  0  0  0  0  0  0  0  0
    2.2438   -3.7168   -2.2423 H   0  0  0  0  0  0  0  0  0  0  0  0
    2.0836   -1.4426   -1.8098 H   0  0  0  0  0  0  0  0  0  0  0  0
  1  2  1  0
  1 44  1  0
  1 45  1  0
  1 46  1  0
  2 29  1  0
  2  3  1  0
  2 47  1  1
  3  4  1  0
  3 48  1  0
  3 49  1  0
  4  5  1  0
  4 50  1  0
  4 51  1  0
  5 30  1  0
  5  6  1  0
  5 52  1  6
  6  7  1  0
  6  8  1  0
  6 53  1  1
  7 54  1  0
  7 55  1  0
  7 56  1  0
  8  9  1  0
  8 10  1  6
  8 22  1  0
  9 57  1  0
  9 58  1  0
  9 59  1  0
 10 11  1  0
 12 11  1  1
 12 21  1  0
 12 13  1  0
 12 14  1  0
 13 60  1  0
 13 61  1  0
 13 62  1  0
 14 15  1  0
 15 20  1  0
 15 16  1  0
 15 63  1  6
 16 17  1  0
 17 21  1  0
 17 18  1  0
 17 64  1  1
 18 19  2  0
 19 20  1  0
 19 65  1  0
 20 21  1  0
 20 66  1  6
 21 67  1  1
 22 23  1  0
 22 68  1  0
 22 69  1  0
 23 24  1  0
 23 70  1  0
 23 71  1  0
 24 30  1  0
 24 25  1  0
 24 72  1  6
 25 43  1  0
 25 26  1  1
 25 27  1  0
 26 73  1  0
 26 74  1  0
 26 75  1  0
 27 28  1  0
 27 76  1  0
 27 77  1  0
 28 29  1  0
 28 78  1  0
 28 79  1  0
 29 30  1  0
 29 80  1  6
 30 31  1  6
 31 32  1  0
 31 43  1  0
 31 81  1  6
 32 33  1  0
 33 34  1  0
 33 35  1  0
 33 82  1  1
 34 83  1  0
 35 36  1  0
 36 37  1  0
 36 84  1  0
 36 85  1  0
 37 38  1  0
 37 86  1  0
 37 87  1  0
 38 42  1  0
 38 39  1  0
 38 96  1  0
 39 40  1  0
 39 88  1  0
 39 89  1  0
 40 41  1  0
 40 90  1  0
 40 91  1  0
 41 42  1  0
 41 92  1  0
 41 93  1  0
 42 94  1  0
 42 95  1  0
M  CHG  1  38   1
M  END
>  <i_m_ct_stereo_status>  (24) 
1

>  <s_m_source_file>  (24) 
/var/tmp/pbs.5076255.sched01/tmpu5rzjxe4/0gixxd53k.sdf

>  <i_m_source_file_index>  (24) 
9

>  <i_lp_mmshare_version>  (24) 
48012

>  <i_f3d_flags>  (24) 
0

>  <s_epik_input>  (24) 
W0NIXTE9TltDQEBIXShPMilbQ0BIXShbQ0BIXTFbQ0BIXTIzKVtDQEBdKE8zKShbQ0gzXSlPT1tDQF0oW0NIM10pKFtDQEBIXTRbQ0gzXSlbQ0gyXVtDSDJdW0NAQEhdNVtDQF0oW0NIM10pKFtDSDJdW0NIMl1bQ0BASF02W0NASF0oW0NIM10pW0NIMl1bQ0gyXVtDQEhdNFtDQF01NjcpT1tDQEBIXTdPW0NASF0oW09IXSlPW0NIMl1bQ0gyXU44W0NIMl1bQ0gyXVtDSDJdW0NIMl04

>  <s_epik_cmdline>  (24) 
J2VwaWtfcHl0aG9uJywgJy1waHQnLCAnMi4wJywgJy1waCcsICc3LjAnLCAnLXRuJywgJzgnLCAnLW1hJywgJzIwMCcsICctaW1hZScsICc8aW5maWxlLm1hZT4nLCAnLW9tYWUnLCAnPG91dGZpbGUubWFlPic=

>  <r_lp_tautomer_probability>  (24) 
0.999986

>  <r_epik_Ionization_Penalty>  (24) 
0.00432285

>  <r_epik_Ionization_Penalty_Charging>  (24) 
0.00429914

>  <r_epik_Ionization_Penalty_Neutral>  (24) 
2.37099e-05

>  <r_epik_State_Penalty>  (24) 
0.00309332

>  <r_epik_Charging_Adjusted_Penalty>  (24) 
0.00739247

>  <i_epik_Tot_Q>  (24) 
1

>  <i_epik_Tot_abs_Q>  (24) 
1

>  <s_epik_Chemistry_Notes>  (24) 
This compound has an imine and may undergo hydrolysis. This compound contains an acetal/aminal-like group ( X-CH(R)-Y where X, Y are N, S, or O) that may be acid/base labile, releasing an aldehyde.

>  <s_lp_Force_Field>  (24) 
OPLS3e

>  <r_lp_Energy>  (24) 
84.8953

>  <b_lp_Chiralities_Consistent>  (24) 
1

>  <s_lp_Variant>  (24) 
7:0-1

>  <s_i_glide_gridfile>  (24) 
pfpi4k_grid

>  <i_i_glide_lignum>  (24) 
9

>  <i_i_glide_rotatable_bonds>  (24) 
10

>  <r_i_docking_score>  (24) 
-2.94243

>  <r_i_glide_ligand_efficiency>  (24) 
-0.0684286

>  <r_i_glide_ligand_efficiency_sa>  (24) 
-0.239733

>  <r_i_glide_ligand_efficiency_ln>  (24) 
-0.618002

>  <r_i_glide_gscore>  (24) 
-2.94243

>  <r_i_glide_lipo>  (24) 
-0.223006

>  <r_i_glide_hbond>  (24) 
-0.2

>  <r_i_glide_metal>  (24) 
-0

>  <r_i_glide_rewards>  (24) 
-0.0717459

>  <r_i_glide_evdw>  (24) 
-28.1649

>  <r_i_glide_ecoul>  (24) 
-7.82034

>  <r_i_glide_erotb>  (24) 
0.337192

>  <r_i_glide_esite>  (24) 
-0.203576

>  <r_i_glide_emodel>  (24) 
-33.8143

>  <r_i_glide_energy>  (24) 
-35.9852

>  <r_i_glide_einternal>  (24) 
18.4679

>  <r_i_glide_intrahb_reward>  (24) 
-0

>  <i_i_glide_confnum>  (24) 
2

>  <i_i_glide_posenum>  (24) 
2

>  <r_i_glide_eff_state_penalty>  (24) 
0

>  <ligand_id>  (24) 
7

>  <original_smiles>  (24) 
CC1CCC2C(C)C(C)(OOC3(C)OC4OC5N=CC4C53)CCC3C4(C)CCC1C23C(OC(O)OCCN1CCCC1)O4

>  <smiles>  (24) 
[H]OC([H])(OC([H])([H])C([H])([H])[N+]1([H])C([H])([H])C([H])([H])C([H])([H])C1([H])[H])OC1([H])OC2(C([H])([H])[H])C([H])([H])C([H])([H])C3([H])C([H])(C([H])([H])[H])C([H])([H])C([H])([H])C4([H])C([H])(C([H])([H])[H])C(OOC5(C([H])([H])[H])OC6([H])OC7([H])N=C([H])C6([H])C75[H])(C([H])([H])[H])C([H])([H])C([H])([H])C2([H])C134

$$$$
7:0:1
     RDKit          3D

 96103  0  0  1  0  0  0  0  0999 V2000
    4.4278   -2.4683    8.2313 C   0  0  0  0  0  0  0  0  0  0  0  0
    4.6546   -2.4056    6.7014 C   0  0  2  0  0  0  0  0  0  0  0  0
    3.3880   -1.9202    5.9595 C   0  0  0  0  0  0  0  0  0  0  0  0
    2.8561   -2.8996    4.8969 C   0  0  0  0  0  0  0  0  0  0  0  0
    2.8336   -4.3727    5.3918 C   0  0  2  0  0  0  0  0  0  0  0  0
    1.8299   -4.5635    6.6031 C   0  0  1  0  0  0  0  0  0  0  0  0
    0.4552   -3.9118    6.2737 C   0  0  0  0  0  0  0  0  0  0  0  0
    1.6770   -6.0264    7.1731 C   0  0  1  0  0  0  0  0  0  0  0  0
    0.3845   -6.2298    8.0226 C   0  0  0  0  0  0  0  0  0  0  0  0
    1.6723   -7.0030    6.1283 O   0  0  0  0  0  0  0  0  0  0  0  0
    0.3640   -6.9866    5.4019 O   0  0  0  0  0  0  0  0  0  0  0  0
    0.4470   -7.7856    4.2209 C   0  0  1  0  0  0  0  0  0  0  0  0
   -0.8731   -7.5183    3.4837 C   0  0  0  0  0  0  0  0  0  0  0  0
    1.5132   -7.4425    3.3338 O   0  0  0  0  0  0  0  0  0  0  0  0
    2.2808   -8.6034    3.2049 C   0  0  1  0  0  0  0  0  0  0  0  0
    2.9181   -8.8339    4.4292 O   0  0  0  0  0  0  0  0  0  0  0  0
    2.0229   -9.6506    5.1272 C   0  0  2  0  0  0  0  0  0  0  0  0
    2.2717  -11.0267    4.7216 N   0  0  0  0  0  0  0  0  0  0  0  0
    1.8419  -11.0741    3.5341 C   0  0  0  0  0  0  0  0  0  0  0  0
    1.2478   -9.7483    3.1437 C   0  0  1  0  0  0  0  0  0  0  0  0
    0.6841   -9.2990    4.4444 C   0  0  2  0  0  0  0  0  0  0  0  0
    2.8211   -6.4181    8.1508 C   0  0  0  0  0  0  0  0  0  0  0  0
    4.2907   -6.1850    7.7657 C   0  0  0  0  0  0  0  0  0  0  0  0
    4.5799   -6.1470    6.2645 C   0  0  2  0  0  0  0  0  0  0  0  0
    6.0166   -6.4593    5.8060 C   0  0  2  0  0  0  0  0  0  0  0  0
    6.3950   -7.9499    5.9056 C   0  0  0  0  0  0  0  0  0  0  0  0
    7.0797   -5.5511    6.4503 C   0  0  0  0  0  0  0  0  0  0  0  0
    6.5991   -4.1231    6.7708 C   0  0  0  0  0  0  0  0  0  0  0  0
    5.3229   -3.6464    6.0251 C   0  0  1  0  0  0  0  0  0  0  0  0
    4.3452   -4.8115    5.5454 C   0  0  2  0  0  0  0  0  0  0  0  0
    4.8501   -5.3464    4.1575 C   0  0  1  0  0  0  0  0  0  0  0  0
    5.1571   -4.3148    3.2618 O   0  0  0  0  0  0  0  0  0  0  0  0
    4.5558   -4.4316    2.0128 C   0  0  2  0  0  0  0  0  0  0  0  0
    5.0261   -5.5473    1.2842 O   0  0  0  0  0  0  0  0  0  0  0  0
    4.7369   -3.2444    1.2997 O   0  0  0  0  0  0  0  0  0  0  0  0
    3.8036   -3.0763    0.2435 C   0  0  0  0  0  0  0  0  0  0  0  0
    4.2803   -1.9925   -0.7398 C   0  0  0  0  0  0  0  0  0  0  0  0
    3.3734   -1.8422   -1.9082 N   0  0  0  0  0  0  0  0  0  0  0  0
    3.8839   -0.9451   -2.9685 C   0  0  0  0  0  0  0  0  0  0  0  0
    3.0336   -1.2576   -4.2019 C   0  0  0  0  0  0  0  0  0  0  0  0
    2.4834   -2.6706   -3.9516 C   0  0  0  0  0  0  0  0  0  0  0  0
    3.0574   -3.0983   -2.6135 C   0  0  0  0  0  0  0  0  0  0  0  0
    5.9802   -6.1134    4.4243 O   0  0  0  0  0  0  0  0  0  0  0  0
    3.8273   -3.3111    8.5568 H   0  0  0  0  0  0  0  0  0  0  0  0
    3.9265   -1.5690    8.5834 H   0  0  0  0  0  0  0  0  0  0  0  0
    5.3650   -2.5062    8.7832 H   0  0  0  0  0  0  0  0  0  0  0  0
    5.3795   -1.5962    6.5918 H   0  0  0  0  0  0  0  0  0  0  0  0
    2.5947   -1.6934    6.6710 H   0  0  0  0  0  0  0  0  0  0  0  0
    3.6052   -0.9736    5.4670 H   0  0  0  0  0  0  0  0  0  0  0  0
    1.8843   -2.5757    4.5199 H   0  0  0  0  0  0  0  0  0  0  0  0
    3.4981   -2.8097    4.0238 H   0  0  0  0  0  0  0  0  0  0  0  0
    2.4034   -4.9675    4.5882 H   0  0  0  0  0  0  0  0  0  0  0  0
    2.1929   -3.9776    7.4373 H   0  0  0  0  0  0  0  0  0  0  0  0
    0.0140   -4.3260    5.3659 H   0  0  0  0  0  0  0  0  0  0  0  0
    0.5428   -2.8356    6.1437 H   0  0  0  0  0  0  0  0  0  0  0  0
   -0.2732   -3.9976    7.0754 H   0  0  0  0  0  0  0  0  0  0  0  0
    0.3267   -5.5029    8.8361 H   0  0  0  0  0  0  0  0  0  0  0  0
    0.3572   -7.2193    8.4811 H   0  0  0  0  0  0  0  0  0  0  0  0
   -0.5419   -6.1389    7.4549 H   0  0  0  0  0  0  0  0  0  0  0  0
   -0.9867   -6.4576    3.2847 H   0  0  0  0  0  0  0  0  0  0  0  0
   -1.7198   -7.8383    4.0866 H   0  0  0  0  0  0  0  0  0  0  0  0
   -0.9324   -8.0410    2.5298 H   0  0  0  0  0  0  0  0  0  0  0  0
    2.9868   -8.5738    2.3743 H   0  0  0  0  0  0  0  0  0  0  0  0
    2.0521   -9.5226    6.2113 H   0  0  0  0  0  0  0  0  0  0  0  0
    1.8553  -11.9241    2.8444 H   0  0  0  0  0  0  0  0  0  0  0  0
    0.6025   -9.7572    2.2659 H   0  0  0  0  0  0  0  0  0  0  0  0
   -0.1613   -9.8641    4.8418 H   0  0  0  0  0  0  0  0  0  0  0  0
    2.6671   -5.9144    9.1039 H   0  0  0  0  0  0  0  0  0  0  0  0
    2.7069   -7.4771    8.3774 H   0  0  0  0  0  0  0  0  0  0  0  0
    4.6537   -5.2868    8.2456 H   0  0  0  0  0  0  0  0  0  0  0  0
    4.8754   -6.9851    8.2164 H   0  0  0  0  0  0  0  0  0  0  0  0
    3.9689   -6.9203    5.8088 H   0  0  0  0  0  0  0  0  0  0  0  0
    6.4389   -8.2823    6.9430 H   0  0  0  0  0  0  0  0  0  0  0  0
    7.3740   -8.1372    5.4626 H   0  0  0  0  0  0  0  0  0  0  0  0
    5.6726   -8.5826    5.3865 H   0  0  0  0  0  0  0  0  0  0  0  0
    7.4202   -6.0051    7.3811 H   0  0  0  0  0  0  0  0  0  0  0  0
    7.9618   -5.5152    5.8107 H   0  0  0  0  0  0  0  0  0  0  0  0
    6.4662   -4.0768    7.8441 H   0  0  0  0  0  0  0  0  0  0  0  0
    7.4122   -3.4247    6.5659 H   0  0  0  0  0  0  0  0  0  0  0  0
    5.7377   -3.1874    5.1344 H   0  0  0  0  0  0  0  0  0  0  0  0
    4.1198   -6.0441    3.7340 H   0  0  0  0  0  0  0  0  0  0  0  0
    3.4782   -4.5579    2.1709 H   0  0  0  0  0  0  0  0  0  0  0  0
    4.7213   -6.3393    1.7058 H   0  0  0  0  0  0  0  0  0  0  0  0
    3.6927   -4.0256   -0.2793 H   0  0  0  0  0  0  0  0  0  0  0  0
    2.8335   -2.8142    0.6617 H   0  0  0  0  0  0  0  0  0  0  0  0
    4.3638   -1.0326   -0.2251 H   0  0  0  0  0  0  0  0  0  0  0  0
    5.2909   -2.2409   -1.0721 H   0  0  0  0  0  0  0  0  0  0  0  0
    3.8696    0.1110   -2.7006 H   0  0  0  0  0  0  0  0  0  0  0  0
    4.9229   -1.2152   -3.1850 H   0  0  0  0  0  0  0  0  0  0  0  0
    2.2265   -0.5443   -4.2971 H   0  0  0  0  0  0  0  0  0  0  0  0
    3.6175   -1.1887   -5.1190 H   0  0  0  0  0  0  0  0  0  0  0  0
    1.3950   -2.6544   -3.9056 H   0  0  0  0  0  0  0  0  0  0  0  0
    2.7592   -3.3878   -4.7229 H   0  0  0  0  0  0  0  0  0  0  0  0
    3.9824   -3.6605   -2.7773 H   0  0  0  0  0  0  0  0  0  0  0  0
    2.3603   -3.7407   -2.0755 H   0  0  0  0  0  0  0  0  0  0  0  0
    2.4824   -1.4623   -1.5902 H   0  0  0  0  0  0  0  0  0  0  0  0
  1  2  1  0
  1 44  1  0
  1 45  1  0
  1 46  1  0
  2 29  1  0
  2  3  1  0
  2 47  1  1
  3  4  1  0
  3 48  1  0
  3 49  1  0
  4  5  1  0
  4 50  1  0
  4 51  1  0
  5 30  1  0
  5  6  1  0
  5 52  1  6
  6  7  1  0
  6  8  1  0
  6 53  1  1
  7 54  1  0
  7 55  1  0
  7 56  1  0
  8  9  1  0
  8 10  1  6
  8 22  1  0
  9 57  1  0
  9 58  1  0
  9 59  1  0
 10 11  1  0
 12 11  1  1
 12 21  1  0
 12 13  1  0
 12 14  1  0
 13 60  1  0
 13 61  1  0
 13 62  1  0
 14 15  1  0
 15 20  1  0
 15 16  1  0
 15 63  1  6
 16 17  1  0
 17 21  1  0
 17 18  1  0
 17 64  1  1
 18 19  2  0
 19 20  1  0
 19 65  1  0
 20 21  1  0
 20 66  1  6
 21 67  1  1
 22 23  1  0
 22 68  1  0
 22 69  1  0
 23 24  1  0
 23 70  1  0
 23 71  1  0
 24 30  1  0
 24 25  1  0
 24 72  1  6
 25 43  1  0
 25 26  1  6
 25 27  1  0
 26 73  1  0
 26 74  1  0
 26 75  1  0
 27 28  1  0
 27 76  1  0
 27 77  1  0
 28 29  1  0
 28 78  1  0
 28 79  1  0
 29 30  1  0
 29 80  1  6
 30 31  1  6
 31 32  1  0
 31 43  1  0
 31 81  1  6
 32 33  1  0
 33 34  1  0
 33 35  1  0
 33 82  1  1
 34 83  1  0
 35 36  1  0
 36 37  1  0
 36 84  1  0
 36 85  1  0
 37 38  1  0
 37 86  1  0
 37 87  1  0
 38 42  1  0
 38 39  1  0
 38 96  1  0
 39 40  1  0
 39 88  1  0
 39 89  1  0
 40 41  1  0
 40 90  1  0
 40 91  1  0
 41 42  1  0
 41 92  1  0
 41 93  1  0
 42 94  1  0
 42 95  1  0
M  CHG  1  38   1
M  END
>  <i_m_ct_stereo_status>  (25) 
1

>  <s_m_source_file>  (25) 
/var/tmp/pbs.5076255.sched01/tmpu5rzjxe4/0gixxd53k.sdf

>  <i_m_source_file_index>  (25) 
9

>  <i_lp_mmshare_version>  (25) 
48012

>  <i_f3d_flags>  (25) 
0

>  <s_epik_input>  (25) 
W0NIXTE9TltDQEBIXShPMilbQ0BIXShbQ0BIXTFbQ0BIXTIzKVtDQEBdKE8zKShbQ0gzXSlPT1tDQF0oW0NIM10pKFtDQEBIXTRbQ0gzXSlbQ0gyXVtDSDJdW0NAQEhdNVtDQF0oW0NIM10pKFtDSDJdW0NIMl1bQ0BASF02W0NASF0oW0NIM10pW0NIMl1bQ0gyXVtDQEhdNFtDQF01NjcpT1tDQEBIXTdPW0NASF0oW09IXSlPW0NIMl1bQ0gyXU44W0NIMl1bQ0gyXVtDSDJdW0NIMl04

>  <s_epik_cmdline>  (25) 
J2VwaWtfcHl0aG9uJywgJy1waHQnLCAnMi4wJywgJy1waCcsICc3LjAnLCAnLXRuJywgJzgnLCAnLW1hJywgJzIwMCcsICctaW1hZScsICc8aW5maWxlLm1hZT4nLCAnLW9tYWUnLCAnPG91dGZpbGUubWFlPic=

>  <r_lp_tautomer_probability>  (25) 
0.999986

>  <r_epik_Ionization_Penalty>  (25) 
0.00432285

>  <r_epik_Ionization_Penalty_Charging>  (25) 
0.00429914

>  <r_epik_Ionization_Penalty_Neutral>  (25) 
2.37099e-05

>  <r_epik_State_Penalty>  (25) 
0.00309332

>  <r_epik_Charging_Adjusted_Penalty>  (25) 
0.00739247

>  <i_epik_Tot_Q>  (25) 
1

>  <i_epik_Tot_abs_Q>  (25) 
1

>  <s_epik_Chemistry_Notes>  (25) 
This compound has an imine and may undergo hydrolysis. This compound contains an acetal/aminal-like group ( X-CH(R)-Y where X, Y are N, S, or O) that may be acid/base labile, releasing an aldehyde.

>  <s_lp_Force_Field>  (25) 
OPLS3e

>  <r_lp_Energy>  (25) 
84.8953

>  <b_lp_Chiralities_Consistent>  (25) 
1

>  <s_lp_Variant>  (25) 
7:0-1

>  <s_i_glide_gridfile>  (25) 
pfpi4k_grid

>  <i_i_glide_lignum>  (25) 
9

>  <i_i_glide_rotatable_bonds>  (25) 
10

>  <r_i_docking_score>  (25) 
-2.63227

>  <r_i_glide_ligand_efficiency>  (25) 
-0.0612156

>  <r_i_glide_ligand_efficiency_sa>  (25) 
-0.214463

>  <r_i_glide_ligand_efficiency_ln>  (25) 
-0.552858

>  <r_i_glide_gscore>  (25) 
-2.63227

>  <r_i_glide_lipo>  (25) 
-0.296656

>  <r_i_glide_hbond>  (25) 
-0.2

>  <r_i_glide_metal>  (25) 
-0

>  <r_i_glide_rewards>  (25) 
-0.172579

>  <r_i_glide_evdw>  (25) 
-28.8043

>  <r_i_glide_ecoul>  (25) 
-4.83133

>  <r_i_glide_erotb>  (25) 
0.337192

>  <r_i_glide_esite>  (25) 
-0.135309

>  <r_i_glide_emodel>  (25) 
-32.5134

>  <r_i_glide_energy>  (25) 
-33.6357

>  <r_i_glide_einternal>  (25) 
15.0657

>  <r_i_glide_intrahb_reward>  (25) 
-0

>  <i_i_glide_confnum>  (25) 
2

>  <i_i_glide_posenum>  (25) 
9

>  <r_i_glide_eff_state_penalty>  (25) 
0

>  <ligand_id>  (25) 
7

>  <original_smiles>  (25) 
CC1CCC2C(C)C(C)(OOC3(C)OC4OC5N=CC4C53)CCC3C4(C)CCC1C23C(OC(O)OCCN1CCCC1)O4

>  <smiles>  (25) 
[H]OC([H])(OC([H])([H])C([H])([H])[N+]1([H])C([H])([H])C([H])([H])C([H])([H])C1([H])[H])OC1([H])OC2(C([H])([H])[H])C([H])([H])C([H])([H])C3([H])C([H])(C([H])([H])[H])C([H])([H])C([H])([H])C4([H])C([H])(C([H])([H])[H])C(OOC5(C([H])([H])[H])OC6([H])OC7([H])N=C([H])C6([H])C75[H])(C([H])([H])[H])C([H])([H])C([H])([H])C2([H])C134

$$$$
7:0:2
     RDKit          3D

 96103  0  0  1  0  0  0  0  0999 V2000
    5.7487   -1.1561    8.8720 C   0  0  0  0  0  0  0  0  0  0  0  0
    4.8023   -2.3413    8.5521 C   0  0  2  0  0  0  0  0  0  0  0  0
    5.0557   -2.9007    7.1324 C   0  0  0  0  0  0  0  0  0  0  0  0
    3.8185   -2.8900    6.2161 C   0  0  0  0  0  0  0  0  0  0  0  0
    3.0259   -1.5571    6.2961 C   0  0  2  0  0  0  0  0  0  0  0  0
    3.8913   -0.3335    5.7751 C   0  0  1  0  0  0  0  0  0  0  0  0
    4.5529   -0.6798    4.4066 C   0  0  0  0  0  0  0  0  0  0  0  0
    3.1705    1.0705    5.7575 C   0  0  1  0  0  0  0  0  0  0  0  0
    3.8641    2.1060    4.8263 C   0  0  0  0  0  0  0  0  0  0  0  0
    1.8107    0.9359    5.3348 O   0  0  0  0  0  0  0  0  0  0  0  0
    1.7737    0.5044    3.9049 O   0  0  0  0  0  0  0  0  0  0  0  0
    0.5173    0.8270    3.3094 C   0  0  1  0  0  0  0  0  0  0  0  0
    0.6498    0.2728    1.8862 C   0  0  0  0  0  0  0  0  0  0  0  0
   -0.6137    0.1968    3.9122 O   0  0  0  0  0  0  0  0  0  0  0  0
   -1.4808    1.2332    4.2701 C   0  0  1  0  0  0  0  0  0  0  0  0
   -0.8954    1.9233    5.3400 O   0  0  0  0  0  0  0  0  0  0  0  0
   -0.1421    2.9248    4.7171 C   0  0  2  0  0  0  0  0  0  0  0  0
   -1.0345    4.0543    4.4674 N   0  0  0  0  0  0  0  0  0  0  0  0
   -1.7856    3.6340    3.5378 C   0  0  0  0  0  0  0  0  0  0  0  0
   -1.3749    2.2515    3.1172 C   0  0  1  0  0  0  0  0  0  0  0  0
    0.0976    2.3179    3.3168 C   0  0  2  0  0  0  0  0  0  0  0  0
    3.1727    1.7714    7.1439 C   0  0  0  0  0  0  0  0  0  0  0  0
    2.7221    1.0024    8.3947 C   0  0  0  0  0  0  0  0  0  0  0  0
    1.7587   -0.1623    8.1410 C   0  0  2  0  0  0  0  0  0  0  0  0
    0.8623   -0.6094    9.3083 C   0  0  2  0  0  0  0  0  0  0  0  0
   -0.2823    0.3666    9.6291 C   0  0  0  0  0  0  0  0  0  0  0  0
    1.6507   -0.9980   10.5727 C   0  0  0  0  0  0  0  0  0  0  0  0
    3.0403   -1.6052   10.3085 C   0  0  0  0  0  0  0  0  0  0  0  0
    3.2824   -2.1605    8.8786 C   0  0  1  0  0  0  0  0  0  0  0  0
    2.3777   -1.5099    7.7394 C   0  0  2  0  0  0  0  0  0  0  0  0
    0.9923   -2.2605    7.6985 C   0  0  1  0  0  0  0  0  0  0  0  0
    1.1229   -3.6572    7.7283 O   0  0  0  0  0  0  0  0  0  0  0  0
    0.1402   -4.3502    7.0196 C   0  0  2  0  0  0  0  0  0  0  0  0
   -1.1475   -4.2020    7.5682 O   0  0  0  0  0  0  0  0  0  0  0  0
    0.4999   -5.6954    6.9133 O   0  0  0  0  0  0  0  0  0  0  0  0
    0.0552   -6.3294    5.7249 C   0  0  0  0  0  0  0  0  0  0  0  0
    0.5363   -7.7893    5.6961 C   0  0  0  0  0  0  0  0  0  0  0  0
    0.3842   -8.3951    4.3484 N   0  0  0  0  0  0  0  0  0  0  0  0
    0.9886   -9.7323    4.1962 C   0  0  0  0  0  0  0  0  0  0  0  0
    0.3935  -10.2781    2.8946 C   0  0  0  0  0  0  0  0  0  0  0  0
   -0.9191   -9.5029    2.6939 C   0  0  0  0  0  0  0  0  0  0  0  0
   -1.0070   -8.5589    3.8917 C   0  0  0  0  0  0  0  0  0  0  0  0
    0.2672   -1.8028    8.8007 O   0  0  0  0  0  0  0  0  0  0  0  0
    5.4792   -0.2277    8.3829 H   0  0  0  0  0  0  0  0  0  0  0  0
    6.7696   -1.3863    8.5714 H   0  0  0  0  0  0  0  0  0  0  0  0
    5.8055   -0.9552    9.9401 H   0  0  0  0  0  0  0  0  0  0  0  0
    5.1491   -3.1207    9.2311 H   0  0  0  0  0  0  0  0  0  0  0  0
    5.8676   -2.3590    6.6505 H   0  0  0  0  0  0  0  0  0  0  0  0
    5.4099   -3.9286    7.2117 H   0  0  0  0  0  0  0  0  0  0  0  0
    4.0944   -3.1435    5.1906 H   0  0  0  0  0  0  0  0  0  0  0  0
    3.1742   -3.7152    6.5120 H   0  0  0  0  0  0  0  0  0  0  0  0
    2.2120   -1.6397    5.5774 H   0  0  0  0  0  0  0  0  0  0  0  0
    4.7414   -0.2060    6.4347 H   0  0  0  0  0  0  0  0  0  0  0  0
    3.8168   -0.9556    3.6506 H   0  0  0  0  0  0  0  0  0  0  0  0
    5.2571   -1.5033    4.4941 H   0  0  0  0  0  0  0  0  0  0  0  0
    5.1675    0.1192    3.9979 H   0  0  0  0  0  0  0  0  0  0  0  0
    4.9191    2.2062    5.0875 H   0  0  0  0  0  0  0  0  0  0  0  0
    3.4276    3.1016    4.9110 H   0  0  0  0  0  0  0  0  0  0  0  0
    3.8163    1.8491    3.7681 H   0  0  0  0  0  0  0  0  0  0  0  0
    0.8660   -0.7944    1.8991 H   0  0  0  0  0  0  0  0  0  0  0  0
    1.4621    0.7641    1.3563 H   0  0  0  0  0  0  0  0  0  0  0  0
   -0.2512    0.4142    1.2936 H   0  0  0  0  0  0  0  0  0  0  0  0
   -2.4916    0.8951    4.4903 H   0  0  0  0  0  0  0  0  0  0  0  0
    0.7564    3.2066    5.2702 H   0  0  0  0  0  0  0  0  0  0  0  0
   -2.6208    4.1503    3.0525 H   0  0  0  0  0  0  0  0  0  0  0  0
   -1.7625    1.9165    2.1549 H   0  0  0  0  0  0  0  0  0  0  0  0
    0.6573    2.9752    2.6489 H   0  0  0  0  0  0  0  0  0  0  0  0
    4.1722    2.1538    7.3550 H   0  0  0  0  0  0  0  0  0  0  0  0
    2.5525    2.6623    7.0619 H   0  0  0  0  0  0  0  0  0  0  0  0
    3.5902    0.6652    8.9448 H   0  0  0  0  0  0  0  0  0  0  0  0
    2.2425    1.7199    9.0591 H   0  0  0  0  0  0  0  0  0  0  0  0
    1.0622    0.1660    7.3736 H   0  0  0  0  0  0  0  0  0  0  0  0
    0.0944    1.3163   10.0072 H   0  0  0  0  0  0  0  0  0  0  0  0
   -0.9448   -0.0467   10.3941 H   0  0  0  0  0  0  0  0  0  0  0  0
   -0.8842    0.5786    8.7456 H   0  0  0  0  0  0  0  0  0  0  0  0
    1.7868   -0.1129   11.1935 H   0  0  0  0  0  0  0  0  0  0  0  0
    1.0516   -1.6796   11.1761 H   0  0  0  0  0  0  0  0  0  0  0  0
    3.7659   -0.8400   10.5624 H   0  0  0  0  0  0  0  0  0  0  0  0
    3.2171   -2.3963   11.0356 H   0  0  0  0  0  0  0  0  0  0  0  0
    2.9714   -3.1978    8.9730 H   0  0  0  0  0  0  0  0  0  0  0  0
    0.4305   -1.9388    6.8158 H   0  0  0  0  0  0  0  0  0  0  0  0
    0.1075   -3.9189    6.0160 H   0  0  0  0  0  0  0  0  0  0  0  0
   -1.1451   -4.6296    8.4147 H   0  0  0  0  0  0  0  0  0  0  0  0
   -1.0318   -6.2706    5.6501 H   0  0  0  0  0  0  0  0  0  0  0  0
    0.4781   -5.7997    4.8713 H   0  0  0  0  0  0  0  0  0  0  0  0
    1.5917   -7.8170    5.9764 H   0  0  0  0  0  0  0  0  0  0  0  0
    0.0138   -8.3800    6.4530 H   0  0  0  0  0  0  0  0  0  0  0  0
    2.0782   -9.6997    4.1787 H   0  0  0  0  0  0  0  0  0  0  0  0
    0.6791  -10.3607    5.0345 H   0  0  0  0  0  0  0  0  0  0  0  0
    1.0635  -10.0939    2.0539 H   0  0  0  0  0  0  0  0  0  0  0  0
    0.2375  -11.3561    2.9560 H   0  0  0  0  0  0  0  0  0  0  0  0
   -0.8906   -8.9415    1.7585 H   0  0  0  0  0  0  0  0  0  0  0  0
   -1.7850  -10.1619    2.6483 H   0  0  0  0  0  0  0  0  0  0  0  0
   -1.5801   -9.0329    4.6899 H   0  0  0  0  0  0  0  0  0  0  0  0
   -1.4959   -7.6162    3.6428 H   0  0  0  0  0  0  0  0  0  0  0  0
    0.8535   -7.8113    3.6699 H   0  0  0  0  0  0  0  0  0  0  0  0
  1  2  1  0
  1 44  1  0
  1 45  1  0
  1 46  1  0
  2 29  1  0
  2  3  1  0
  2 47  1  1
  3  4  1  0
  3 48  1  0
  3 49  1  0
  4  5  1  0
  4 50  1  0
  4 51  1  0
  5 30  1  0
  5  6  1  0
  5 52  1  6
  6  7  1  0
  6  8  1  0
  6 53  1  1
  7 54  1  0
  7 55  1  0
  7 56  1  0
  8  9  1  0
  8 10  1  6
  8 22  1  0
  9 57  1  0
  9 58  1  0
  9 59  1  0
 10 11  1  0
 12 11  1  1
 12 21  1  0
 12 13  1  0
 12 14  1  0
 13 60  1  0
 13 61  1  0
 13 62  1  0
 14 15  1  0
 15 20  1  0
 15 16  1  0
 15 63  1  1
 16 17  1  0
 17 21  1  0
 17 18  1  0
 17 64  1  1
 18 19  2  0
 19 20  1  0
 19 65  1  0
 20 21  1  0
 20 66  1  6
 21 67  1  6
 22 23  1  0
 22 68  1  0
 22 69  1  0
 23 24  1  0
 23 70  1  0
 23 71  1  0
 24 30  1  0
 24 25  1  0
 24 72  1  6
 25 43  1  0
 25 26  1  1
 25 27  1  0
 26 73  1  0
 26 74  1  0
 26 75  1  0
 27 28  1  0
 27 76  1  0
 27 77  1  0
 28 29  1  0
 28 78  1  0
 28 79  1  0
 29 30  1  0
 29 80  1  1
 30 31  1  6
 31 32  1  0
 31 43  1  0
 31 81  1  6
 32 33  1  0
 33 34  1  0
 33 35  1  0
 33 82  1  6
 34 83  1  0
 35 36  1  0
 36 37  1  0
 36 84  1  0
 36 85  1  0
 37 38  1  0
 37 86  1  0
 37 87  1  0
 38 42  1  0
 38 39  1  0
 38 96  1  0
 39 40  1  0
 39 88  1  0
 39 89  1  0
 40 41  1  0
 40 90  1  0
 40 91  1  0
 41 42  1  0
 41 92  1  0
 41 93  1  0
 42 94  1  0
 42 95  1  0
M  CHG  1  38   1
M  END
>  <i_m_ct_stereo_status>  (26) 
1

>  <s_m_source_file>  (26) 
/var/tmp/pbs.5076255.sched01/tmpu5rzjxe4/0gixxd53k.sdf

>  <i_m_source_file_index>  (26) 
9

>  <i_lp_mmshare_version>  (26) 
48012

>  <i_f3d_flags>  (26) 
0

>  <s_epik_input>  (26) 
W0NIXTE9TltDQEBIXShPMilbQ0BIXShbQ0BIXTFbQ0BIXTIzKVtDQEBdKE8zKShbQ0gzXSlPT1tDQF0oW0NIM10pKFtDQEBIXTRbQ0gzXSlbQ0gyXVtDSDJdW0NAQEhdNVtDQF0oW0NIM10pKFtDSDJdW0NIMl1bQ0BASF02W0NASF0oW0NIM10pW0NIMl1bQ0gyXVtDQEhdNFtDQF01NjcpT1tDQEBIXTdPW0NASF0oW09IXSlPW0NIMl1bQ0gyXU44W0NIMl1bQ0gyXVtDSDJdW0NIMl04

>  <s_epik_cmdline>  (26) 
J2VwaWtfcHl0aG9uJywgJy1waHQnLCAnMi4wJywgJy1waCcsICc3LjAnLCAnLXRuJywgJzgnLCAnLW1hJywgJzIwMCcsICctaW1hZScsICc8aW5maWxlLm1hZT4nLCAnLW9tYWUnLCAnPG91dGZpbGUubWFlPic=

>  <r_lp_tautomer_probability>  (26) 
0.999986

>  <r_epik_Ionization_Penalty>  (26) 
0.00432285

>  <r_epik_Ionization_Penalty_Charging>  (26) 
0.00429914

>  <r_epik_Ionization_Penalty_Neutral>  (26) 
2.37099e-05

>  <r_epik_State_Penalty>  (26) 
0.00309332

>  <r_epik_Charging_Adjusted_Penalty>  (26) 
0.00739247

>  <i_epik_Tot_Q>  (26) 
1

>  <i_epik_Tot_abs_Q>  (26) 
1

>  <s_epik_Chemistry_Notes>  (26) 
This compound has an imine and may undergo hydrolysis. This compound contains an acetal/aminal-like group ( X-CH(R)-Y where X, Y are N, S, or O) that may be acid/base labile, releasing an aldehyde.

>  <s_lp_Force_Field>  (26) 
OPLS3e

>  <r_lp_Energy>  (26) 
84.8953

>  <b_lp_Chiralities_Consistent>  (26) 
1

>  <s_lp_Variant>  (26) 
7:0-1

>  <s_i_glide_gridfile>  (26) 
pfpi4k_grid

>  <i_i_glide_lignum>  (26) 
9

>  <i_i_glide_rotatable_bonds>  (26) 
10

>  <r_i_docking_score>  (26) 
-2.36901

>  <r_i_glide_ligand_efficiency>  (26) 
-0.0550933

>  <r_i_glide_ligand_efficiency_sa>  (26) 
-0.193014

>  <r_i_glide_ligand_efficiency_ln>  (26) 
-0.497566

>  <r_i_glide_gscore>  (26) 
-2.36901

>  <r_i_glide_lipo>  (26) 
-0.18303

>  <r_i_glide_hbond>  (26) 
-0.105851

>  <r_i_glide_metal>  (26) 
-0

>  <r_i_glide_rewards>  (26) 
0

>  <r_i_glide_evdw>  (26) 
-26.9056

>  <r_i_glide_ecoul>  (26) 
-5.8824

>  <r_i_glide_erotb>  (26) 
0.337192

>  <r_i_glide_esite>  (26) 
-0.189679

>  <r_i_glide_emodel>  (26) 
-32.7487

>  <r_i_glide_energy>  (26) 
-32.788

>  <r_i_glide_einternal>  (26) 
11.6867

>  <r_i_glide_intrahb_reward>  (26) 
-0

>  <i_i_glide_confnum>  (26) 
2

>  <i_i_glide_posenum>  (26) 
17

>  <r_i_glide_eff_state_penalty>  (26) 
0

>  <ligand_id>  (26) 
7

>  <original_smiles>  (26) 
CC1CCC2C(C)C(C)(OOC3(C)OC4OC5N=CC4C53)CCC3C4(C)CCC1C23C(OC(O)OCCN1CCCC1)O4

>  <smiles>  (26) 
[H]OC([H])(OC([H])([H])C([H])([H])[N+]1([H])C([H])([H])C([H])([H])C([H])([H])C1([H])[H])OC1([H])OC2(C([H])([H])[H])C([H])([H])C([H])([H])C3([H])C([H])(C([H])([H])[H])C([H])([H])C([H])([H])C4([H])C([H])(C([H])([H])[H])C(OOC5(C([H])([H])[H])OC6([H])OC7([H])N=C([H])C6([H])C75[H])(C([H])([H])[H])C([H])([H])C([H])([H])C2([H])C134

$$$$
8:0:0
     RDKit          3D

 37 39  0  0  1  0  0  0  0  0999 V2000
   -1.1141   -8.5275    2.9241 C   0  0  0  0  0  0  0  0  0  0  0  0
    0.1112   -9.0939    2.9009 C   0  0  0  0  0  0  0  0  0  0  0  0
    0.2150  -10.4410    3.2885 N   0  0  0  0  0  0  0  0  0  0  0  0
    1.3241  -11.0642    3.2930 C   0  0  0  0  0  0  0  0  0  0  0  0
    2.5728  -10.4236    2.8596 C   0  0  0  0  0  0  0  0  0  0  0  0
    2.5720   -9.1422    2.4427 C   0  0  0  0  0  0  0  0  0  0  0  0
    1.3190   -8.3362    2.4663 C   0  0  0  0  0  0  0  0  0  0  0  0
    1.2403   -7.0967    2.1593 N   0  0  0  0  0  0  0  0  0  0  0  0
    2.3199   -6.3226    1.7511 C   0  0  0  0  0  0  0  0  0  0  0  0
    3.4815   -6.0887    2.3921 C   0  0  0  0  0  0  0  0  0  0  0  0
    3.9834   -6.5913    3.7367 C   0  0  0  0  0  0  0  0  0  0  0  0
    4.2826   -5.2969    1.6093 N   0  0  0  0  0  0  0  0  0  0  0  0
    5.6565   -5.7178    1.3348 C   0  0  0  0  0  0  0  0  0  0  0  0
    3.5516   -4.9783    0.4493 N   0  0  0  0  0  0  0  0  0  0  0  0
    3.9438   -3.9516   -0.4651 C   0  0  0  0  0  0  0  0  0  0  0  0
    5.1343   -4.0653   -1.2094 C   0  0  0  0  0  0  0  0  0  0  0  0
    5.5072   -3.0224   -2.0756 C   0  0  0  0  0  0  0  0  0  0  0  0
    4.7662   -1.9098   -2.2595 N   0  0  0  0  0  0  0  0  0  0  0  0
    3.6045   -1.8153   -1.5763 C   0  0  0  0  0  0  0  0  0  0  0  0
    3.1619   -2.7928   -0.6589 C   0  0  0  0  0  0  0  0  0  0  0  0
    2.3318   -5.5626    0.5113 C   0  0  0  0  0  0  0  0  0  0  0  0
    1.4198   -5.4583   -0.3162 O   0  0  0  0  0  0  0  0  0  0  0  0
   -1.2909   -7.5011    2.6333 H   0  0  0  0  0  0  0  0  0  0  0  0
   -1.9843   -9.0831    3.2432 H   0  0  0  0  0  0  0  0  0  0  0  0
    1.3892  -12.1034    3.6119 H   0  0  0  0  0  0  0  0  0  0  0  0
    3.4506  -11.0460    2.8835 H   0  0  0  0  0  0  0  0  0  0  0  0
    3.4840   -8.6868    2.0965 H   0  0  0  0  0  0  0  0  0  0  0  0
    3.2235   -7.1639    4.2656 H   0  0  0  0  0  0  0  0  0  0  0  0
    4.2713   -5.7471    4.3657 H   0  0  0  0  0  0  0  0  0  0  0  0
    4.8557   -7.2344    3.5996 H   0  0  0  0  0  0  0  0  0  0  0  0
    6.1757   -5.9940    2.2546 H   0  0  0  0  0  0  0  0  0  0  0  0
    6.2397   -4.9301    0.8637 H   0  0  0  0  0  0  0  0  0  0  0  0
    5.6449   -6.5951    0.6856 H   0  0  0  0  0  0  0  0  0  0  0  0
    5.7537   -4.9415   -1.1292 H   0  0  0  0  0  0  0  0  0  0  0  0
    6.4318   -3.0955   -2.6329 H   0  0  0  0  0  0  0  0  0  0  0  0
    3.0138   -0.9308   -1.7680 H   0  0  0  0  0  0  0  0  0  0  0  0
    2.2253   -2.6487   -0.1391 H   0  0  0  0  0  0  0  0  0  0  0  0
  1  2  2  0
  1 23  1  0
  1 24  1  0
  2  7  1  0
  2  3  1  0
  3  4  2  0
  4  5  1  0
  4 25  1  0
  5  6  2  0
  5 26  1  0
  6  7  1  0
  6 27  1  0
  7  8  2  3
  8  9  1  0
  9 21  1  0
  9 10  2  0
 10 11  1  0
 10 12  1  0
 11 28  1  0
 11 29  1  0
 11 30  1  0
 12 13  1  0
 12 14  1  0
 13 31  1  0
 13 32  1  0
 13 33  1  0
 14 15  1  0
 14 21  1  0
 15 20  1  0
 15 16  2  0
 16 17  1  0
 16 34  1  0
 17 18  2  0
 17 35  1  0
 18 19  1  0
 19 20  2  0
 19 36  1  0
 20 37  1  0
 21 22  2  0
M  END
>  <i_m_ct_stereo_status>  (27) 
1

>  <s_m_source_file>  (27) 
/var/tmp/pbs.5076255.sched01/tmpu5rzjxe4/0gixxd53k.sdf

>  <i_m_source_file_index>  (27) 
10

>  <i_lp_mmshare_version>  (27) 
48012

>  <i_f3d_flags>  (27) 
0

>  <s_epik_input>  (27) 
W0NIMl09QzFOPVtDSF1bQ0hdPVtDSF1DXDE9Ti9jMmMoW0NIM10pbihbQ0gzXSluKGMyPU8pLWMzW2NIXVtjSF1uW2NIXVtjSF0z

>  <s_epik_cmdline>  (27) 
J2VwaWtfcHl0aG9uJywgJy1waHQnLCAnMi4wJywgJy1waCcsICc3LjAnLCAnLXRuJywgJzgnLCAnLW1hJywgJzIwMCcsICctaW1hZScsICc8aW5maWxlLm1hZT4nLCAnLW9tYWUnLCAnPG91dGZpbGUubWFlPic=

>  <r_lp_tautomer_probability>  (27) 
1

>  <r_epik_Ionization_Penalty>  (27) 
2.93811e-05

>  <r_epik_Ionization_Penalty_Charging>  (27) 
1.33103e-07

>  <r_epik_Ionization_Penalty_Neutral>  (27) 
2.9248e-05

>  <r_epik_State_Penalty>  (27) 
-0

>  <r_epik_Charging_Adjusted_Penalty>  (27) 
1.33103e-07

>  <i_epik_Tot_Q>  (27) 
0

>  <i_epik_Tot_abs_Q>  (27) 
0

>  <s_epik_Chemistry_Notes>  (27) 
This compound has an imine and may undergo hydrolysis.

>  <s_lp_Force_Field>  (27) 
OPLS3e

>  <r_lp_Energy>  (27) 
61.2275

>  <b_lp_Chiralities_Consistent>  (27) 
1

>  <s_lp_Variant>  (27) 
8:0-1

>  <s_i_glide_gridfile>  (27) 
pfpi4k_grid

>  <i_i_glide_lignum>  (27) 
10

>  <i_i_glide_rotatable_bonds>  (27) 
2

>  <r_i_docking_score>  (27) 
-3.77912

>  <r_i_glide_ligand_efficiency>  (27) 
-0.171778

>  <r_i_glide_ligand_efficiency_sa>  (27) 
-0.481329

>  <r_i_glide_ligand_efficiency_ln>  (27) 
-0.923755

>  <r_i_glide_gscore>  (27) 
-3.77912

>  <r_i_glide_lipo>  (27) 
-0.195364

>  <r_i_glide_hbond>  (27) 
-0.256266

>  <r_i_glide_metal>  (27) 
-0

>  <r_i_glide_rewards>  (27) 
-1.70709

>  <r_i_glide_evdw>  (27) 
-29.2703

>  <r_i_glide_ecoul>  (27) 
-3.68118

>  <r_i_glide_erotb>  (27) 
0.424717

>  <r_i_glide_esite>  (27) 
-0.0294307

>  <r_i_glide_emodel>  (27) 
-39.2797

>  <r_i_glide_energy>  (27) 
-32.9515

>  <r_i_glide_einternal>  (27) 
2.80735

>  <r_i_glide_intrahb_reward>  (27) 
-0

>  <i_i_glide_confnum>  (27) 
3

>  <i_i_glide_posenum>  (27) 
1

>  <r_i_glide_eff_state_penalty>  (27) 
0

>  <ligand_id>  (27) 
8

>  <original_smiles>  (27) 
C=C1N=CC=CC1=Nc1c(C)n(C)n(-c2ccncc2)c1=O

>  <smiles>  (27) 
[H]C1=NC(=C([H])[H])C(=Nc2c(C([H])([H])[H])n(C([H])([H])[H])n(-c3c([H])c([H])nc([H])c3[H])c2=O)C([H])=C1[H]

$$$$
8:0:1
     RDKit          3D

 37 39  0  0  1  0  0  0  0  0999 V2000
    5.4935   -3.4849   -2.0879 C   0  0  0  0  0  0  0  0  0  0  0  0
    5.5192   -2.9371   -0.8576 C   0  0  0  0  0  0  0  0  0  0  0  0
    6.1679   -1.7007   -0.7135 N   0  0  0  0  0  0  0  0  0  0  0  0
    6.1879   -1.0975    0.4155 C   0  0  0  0  0  0  0  0  0  0  0  0
    5.5454   -1.6406    1.6259 C   0  0  0  0  0  0  0  0  0  0  0  0
    4.8947   -2.8244    1.5892 C   0  0  0  0  0  0  0  0  0  0  0  0
    4.8535   -3.5984    0.3183 C   0  0  0  0  0  0  0  0  0  0  0  0
    4.3138   -4.7506    0.1902 N   0  0  0  0  0  0  0  0  0  0  0  0
    3.6592   -5.4205    1.2213 C   0  0  0  0  0  0  0  0  0  0  0  0
    4.1834   -5.9051    2.3612 C   0  0  0  0  0  0  0  0  0  0  0  0
    5.6142   -5.8850    2.8589 C   0  0  0  0  0  0  0  0  0  0  0  0
    3.1873   -6.4661    3.1220 N   0  0  0  0  0  0  0  0  0  0  0  0
    3.0182   -6.0724    4.5153 C   0  0  0  0  0  0  0  0  0  0  0  0
    2.0040   -6.3691    2.3862 N   0  0  0  0  0  0  0  0  0  0  0  0
    0.8137   -7.0633    2.7390 C   0  0  0  0  0  0  0  0  0  0  0  0
   -0.0174   -6.5764    3.7679 C   0  0  0  0  0  0  0  0  0  0  0  0
   -1.1841   -7.2912    4.0886 C   0  0  0  0  0  0  0  0  0  0  0  0
   -1.5685   -8.4052    3.4421 N   0  0  0  0  0  0  0  0  0  0  0  0
   -0.7573   -8.8908    2.4783 C   0  0  0  0  0  0  0  0  0  0  0  0
    0.4344   -8.2499    2.0829 C   0  0  0  0  0  0  0  0  0  0  0  0
    2.2480   -5.7775    1.1998 C   0  0  0  0  0  0  0  0  0  0  0  0
    1.4194   -5.5909    0.3053 O   0  0  0  0  0  0  0  0  0  0  0  0
    5.0062   -4.4320   -2.2909 H   0  0  0  0  0  0  0  0  0  0  0  0
    5.9810   -3.0114   -2.9301 H   0  0  0  0  0  0  0  0  0  0  0  0
    6.6857   -0.1381    0.5230 H   0  0  0  0  0  0  0  0  0  0  0  0
    5.6427   -1.0369    2.5130 H   0  0  0  0  0  0  0  0  0  0  0  0
    4.4135   -3.2360    2.4628 H   0  0  0  0  0  0  0  0  0  0  0  0
    6.2924   -5.4595    2.1185 H   0  0  0  0  0  0  0  0  0  0  0  0
    5.9403   -6.9036    3.0714 H   0  0  0  0  0  0  0  0  0  0  0  0
    5.6933   -5.3014    3.7757 H   0  0  0  0  0  0  0  0  0  0  0  0
    3.9500   -6.1901    5.0681 H   0  0  0  0  0  0  0  0  0  0  0  0
    2.2666   -6.6737    5.0264 H   0  0  0  0  0  0  0  0  0  0  0  0
    2.7260   -5.0211    4.5646 H   0  0  0  0  0  0  0  0  0  0  0  0
    0.2336   -5.6729    4.3025 H   0  0  0  0  0  0  0  0  0  0  0  0
   -1.8359   -6.9467    4.8790 H   0  0  0  0  0  0  0  0  0  0  0  0
   -1.0802   -9.8068    2.0040 H   0  0  0  0  0  0  0  0  0  0  0  0
    1.0408   -8.6625    1.2875 H   0  0  0  0  0  0  0  0  0  0  0  0
  1  2  2  0
  1 23  1  0
  1 24  1  0
  2  7  1  0
  2  3  1  0
  3  4  2  0
  4  5  1  0
  4 25  1  0
  5  6  2  0
  5 26  1  0
  6  7  1  0
  6 27  1  0
  7  8  2  3
  8  9  1  0
  9 21  1  0
  9 10  2  0
 10 11  1  0
 10 12  1  0
 11 28  1  0
 11 29  1  0
 11 30  1  0
 12 13  1  0
 12 14  1  0
 13 31  1  0
 13 32  1  0
 13 33  1  0
 14 15  1  0
 14 21  1  0
 15 20  1  0
 15 16  2  0
 16 17  1  0
 16 34  1  0
 17 18  2  0
 17 35  1  0
 18 19  1  0
 19 20  2  0
 19 36  1  0
 20 37  1  0
 21 22  2  0
M  END
>  <i_m_ct_stereo_status>  (28) 
1

>  <s_m_source_file>  (28) 
/var/tmp/pbs.5076255.sched01/tmpu5rzjxe4/0gixxd53k.sdf

>  <i_m_source_file_index>  (28) 
10

>  <i_lp_mmshare_version>  (28) 
48012

>  <i_f3d_flags>  (28) 
0

>  <s_epik_input>  (28) 
W0NIMl09QzFOPVtDSF1bQ0hdPVtDSF1DXDE9Ti9jMmMoW0NIM10pbihbQ0gzXSluKGMyPU8pLWMzW2NIXVtjSF1uW2NIXVtjSF0z

>  <s_epik_cmdline>  (28) 
J2VwaWtfcHl0aG9uJywgJy1waHQnLCAnMi4wJywgJy1waCcsICc3LjAnLCAnLXRuJywgJzgnLCAnLW1hJywgJzIwMCcsICctaW1hZScsICc8aW5maWxlLm1hZT4nLCAnLW9tYWUnLCAnPG91dGZpbGUubWFlPic=

>  <r_lp_tautomer_probability>  (28) 
1

>  <r_epik_Ionization_Penalty>  (28) 
2.93811e-05

>  <r_epik_Ionization_Penalty_Charging>  (28) 
1.33103e-07

>  <r_epik_Ionization_Penalty_Neutral>  (28) 
2.9248e-05

>  <r_epik_State_Penalty>  (28) 
-0

>  <r_epik_Charging_Adjusted_Penalty>  (28) 
1.33103e-07

>  <i_epik_Tot_Q>  (28) 
0

>  <i_epik_Tot_abs_Q>  (28) 
0

>  <s_epik_Chemistry_Notes>  (28) 
This compound has an imine and may undergo hydrolysis.

>  <s_lp_Force_Field>  (28) 
OPLS3e

>  <r_lp_Energy>  (28) 
61.2275

>  <b_lp_Chiralities_Consistent>  (28) 
1

>  <s_lp_Variant>  (28) 
8:0-1

>  <s_i_glide_gridfile>  (28) 
pfpi4k_grid

>  <i_i_glide_lignum>  (28) 
10

>  <i_i_glide_rotatable_bonds>  (28) 
2

>  <r_i_docking_score>  (28) 
-3.70742

>  <r_i_glide_ligand_efficiency>  (28) 
-0.168519

>  <r_i_glide_ligand_efficiency_sa>  (28) 
-0.472197

>  <r_i_glide_ligand_efficiency_ln>  (28) 
-0.906228

>  <r_i_glide_gscore>  (28) 
-3.70742

>  <r_i_glide_lipo>  (28) 
-0.362354

>  <r_i_glide_hbond>  (28) 
-0.221985

>  <r_i_glide_metal>  (28) 
-0

>  <r_i_glide_rewards>  (28) 
-1.58458

>  <r_i_glide_evdw>  (28) 
-25.3916

>  <r_i_glide_ecoul>  (28) 
-4.52026

>  <r_i_glide_erotb>  (28) 
0.424717

>  <r_i_glide_esite>  (28) 
-0.0155994

>  <r_i_glide_emodel>  (28) 
-36.4115

>  <r_i_glide_energy>  (28) 
-29.9118

>  <r_i_glide_einternal>  (28) 
3.01529

>  <r_i_glide_intrahb_reward>  (28) 
-0

>  <i_i_glide_confnum>  (28) 
3

>  <i_i_glide_posenum>  (28) 
19

>  <r_i_glide_eff_state_penalty>  (28) 
0

>  <ligand_id>  (28) 
8

>  <original_smiles>  (28) 
C=C1N=CC=CC1=Nc1c(C)n(C)n(-c2ccncc2)c1=O

>  <smiles>  (28) 
[H]C1=NC(=C([H])[H])C(=Nc2c(C([H])([H])[H])n(C([H])([H])[H])n(-c3c([H])c([H])nc([H])c3[H])c2=O)C([H])=C1[H]

$$$$
8:0:2
     RDKit          3D

 37 39  0  0  1  0  0  0  0  0999 V2000
   -0.1836   -5.5671    5.5677 C   0  0  0  0  0  0  0  0  0  0  0  0
   -0.1970   -6.4429    4.5415 C   0  0  0  0  0  0  0  0  0  0  0  0
   -1.2571   -7.3668    4.4814 N   0  0  0  0  0  0  0  0  0  0  0  0
   -1.3181   -8.2477    3.5573 C   0  0  0  0  0  0  0  0  0  0  0  0
   -0.3433   -8.2976    2.4480 C   0  0  0  0  0  0  0  0  0  0  0  0
    0.6760   -7.4187    2.3829 C   0  0  0  0  0  0  0  0  0  0  0  0
    0.8575   -6.4252    3.4761 C   0  0  0  0  0  0  0  0  0  0  0  0
    1.8243   -5.5966    3.5451 N   0  0  0  0  0  0  0  0  0  0  0  0
    2.8393   -5.4917    2.5988 C   0  0  0  0  0  0  0  0  0  0  0  0
    3.7138   -6.4298    2.2017 C   0  0  0  0  0  0  0  0  0  0  0  0
    3.8586   -7.8792    2.6327 C   0  0  0  0  0  0  0  0  0  0  0  0
    4.5349   -5.9103    1.2363 N   0  0  0  0  0  0  0  0  0  0  0  0
    4.6680   -6.5925   -0.0455 C   0  0  0  0  0  0  0  0  0  0  0  0
    4.1957   -4.5637    1.0841 N   0  0  0  0  0  0  0  0  0  0  0  0
    5.0092   -3.6449    0.3539 C   0  0  0  0  0  0  0  0  0  0  0  0
    6.3958   -3.8754    0.1956 C   0  0  0  0  0  0  0  0  0  0  0  0
    7.1527   -2.9577   -0.5574 C   0  0  0  0  0  0  0  0  0  0  0  0
    6.6159   -1.8608   -1.1239 N   0  0  0  0  0  0  0  0  0  0  0  0
    5.2964   -1.6373   -0.9741 C   0  0  0  0  0  0  0  0  0  0  0  0
    4.4527   -2.4995   -0.2549 C   0  0  0  0  0  0  0  0  0  0  0  0
    3.1700   -4.2575    1.9123 C   0  0  0  0  0  0  0  0  0  0  0  0
    2.6336   -3.1553    2.0558 O   0  0  0  0  0  0  0  0  0  0  0  0
    0.5759   -4.8008    5.6783 H   0  0  0  0  0  0  0  0  0  0  0  0
   -0.9531   -5.5961    6.3247 H   0  0  0  0  0  0  0  0  0  0  0  0
   -2.0995   -9.0128    3.5292 H   0  0  0  0  0  0  0  0  0  0  0  0
   -0.5059   -9.0651    1.7097 H   0  0  0  0  0  0  0  0  0  0  0  0
    1.3871   -7.4359    1.5690 H   0  0  0  0  0  0  0  0  0  0  0  0
    3.1821   -8.1292    3.4505 H   0  0  0  0  0  0  0  0  0  0  0  0
    4.8757   -8.0684    2.9712 H   0  0  0  0  0  0  0  0  0  0  0  0
    3.6430   -8.5489    1.7998 H   0  0  0  0  0  0  0  0  0  0  0  0
    4.9641   -7.6317    0.0946 H   0  0  0  0  0  0  0  0  0  0  0  0
    5.4008   -6.1194   -0.6948 H   0  0  0  0  0  0  0  0  0  0  0  0
    3.7152   -6.5806   -0.5624 H   0  0  0  0  0  0  0  0  0  0  0  0
    6.8799   -4.7393    0.6342 H   0  0  0  0  0  0  0  0  0  0  0  0
    8.2133   -3.1068   -0.7021 H   0  0  0  0  0  0  0  0  0  0  0  0
    4.8986   -0.7452   -1.4347 H   0  0  0  0  0  0  0  0  0  0  0  0
    3.4009   -2.2673   -0.1813 H   0  0  0  0  0  0  0  0  0  0  0  0
  1  2  2  0
  1 23  1  0
  1 24  1  0
  2  7  1  0
  2  3  1  0
  3  4  2  0
  4  5  1  0
  4 25  1  0
  5  6  2  0
  5 26  1  0
  6  7  1  0
  6 27  1  0
  7  8  2  3
  8  9  1  0
  9 21  1  0
  9 10  2  0
 10 11  1  0
 10 12  1  0
 11 28  1  0
 11 29  1  0
 11 30  1  0
 12 13  1  0
 12 14  1  0
 13 31  1  0
 13 32  1  0
 13 33  1  0
 14 15  1  0
 14 21  1  0
 15 20  1  0
 15 16  2  0
 16 17  1  0
 16 34  1  0
 17 18  2  0
 17 35  1  0
 18 19  1  0
 19 20  2  0
 19 36  1  0
 20 37  1  0
 21 22  2  0
M  END
>  <i_m_ct_stereo_status>  (29) 
1

>  <s_m_source_file>  (29) 
/var/tmp/pbs.5076255.sched01/tmpu5rzjxe4/0gixxd53k.sdf

>  <i_m_source_file_index>  (29) 
10

>  <i_lp_mmshare_version>  (29) 
48012

>  <i_f3d_flags>  (29) 
0

>  <s_epik_input>  (29) 
W0NIMl09QzFOPVtDSF1bQ0hdPVtDSF1DXDE9Ti9jMmMoW0NIM10pbihbQ0gzXSluKGMyPU8pLWMzW2NIXVtjSF1uW2NIXVtjSF0z

>  <s_epik_cmdline>  (29) 
J2VwaWtfcHl0aG9uJywgJy1waHQnLCAnMi4wJywgJy1waCcsICc3LjAnLCAnLXRuJywgJzgnLCAnLW1hJywgJzIwMCcsICctaW1hZScsICc8aW5maWxlLm1hZT4nLCAnLW9tYWUnLCAnPG91dGZpbGUubWFlPic=

>  <r_lp_tautomer_probability>  (29) 
1

>  <r_epik_Ionization_Penalty>  (29) 
2.93811e-05

>  <r_epik_Ionization_Penalty_Charging>  (29) 
1.33103e-07

>  <r_epik_Ionization_Penalty_Neutral>  (29) 
2.9248e-05

>  <r_epik_State_Penalty>  (29) 
-0

>  <r_epik_Charging_Adjusted_Penalty>  (29) 
1.33103e-07

>  <i_epik_Tot_Q>  (29) 
0

>  <i_epik_Tot_abs_Q>  (29) 
0

>  <s_epik_Chemistry_Notes>  (29) 
This compound has an imine and may undergo hydrolysis.

>  <s_lp_Force_Field>  (29) 
OPLS3e

>  <r_lp_Energy>  (29) 
61.2275

>  <b_lp_Chiralities_Consistent>  (29) 
1

>  <s_lp_Variant>  (29) 
8:0-1

>  <s_i_glide_gridfile>  (29) 
pfpi4k_grid

>  <i_i_glide_lignum>  (29) 
10

>  <i_i_glide_rotatable_bonds>  (29) 
2

>  <r_i_docking_score>  (29) 
-3.3967

>  <r_i_glide_ligand_efficiency>  (29) 
-0.154396

>  <r_i_glide_ligand_efficiency_sa>  (29) 
-0.432623

>  <r_i_glide_ligand_efficiency_ln>  (29) 
-0.830278

>  <r_i_glide_gscore>  (29) 
-3.3967

>  <r_i_glide_lipo>  (29) 
-0.24564

>  <r_i_glide_hbond>  (29) 
-0.16

>  <r_i_glide_metal>  (29) 
-0

>  <r_i_glide_rewards>  (29) 
-1.53033

>  <r_i_glide_evdw>  (29) 
-24.2526

>  <r_i_glide_ecoul>  (29) 
-3.80204

>  <r_i_glide_erotb>  (29) 
0.424717

>  <r_i_glide_esite>  (29) 
-0.102511

>  <r_i_glide_emodel>  (29) 
-35.4435

>  <r_i_glide_energy>  (29) 
-28.0547

>  <r_i_glide_einternal>  (29) 
0.0030549

>  <r_i_glide_intrahb_reward>  (29) 
-0

>  <i_i_glide_confnum>  (29) 
1

>  <i_i_glide_posenum>  (29) 
35

>  <r_i_glide_eff_state_penalty>  (29) 
0

>  <ligand_id>  (29) 
8

>  <original_smiles>  (29) 
C=C1N=CC=CC1=Nc1c(C)n(C)n(-c2ccncc2)c1=O

>  <smiles>  (29) 
[H]C1=NC(=C([H])[H])C(=Nc2c(C([H])([H])[H])n(C([H])([H])[H])n(-c3c([H])c([H])nc([H])c3[H])c2=O)C([H])=C1[H]

$$$$
8:1:0
     RDKit          3D

 37 39  0  0  1  0  0  0  0  0999 V2000
    1.2935   -5.6910    3.6361 C   0  0  0  0  0  0  0  0  0  0  0  0
    0.6187   -6.7615    3.1679 C   0  0  0  0  0  0  0  0  0  0  0  0
   -0.7534   -6.7797    3.4676 N   0  0  0  0  0  0  0  0  0  0  0  0
   -1.4451   -7.8468    3.3471 C   0  0  0  0  0  0  0  0  0  0  0  0
   -0.8654   -9.1181    2.8783 C   0  0  0  0  0  0  0  0  0  0  0  0
    0.4241   -9.1874    2.4926 C   0  0  0  0  0  0  0  0  0  0  0  0
    1.2812   -7.9837    2.5605 C   0  0  0  0  0  0  0  0  0  0  0  0
    2.4574   -8.0867    2.0739 N   0  0  0  0  0  0  0  0  0  0  0  0
    3.2731   -7.0050    1.7498 C   0  0  0  0  0  0  0  0  0  0  0  0
    4.5261   -6.7985    2.1695 C   0  0  0  0  0  0  0  0  0  0  0  0
    5.3904   -7.6114    3.1170 C   0  0  0  0  0  0  0  0  0  0  0  0
    5.0097   -5.6390    1.6142 N   0  0  0  0  0  0  0  0  0  0  0  0
    6.3017   -5.6161    0.9405 C   0  0  0  0  0  0  0  0  0  0  0  0
    3.9912   -5.0954    0.8256 N   0  0  0  0  0  0  0  0  0  0  0  0
    4.0236   -3.7618    0.3267 C   0  0  0  0  0  0  0  0  0  0  0  0
    4.7544   -2.7525    0.9943 C   0  0  0  0  0  0  0  0  0  0  0  0
    4.7815   -1.4594    0.4364 C   0  0  0  0  0  0  0  0  0  0  0  0
    4.1555   -1.1333   -0.7124 N   0  0  0  0  0  0  0  0  0  0  0  0
    3.4317   -2.0922   -1.3308 C   0  0  0  0  0  0  0  0  0  0  0  0
    3.3499   -3.4145   -0.8611 C   0  0  0  0  0  0  0  0  0  0  0  0
    2.9065   -5.9059    0.8649 C   0  0  0  0  0  0  0  0  0  0  0  0
    1.8198   -5.7243    0.3062 O   0  0  0  0  0  0  0  0  0  0  0  0
    2.3659   -5.5825    3.5829 H   0  0  0  0  0  0  0  0  0  0  0  0
    0.7775   -4.8827    4.1298 H   0  0  0  0  0  0  0  0  0  0  0  0
   -2.5107   -7.8654    3.5814 H   0  0  0  0  0  0  0  0  0  0  0  0
   -1.5457   -9.9517    2.8531 H   0  0  0  0  0  0  0  0  0  0  0  0
    0.8682  -10.0971    2.1155 H   0  0  0  0  0  0  0  0  0  0  0  0
    4.8554   -8.4757    3.5121 H   0  0  0  0  0  0  0  0  0  0  0  0
    5.6994   -6.9872    3.9564 H   0  0  0  0  0  0  0  0  0  0  0  0
    6.2921   -7.9641    2.6158 H   0  0  0  0  0  0  0  0  0  0  0  0
    7.0878   -5.9978    1.5893 H   0  0  0  0  0  0  0  0  0  0  0  0
    6.5911   -4.6168    0.6228 H   0  0  0  0  0  0  0  0  0  0  0  0
    6.2496   -6.2501    0.0634 H   0  0  0  0  0  0  0  0  0  0  0  0
    5.2869   -2.9525    1.9110 H   0  0  0  0  0  0  0  0  0  0  0  0
    5.3332   -0.6623    0.9177 H   0  0  0  0  0  0  0  0  0  0  0  0
    2.9092   -1.8085   -2.2331 H   0  0  0  0  0  0  0  0  0  0  0  0
    2.7783   -4.1437   -1.4152 H   0  0  0  0  0  0  0  0  0  0  0  0
  1  2  2  0
  1 23  1  0
  1 24  1  0
  2  7  1  0
  2  3  1  0
  3  4  2  0
  4  5  1  0
  4 25  1  0
  5  6  2  0
  5 26  1  0
  6  7  1  0
  6 27  1  0
  7  8  2  3
  8  9  1  0
  9 21  1  0
  9 10  2  0
 10 11  1  0
 10 12  1  0
 11 28  1  0
 11 29  1  0
 11 30  1  0
 12 13  1  0
 12 14  1  0
 13 31  1  0
 13 32  1  0
 13 33  1  0
 14 15  1  0
 14 21  1  0
 15 20  1  0
 15 16  2  0
 16 17  1  0
 16 34  1  0
 17 18  2  0
 17 35  1  0
 18 19  1  0
 19 20  2  0
 19 36  1  0
 20 37  1  0
 21 22  2  0
M  END
>  <i_m_ct_stereo_status>  (30) 
1

>  <s_m_source_file>  (30) 
/var/tmp/pbs.5076255.sched01/tmpu5rzjxe4/0gixxd53k.sdf

>  <i_m_source_file_index>  (30) 
11

>  <i_lp_mmshare_version>  (30) 
48012

>  <i_f3d_flags>  (30) 
0

>  <s_epik_input>  (30) 
W0NIMl09QzFOPVtDSF1bQ0hdPVtDSF1DXDE9Ti9jMmMoW0NIM10pbihbQ0gzXSluKGMyPU8pLWMzW2NIXVtjSF1uW2NIXVtjSF0z

>  <s_epik_cmdline>  (30) 
J2VwaWtfcHl0aG9uJywgJy1waHQnLCAnMi4wJywgJy1waCcsICc3LjAnLCAnLXRuJywgJzgnLCAnLW1hJywgJzIwMCcsICctaW1hZScsICc8aW5maWxlLm1hZT4nLCAnLW9tYWUnLCAnPG91dGZpbGUubWFlPic=

>  <r_lp_tautomer_probability>  (30) 
1

>  <r_epik_Ionization_Penalty>  (30) 
2.93811e-05

>  <r_epik_Ionization_Penalty_Charging>  (30) 
1.33103e-07

>  <r_epik_Ionization_Penalty_Neutral>  (30) 
2.9248e-05

>  <r_epik_State_Penalty>  (30) 
-0

>  <r_epik_Charging_Adjusted_Penalty>  (30) 
1.33103e-07

>  <i_epik_Tot_Q>  (30) 
0

>  <i_epik_Tot_abs_Q>  (30) 
0

>  <s_epik_Chemistry_Notes>  (30) 
This compound has an imine and may undergo hydrolysis.

>  <s_lp_Force_Field>  (30) 
OPLS3e

>  <r_lp_Energy>  (30) 
65.8656

>  <b_lp_Chiralities_Consistent>  (30) 
1

>  <s_lp_Variant>  (30) 
8:0-2

>  <s_i_glide_gridfile>  (30) 
pfpi4k_grid

>  <i_i_glide_lignum>  (30) 
11

>  <i_i_glide_rotatable_bonds>  (30) 
2

>  <r_i_docking_score>  (30) 
-3.58597

>  <r_i_glide_ligand_efficiency>  (30) 
-0.162998

>  <r_i_glide_ligand_efficiency_sa>  (30) 
-0.456728

>  <r_i_glide_ligand_efficiency_ln>  (30) 
-0.876541

>  <r_i_glide_gscore>  (30) 
-3.58597

>  <r_i_glide_lipo>  (30) 
-0.273071

>  <r_i_glide_hbond>  (30) 
-0.209983

>  <r_i_glide_metal>  (30) 
-0

>  <r_i_glide_rewards>  (30) 
-1.49878

>  <r_i_glide_evdw>  (30) 
-27.0154

>  <r_i_glide_ecoul>  (30) 
-3.88826

>  <r_i_glide_erotb>  (30) 
0.424717

>  <r_i_glide_esite>  (30) 
-0.0948417

>  <r_i_glide_emodel>  (30) 
-37.7679

>  <r_i_glide_energy>  (30) 
-30.9037

>  <r_i_glide_einternal>  (30) 
1.70165

>  <r_i_glide_intrahb_reward>  (30) 
-0

>  <i_i_glide_confnum>  (30) 
2

>  <i_i_glide_posenum>  (30) 
5

>  <r_i_glide_eff_state_penalty>  (30) 
0

>  <ligand_id>  (30) 
8

>  <original_smiles>  (30) 
C=C1N=CC=CC1=Nc1c(C)n(C)n(-c2ccncc2)c1=O

>  <smiles>  (30) 
[H]C1=NC(=C([H])[H])C(=Nc2c(C([H])([H])[H])n(C([H])([H])[H])n(-c3c([H])c([H])nc([H])c3[H])c2=O)C([H])=C1[H]

$$$$
8:1:1
     RDKit          3D

 37 39  0  0  1  0  0  0  0  0999 V2000
    3.0999   -9.2800    1.5309 C   0  0  0  0  0  0  0  0  0  0  0  0
    1.9171   -9.0937    2.1638 C   0  0  0  0  0  0  0  0  0  0  0  0
    1.4020  -10.2224    2.8308 N   0  0  0  0  0  0  0  0  0  0  0  0
    0.2024  -10.2639    3.2447 C   0  0  0  0  0  0  0  0  0  0  0  0
   -0.7587   -9.1728    3.0165 C   0  0  0  0  0  0  0  0  0  0  0  0
   -0.3500   -8.0077    2.4695 C   0  0  0  0  0  0  0  0  0  0  0  0
    1.0713   -7.8380    2.0780 C   0  0  0  0  0  0  0  0  0  0  0  0
    1.4097   -6.6390    1.8013 N   0  0  0  0  0  0  0  0  0  0  0  0
    2.7075   -6.1460    1.6105 C   0  0  0  0  0  0  0  0  0  0  0  0
    3.8296   -6.3369    2.3108 C   0  0  0  0  0  0  0  0  0  0  0  0
    4.1164   -7.1576    3.5683 C   0  0  0  0  0  0  0  0  0  0  0  0
    4.8644   -5.6602    1.7052 N   0  0  0  0  0  0  0  0  0  0  0  0
    6.0608   -6.3866    1.2960 C   0  0  0  0  0  0  0  0  0  0  0  0
    4.3284   -4.9410    0.6406 N   0  0  0  0  0  0  0  0  0  0  0  0
    5.0447   -3.8995   -0.0197 C   0  0  0  0  0  0  0  0  0  0  0  0
    4.7607   -3.5251   -1.3495 C   0  0  0  0  0  0  0  0  0  0  0  0
    5.5089   -2.5022   -1.9486 C   0  0  0  0  0  0  0  0  0  0  0  0
    6.5143   -1.8633   -1.3186 N   0  0  0  0  0  0  0  0  0  0  0  0
    6.7915   -2.2095   -0.0463 C   0  0  0  0  0  0  0  0  0  0  0  0
    6.0913   -3.2124    0.6463 C   0  0  0  0  0  0  0  0  0  0  0  0
    2.9917   -5.1743    0.5572 C   0  0  0  0  0  0  0  0  0  0  0  0
    2.2038   -4.6663   -0.2216 O   0  0  0  0  0  0  0  0  0  0  0  0
    3.5406   -8.5583    0.8494 H   0  0  0  0  0  0  0  0  0  0  0  0
    3.6330  -10.2192    1.6250 H   0  0  0  0  0  0  0  0  0  0  0  0
   -0.1816  -11.1264    3.7917 H   0  0  0  0  0  0  0  0  0  0  0  0
   -1.7546   -9.4240    3.3366 H   0  0  0  0  0  0  0  0  0  0  0  0
   -1.0209   -7.1886    2.2870 H   0  0  0  0  0  0  0  0  0  0  0  0
    3.2061   -7.5795    3.9955 H   0  0  0  0  0  0  0  0  0  0  0  0
    4.6165   -6.5813    4.3542 H   0  0  0  0  0  0  0  0  0  0  0  0
    4.7725   -7.9780    3.2769 H   0  0  0  0  0  0  0  0  0  0  0  0
    6.4862   -6.9518    2.1225 H   0  0  0  0  0  0  0  0  0  0  0  0
    6.8505   -5.7384    0.9195 H   0  0  0  0  0  0  0  0  0  0  0  0
    5.8167   -7.0943    0.5038 H   0  0  0  0  0  0  0  0  0  0  0  0
    3.9892   -4.0160   -1.9227 H   0  0  0  0  0  0  0  0  0  0  0  0
    5.2982   -2.1953   -2.9666 H   0  0  0  0  0  0  0  0  0  0  0  0
    7.6065   -1.6689    0.4252 H   0  0  0  0  0  0  0  0  0  0  0  0
    6.3641   -3.4470    1.6633 H   0  0  0  0  0  0  0  0  0  0  0  0
  1  2  2  0
  1 23  1  0
  1 24  1  0
  2  7  1  0
  2  3  1  0
  3  4  2  0
  4  5  1  0
  4 25  1  0
  5  6  2  0
  5 26  1  0
  6  7  1  0
  6 27  1  0
  7  8  2  3
  8  9  1  0
  9 21  1  0
  9 10  2  0
 10 11  1  0
 10 12  1  0
 11 28  1  0
 11 29  1  0
 11 30  1  0
 12 13  1  0
 12 14  1  0
 13 31  1  0
 13 32  1  0
 13 33  1  0
 14 15  1  0
 14 21  1  0
 15 20  1  0
 15 16  2  0
 16 17  1  0
 16 34  1  0
 17 18  2  0
 17 35  1  0
 18 19  1  0
 19 20  2  0
 19 36  1  0
 20 37  1  0
 21 22  2  0
M  END
>  <i_m_ct_stereo_status>  (31) 
1

>  <s_m_source_file>  (31) 
/var/tmp/pbs.5076255.sched01/tmpu5rzjxe4/0gixxd53k.sdf

>  <i_m_source_file_index>  (31) 
11

>  <i_lp_mmshare_version>  (31) 
48012

>  <i_f3d_flags>  (31) 
0

>  <s_epik_input>  (31) 
W0NIMl09QzFOPVtDSF1bQ0hdPVtDSF1DXDE9Ti9jMmMoW0NIM10pbihbQ0gzXSluKGMyPU8pLWMzW2NIXVtjSF1uW2NIXVtjSF0z

>  <s_epik_cmdline>  (31) 
J2VwaWtfcHl0aG9uJywgJy1waHQnLCAnMi4wJywgJy1waCcsICc3LjAnLCAnLXRuJywgJzgnLCAnLW1hJywgJzIwMCcsICctaW1hZScsICc8aW5maWxlLm1hZT4nLCAnLW9tYWUnLCAnPG91dGZpbGUubWFlPic=

>  <r_lp_tautomer_probability>  (31) 
1

>  <r_epik_Ionization_Penalty>  (31) 
2.93811e-05

>  <r_epik_Ionization_Penalty_Charging>  (31) 
1.33103e-07

>  <r_epik_Ionization_Penalty_Neutral>  (31) 
2.9248e-05

>  <r_epik_State_Penalty>  (31) 
-0

>  <r_epik_Charging_Adjusted_Penalty>  (31) 
1.33103e-07

>  <i_epik_Tot_Q>  (31) 
0

>  <i_epik_Tot_abs_Q>  (31) 
0

>  <s_epik_Chemistry_Notes>  (31) 
This compound has an imine and may undergo hydrolysis.

>  <s_lp_Force_Field>  (31) 
OPLS3e

>  <r_lp_Energy>  (31) 
65.8656

>  <b_lp_Chiralities_Consistent>  (31) 
1

>  <s_lp_Variant>  (31) 
8:0-2

>  <s_i_glide_gridfile>  (31) 
pfpi4k_grid

>  <i_i_glide_lignum>  (31) 
11

>  <i_i_glide_rotatable_bonds>  (31) 
2

>  <r_i_docking_score>  (31) 
-3.44952

>  <r_i_glide_ligand_efficiency>  (31) 
-0.156797

>  <r_i_glide_ligand_efficiency_sa>  (31) 
-0.43935

>  <r_i_glide_ligand_efficiency_ln>  (31) 
-0.843189

>  <r_i_glide_gscore>  (31) 
-3.44952

>  <r_i_glide_lipo>  (31) 
-0.278377

>  <r_i_glide_hbond>  (31) 
-0.160003

>  <r_i_glide_metal>  (31) 
-0

>  <r_i_glide_rewards>  (31) 
-1.51462

>  <r_i_glide_evdw>  (31) 
-27.356

>  <r_i_glide_ecoul>  (31) 
-3.30461

>  <r_i_glide_erotb>  (31) 
0.424717

>  <r_i_glide_esite>  (31) 
-0.0577516

>  <r_i_glide_emodel>  (31) 
-37.3659

>  <r_i_glide_energy>  (31) 
-30.6606

>  <r_i_glide_einternal>  (31) 
0.165983

>  <r_i_glide_intrahb_reward>  (31) 
-0

>  <i_i_glide_confnum>  (31) 
3

>  <i_i_glide_posenum>  (31) 
19

>  <r_i_glide_eff_state_penalty>  (31) 
0

>  <ligand_id>  (31) 
8

>  <original_smiles>  (31) 
C=C1N=CC=CC1=Nc1c(C)n(C)n(-c2ccncc2)c1=O

>  <smiles>  (31) 
[H]C1=NC(=C([H])[H])C(=Nc2c(C([H])([H])[H])n(C([H])([H])[H])n(-c3c([H])c([H])nc([H])c3[H])c2=O)C([H])=C1[H]

$$$$
8:1:2
     RDKit          3D

 37 39  0  0  1  0  0  0  0  0999 V2000
    3.7148   -9.0910    1.4824 C   0  0  0  0  0  0  0  0  0  0  0  0
    2.5928   -9.1882    2.2257 C   0  0  0  0  0  0  0  0  0  0  0  0
    2.3988  -10.4240    2.8713 N   0  0  0  0  0  0  0  0  0  0  0  0
    1.2593  -10.7531    3.3514 C   0  0  0  0  0  0  0  0  0  0  0  0
    0.0797   -9.8706    3.2559 C   0  0  0  0  0  0  0  0  0  0  0  0
    0.1801   -8.6316    2.7354 C   0  0  0  0  0  0  0  0  0  0  0  0
    1.4842   -8.1509    2.2416 C   0  0  0  0  0  0  0  0  0  0  0  0
    1.5297   -6.9071    1.9357 N   0  0  0  0  0  0  0  0  0  0  0  0
    2.6653   -6.1675    1.6158 C   0  0  0  0  0  0  0  0  0  0  0  0
    3.8356   -6.0682    2.2735 C   0  0  0  0  0  0  0  0  0  0  0  0
    4.3166   -6.7559    3.5423 C   0  0  0  0  0  0  0  0  0  0  0  0
    4.6810   -5.2432    1.5734 N   0  0  0  0  0  0  0  0  0  0  0  0
    6.0120   -5.6985    1.1872 C   0  0  0  0  0  0  0  0  0  0  0  0
    3.9727   -4.7527    0.4815 N   0  0  0  0  0  0  0  0  0  0  0  0
    4.4155   -3.6471   -0.2832 C   0  0  0  0  0  0  0  0  0  0  0  0
    4.3866   -2.3377    0.2398 C   0  0  0  0  0  0  0  0  0  0  0  0
    4.8630   -1.2840   -0.5668 C   0  0  0  0  0  0  0  0  0  0  0  0
    5.3776   -1.4714   -1.8022 N   0  0  0  0  0  0  0  0  0  0  0  0
    5.4029   -2.7305   -2.2918 C   0  0  0  0  0  0  0  0  0  0  0  0
    4.9470   -3.8487   -1.5694 C   0  0  0  0  0  0  0  0  0  0  0  0
    2.7221   -5.2668    0.4804 C   0  0  0  0  0  0  0  0  0  0  0  0
    1.8171   -5.0142   -0.3167 O   0  0  0  0  0  0  0  0  0  0  0  0
    3.9519   -8.2537    0.8433 H   0  0  0  0  0  0  0  0  0  0  0  0
    4.4409   -9.8931    1.4836 H   0  0  0  0  0  0  0  0  0  0  0  0
    1.1001  -11.7079    3.8563 H   0  0  0  0  0  0  0  0  0  0  0  0
   -0.8380  -10.2809    3.6374 H   0  0  0  0  0  0  0  0  0  0  0  0
   -0.6665   -7.9658    2.6449 H   0  0  0  0  0  0  0  0  0  0  0  0
    3.5311   -7.3462    4.0120 H   0  0  0  0  0  0  0  0  0  0  0  0
    4.6639   -6.0277    4.2748 H   0  0  0  0  0  0  0  0  0  0  0  0
    5.1416   -7.4332    3.3150 H   0  0  0  0  0  0  0  0  0  0  0  0
    6.5675   -6.0647    2.0502 H   0  0  0  0  0  0  0  0  0  0  0  0
    6.5992   -4.9062    0.7227 H   0  0  0  0  0  0  0  0  0  0  0  0
    5.9274   -6.5246    0.4817 H   0  0  0  0  0  0  0  0  0  0  0  0
    3.9989   -2.1349    1.2267 H   0  0  0  0  0  0  0  0  0  0  0  0
    4.8449   -0.2617   -0.2135 H   0  0  0  0  0  0  0  0  0  0  0  0
    5.8000   -2.8516   -3.2893 H   0  0  0  0  0  0  0  0  0  0  0  0
    4.9931   -4.8401   -1.9943 H   0  0  0  0  0  0  0  0  0  0  0  0
  1  2  2  0
  1 23  1  0
  1 24  1  0
  2  7  1  0
  2  3  1  0
  3  4  2  0
  4  5  1  0
  4 25  1  0
  5  6  2  0
  5 26  1  0
  6  7  1  0
  6 27  1  0
  7  8  2  3
  8  9  1  0
  9 21  1  0
  9 10  2  0
 10 11  1  0
 10 12  1  0
 11 28  1  0
 11 29  1  0
 11 30  1  0
 12 13  1  0
 12 14  1  0
 13 31  1  0
 13 32  1  0
 13 33  1  0
 14 15  1  0
 14 21  1  0
 15 20  1  0
 15 16  2  0
 16 17  1  0
 16 34  1  0
 17 18  2  0
 17 35  1  0
 18 19  1  0
 19 20  2  0
 19 36  1  0
 20 37  1  0
 21 22  2  0
M  END
>  <i_m_ct_stereo_status>  (32) 
1

>  <s_m_source_file>  (32) 
/var/tmp/pbs.5076255.sched01/tmpu5rzjxe4/0gixxd53k.sdf

>  <i_m_source_file_index>  (32) 
11

>  <i_lp_mmshare_version>  (32) 
48012

>  <i_f3d_flags>  (32) 
0

>  <s_epik_input>  (32) 
W0NIMl09QzFOPVtDSF1bQ0hdPVtDSF1DXDE9Ti9jMmMoW0NIM10pbihbQ0gzXSluKGMyPU8pLWMzW2NIXVtjSF1uW2NIXVtjSF0z

>  <s_epik_cmdline>  (32) 
J2VwaWtfcHl0aG9uJywgJy1waHQnLCAnMi4wJywgJy1waCcsICc3LjAnLCAnLXRuJywgJzgnLCAnLW1hJywgJzIwMCcsICctaW1hZScsICc8aW5maWxlLm1hZT4nLCAnLW9tYWUnLCAnPG91dGZpbGUubWFlPic=

>  <r_lp_tautomer_probability>  (32) 
1

>  <r_epik_Ionization_Penalty>  (32) 
2.93811e-05

>  <r_epik_Ionization_Penalty_Charging>  (32) 
1.33103e-07

>  <r_epik_Ionization_Penalty_Neutral>  (32) 
2.9248e-05

>  <r_epik_State_Penalty>  (32) 
-0

>  <r_epik_Charging_Adjusted_Penalty>  (32) 
1.33103e-07

>  <i_epik_Tot_Q>  (32) 
0

>  <i_epik_Tot_abs_Q>  (32) 
0

>  <s_epik_Chemistry_Notes>  (32) 
This compound has an imine and may undergo hydrolysis.

>  <s_lp_Force_Field>  (32) 
OPLS3e

>  <r_lp_Energy>  (32) 
65.8656

>  <b_lp_Chiralities_Consistent>  (32) 
1

>  <s_lp_Variant>  (32) 
8:0-2

>  <s_i_glide_gridfile>  (32) 
pfpi4k_grid

>  <i_i_glide_lignum>  (32) 
11

>  <i_i_glide_rotatable_bonds>  (32) 
2

>  <r_i_docking_score>  (32) 
-3.42008

>  <r_i_glide_ligand_efficiency>  (32) 
-0.155458

>  <r_i_glide_ligand_efficiency_sa>  (32) 
-0.4356

>  <r_i_glide_ligand_efficiency_ln>  (32) 
-0.835992

>  <r_i_glide_gscore>  (32) 
-3.42008

>  <r_i_glide_lipo>  (32) 
-0.216515

>  <r_i_glide_hbond>  (32) 
-0.0406809

>  <r_i_glide_metal>  (32) 
-0

>  <r_i_glide_rewards>  (32) 
-1.71975

>  <r_i_glide_evdw>  (32) 
-28.8959

>  <r_i_glide_ecoul>  (32) 
-2.65214

>  <r_i_glide_erotb>  (32) 
0.424717

>  <r_i_glide_esite>  (32) 
-0.0252334

>  <r_i_glide_emodel>  (32) 
-37.18

>  <r_i_glide_energy>  (32) 
-31.5481

>  <r_i_glide_einternal>  (32) 
2.80625

>  <r_i_glide_intrahb_reward>  (32) 
-0

>  <i_i_glide_confnum>  (32) 
5

>  <i_i_glide_posenum>  (32) 
31

>  <r_i_glide_eff_state_penalty>  (32) 
0

>  <ligand_id>  (32) 
8

>  <original_smiles>  (32) 
C=C1N=CC=CC1=Nc1c(C)n(C)n(-c2ccncc2)c1=O

>  <smiles>  (32) 
[H]C1=NC(=C([H])[H])C(=Nc2c(C([H])([H])[H])n(C([H])([H])[H])n(-c3c([H])c([H])nc([H])c3[H])c2=O)C([H])=C1[H]

$$$$
9:0:0
     RDKit          3D

 49 53  0  0  1  0  0  0  0  0999 V2000
    3.8753    0.1043    1.9048 C   0  0  0  0  0  0  0  0  0  0  0  0
    3.4432   -1.3031    1.4497 C   0  0  2  0  0  0  0  0  0  0  0  0
    1.9848   -1.6126    1.8606 C   0  0  0  0  0  0  0  0  0  0  0  0
    1.7288   -2.2185    3.2566 C   0  0  0  0  0  0  0  0  0  0  0  0
    2.4558   -3.5484    3.5751 C   0  0  2  0  0  0  0  0  0  0  0  0
    3.7016   -3.4199    4.4398 C   0  0  2  0  0  0  0  0  0  0  0  0
    3.7696   -2.9340    5.8952 C   0  0  0  0  0  0  0  0  0  0  0  0
    5.1785   -2.4197    5.5345 C   0  0  0  0  0  0  0  0  0  0  0  0
    4.6295   -2.2627    4.1110 C   0  0  1  0  0  0  0  0  0  0  0  0
    5.4103   -2.3972    2.8118 C   0  0  0  0  0  0  0  0  0  0  0  0
    4.4998   -2.4774    1.5366 C   0  0  2  0  0  0  0  0  0  0  0  0
    5.7338   -2.3344    0.0846 S   0  0  0  0  0  0  0  0  0  0  0  0
    6.4208   -1.0375    0.1835 O   0  0  0  0  0  0  0  0  0  0  0  0
    6.5799   -3.5403    0.0561 O   0  0  0  0  0  0  0  0  0  0  0  0
    4.8103   -2.2777   -1.4663 C   0  0  0  0  0  0  0  0  0  0  0  0
    4.2598   -1.0530   -1.8977 C   0  0  0  0  0  0  0  0  0  0  0  0
    3.4931   -0.9890   -3.0735 C   0  0  0  0  0  0  0  0  0  0  0  0
    3.2937   -2.1525   -3.8412 C   0  0  0  0  0  0  0  0  0  0  0  0
    3.8778   -3.3694   -3.4352 C   0  0  0  0  0  0  0  0  0  0  0  0
    4.6333   -3.4370   -2.2501 C   0  0  0  0  0  0  0  0  0  0  0  0
    3.7668   -3.8475    1.4755 C   0  0  0  0  0  0  0  0  0  0  0  0
    3.9748   -4.7089    0.4648 N   0  0  0  0  0  0  0  0  0  0  0  0
    3.0872   -5.7517    0.7836 C   0  0  0  0  0  0  0  0  0  0  0  0
    2.3770   -5.5044    1.9449 C   0  0  0  0  0  0  0  0  0  0  0  0
    2.8304   -4.2753    2.3715 N   0  0  0  0  0  0  0  0  0  0  0  0
    3.4848    0.3508    2.8923 H   0  0  0  0  0  0  0  0  0  0  0  0
    3.4838    0.8651    1.2266 H   0  0  0  0  0  0  0  0  0  0  0  0
    4.9568    0.2205    1.9201 H   0  0  0  0  0  0  0  0  0  0  0  0
    3.2775   -1.1698    0.3913 H   0  0  0  0  0  0  0  0  0  0  0  0
    1.4003   -0.6957    1.7697 H   0  0  0  0  0  0  0  0  0  0  0  0
    1.5493   -2.2627    1.1033 H   0  0  0  0  0  0  0  0  0  0  0  0
    1.8976   -1.4758    4.0360 H   0  0  0  0  0  0  0  0  0  0  0  0
    0.6587   -2.4208    3.3002 H   0  0  0  0  0  0  0  0  0  0  0  0
    1.7493   -4.1787    4.1132 H   0  0  0  0  0  0  0  0  0  0  0  0
    4.2641   -4.3587    4.4065 H   0  0  0  0  0  0  0  0  0  0  0  0
    3.0548   -2.1407    6.1291 H   0  0  0  0  0  0  0  0  0  0  0  0
    3.7597   -3.7279    6.6409 H   0  0  0  0  0  0  0  0  0  0  0  0
    5.4555   -1.4836    6.0173 H   0  0  0  0  0  0  0  0  0  0  0  0
    5.9607   -3.1782    5.6187 H   0  0  0  0  0  0  0  0  0  0  0  0
    4.0835   -1.3217    4.1257 H   0  0  0  0  0  0  0  0  0  0  0  0
    6.0955   -1.5520    2.7330 H   0  0  0  0  0  0  0  0  0  0  0  0
    6.0475   -3.2820    2.8417 H   0  0  0  0  0  0  0  0  0  0  0  0
    4.4027   -0.1624   -1.3052 H   0  0  0  0  0  0  0  0  0  0  0  0
    3.0291   -0.0580   -3.3703 H   0  0  0  0  0  0  0  0  0  0  0  0
    2.6730   -2.1122   -4.7201 H   0  0  0  0  0  0  0  0  0  0  0  0
    3.7157   -4.2644   -4.0152 H   0  0  0  0  0  0  0  0  0  0  0  0
    5.0546   -4.3794   -1.9325 H   0  0  0  0  0  0  0  0  0  0  0  0
    3.0438   -6.6095    0.1328 H   0  0  0  0  0  0  0  0  0  0  0  0
    1.6440   -6.0921    2.4725 H   0  0  0  0  0  0  0  0  0  0  0  0
  1  2  1  0
  1 26  1  0
  1 27  1  0
  1 28  1  0
  2 11  1  0
  2  3  1  0
  2 29  1  6
  3  4  1  0
  3 30  1  0
  3 31  1  0
  4  5  1  0
  4 32  1  0
  4 33  1  0
  5 25  1  0
  5  6  1  0
  5 34  1  1
  6  9  1  0
  6  7  1  0
  6 35  1  1
  7  8  1  0
  7 36  1  0
  7 37  1  0
  8  9  1  0
  8 38  1  0
  8 39  1  0
  9 10  1  0
  9 40  1  1
 10 11  1  0
 10 41  1  0
 10 42  1  0
 11 12  1  6
 11 21  1  0
 12 13  2  0
 12 14  2  0
 12 15  1  0
 15 20  1  0
 15 16  2  0
 16 17  1  0
 16 43  1  0
 17 18  2  0
 17 44  1  0
 18 19  1  0
 18 45  1  0
 19 20  2  0
 19 46  1  0
 20 47  1  0
 21 25  1  0
 21 22  2  0
 22 23  1  0
 23 24  2  0
 23 48  1  0
 24 25  1  0
 24 49  1  0
M  END
>  <i_m_ct_stereo_status>  (33) 
1

>  <s_m_source_file>  (33) 
/var/tmp/pbs.5076255.sched01/tmpu5rzjxe4/0gixxd53k.sdf

>  <i_m_source_file_index>  (33) 
12

>  <i_lp_mmshare_version>  (33) 
48012

>  <i_f3d_flags>  (33) 
0

>  <s_epik_input>  (33) 
W0NIM11bQ0BASF0xW0NIMl1bQ0gyXVtDQEhdKFtDQEhdMltDQEhdKFtDSDJdMylbQ0gyXVtDSDJdMiluKFtjSF1bY0hdbjQpYzRbQ0BAXTEzUyg9TykoPU8pYzVbY0hdW2NIXVtjSF1bY0hdW2NIXTU=

>  <s_epik_cmdline>  (33) 
J2VwaWtfcHl0aG9uJywgJy1waHQnLCAnMi4wJywgJy1waCcsICc3LjAnLCAnLXRuJywgJzgnLCAnLW1hJywgJzIwMCcsICctaW1hZScsICc8aW5maWxlLm1hZT4nLCAnLW9tYWUnLCAnPG91dGZpbGUubWFlPic=

>  <r_lp_tautomer_probability>  (33) 
1

>  <r_epik_Ionization_Penalty>  (33) 
0.0626104

>  <r_epik_Ionization_Penalty_Charging>  (33) 
0.0626104

>  <r_epik_Ionization_Penalty_Neutral>  (33) 
1.86813e-14

>  <r_epik_State_Penalty>  (33) 
0.0544223

>  <r_epik_Charging_Adjusted_Penalty>  (33) 
0.117033

>  <i_epik_Tot_Q>  (33) 
0

>  <i_epik_Tot_abs_Q>  (33) 
0

>  <s_lp_Force_Field>  (33) 
OPLS3e

>  <r_lp_Energy>  (33) 
56.4701

>  <b_lp_Chiralities_Consistent>  (33) 
1

>  <s_lp_Variant>  (33) 
9:0-1

>  <s_i_glide_gridfile>  (33) 
pfpi4k_grid

>  <i_i_glide_lignum>  (33) 
12

>  <i_i_glide_rotatable_bonds>  (33) 
2

>  <r_i_docking_score>  (33) 
-2.93096

>  <r_i_glide_ligand_efficiency>  (33) 
-0.117238

>  <r_i_glide_ligand_efficiency_sa>  (33) 
-0.342807

>  <r_i_glide_ligand_efficiency_ln>  (33) 
-0.694725

>  <r_i_glide_gscore>  (33) 
-2.93096

>  <r_i_glide_lipo>  (33) 
-0.491463

>  <r_i_glide_hbond>  (33) 
0

>  <r_i_glide_metal>  (33) 
-0

>  <r_i_glide_rewards>  (33) 
-1.00709

>  <r_i_glide_evdw>  (33) 
-28.4355

>  <r_i_glide_ecoul>  (33) 
-1.9782

>  <r_i_glide_erotb>  (33) 
0.301116

>  <r_i_glide_esite>  (33) 
-0.015023

>  <r_i_glide_emodel>  (33) 
-35.2876

>  <r_i_glide_energy>  (33) 
-30.4137

>  <r_i_glide_einternal>  (33) 
1.95859

>  <r_i_glide_intrahb_reward>  (33) 
-0

>  <i_i_glide_confnum>  (33) 
6

>  <i_i_glide_posenum>  (33) 
31

>  <r_i_glide_eff_state_penalty>  (33) 
0

>  <ligand_id>  (33) 
9

>  <original_smiles>  (33) 
CC1CCC2C3CCC3CC1(S(=O)(=O)c1ccccc1)c1nccn12

>  <smiles>  (33) 
[H]c1nc2n(c1[H])C1([H])C([H])([H])C([H])([H])C([H])(C([H])([H])[H])C2(S(=O)(=O)c2c([H])c([H])c([H])c([H])c2[H])C([H])([H])C2([H])C([H])([H])C([H])([H])C12[H]

$$$$
9:0:1
     RDKit          3D

 49 53  0  0  1  0  0  0  0  0999 V2000
    5.8024   -0.9297    1.7265 C   0  0  0  0  0  0  0  0  0  0  0  0
    5.3336   -2.3918    1.8853 C   0  0  2  0  0  0  0  0  0  0  0  0
    6.3952   -3.3970    1.3500 C   0  0  0  0  0  0  0  0  0  0  0  0
    6.3865   -3.7459   -0.1545 C   0  0  0  0  0  0  0  0  0  0  0  0
    5.0742   -4.3453   -0.7139 C   0  0  2  0  0  0  0  0  0  0  0  0
    4.1978   -3.3859   -1.4976 C   0  0  2  0  0  0  0  0  0  0  0  0
    4.5366   -2.6766   -2.8187 C   0  0  0  0  0  0  0  0  0  0  0  0
    3.6312   -1.5387   -2.3031 C   0  0  0  0  0  0  0  0  0  0  0  0
    4.0604   -2.0032   -0.9067 C   0  0  1  0  0  0  0  0  0  0  0  0
    3.2415   -1.9218    0.3556 C   0  0  0  0  0  0  0  0  0  0  0  0
    3.8175   -2.7119    1.5748 C   0  0  2  0  0  0  0  0  0  0  0  0
    2.7439   -2.2115    3.0782 S   0  0  0  0  0  0  0  0  0  0  0  0
    1.3874   -2.7536    2.9109 O   0  0  0  0  0  0  0  0  0  0  0  0
    3.4796   -2.5298    4.3141 O   0  0  0  0  0  0  0  0  0  0  0  0
    2.5133   -0.4234    3.0680 C   0  0  0  0  0  0  0  0  0  0  0  0
    3.2178    0.3929    3.9771 C   0  0  0  0  0  0  0  0  0  0  0  0
    3.0142    1.7879    3.9548 C   0  0  0  0  0  0  0  0  0  0  0  0
    2.1281    2.3626    3.0261 C   0  0  0  0  0  0  0  0  0  0  0  0
    1.4143    1.5465    2.1291 C   0  0  0  0  0  0  0  0  0  0  0  0
    1.5896    0.1511    2.1680 C   0  0  0  0  0  0  0  0  0  0  0  0
    3.6533   -4.2440    1.3404 C   0  0  0  0  0  0  0  0  0  0  0  0
    2.9292   -5.0198    2.1727 N   0  0  0  0  0  0  0  0  0  0  0  0
    3.1014   -6.2955    1.5996 C   0  0  0  0  0  0  0  0  0  0  0  0
    3.9164   -6.2663    0.4817 C   0  0  0  0  0  0  0  0  0  0  0  0
    4.2565   -4.9436    0.3309 N   0  0  0  0  0  0  0  0  0  0  0  0
    6.3437   -0.7725    0.7941 H   0  0  0  0  0  0  0  0  0  0  0  0
    6.4978   -0.6631    2.5246 H   0  0  0  0  0  0  0  0  0  0  0  0
    4.9871   -0.2109    1.7702 H   0  0  0  0  0  0  0  0  0  0  0  0
    5.4368   -2.5615    2.9538 H   0  0  0  0  0  0  0  0  0  0  0  0
    7.3878   -3.0122    1.5818 H   0  0  0  0  0  0  0  0  0  0  0  0
    6.3346   -4.3224    1.9283 H   0  0  0  0  0  0  0  0  0  0  0  0
    6.7330   -2.9079   -0.7587 H   0  0  0  0  0  0  0  0  0  0  0  0
    7.1620   -4.4993   -0.2847 H   0  0  0  0  0  0  0  0  0  0  0  0
    5.3459   -5.1469   -1.3952 H   0  0  0  0  0  0  0  0  0  0  0  0
    3.2040   -3.8276   -1.6295 H   0  0  0  0  0  0  0  0  0  0  0  0
    5.5892   -2.3985   -2.9082 H   0  0  0  0  0  0  0  0  0  0  0  0
    4.1601   -3.1816   -3.7072 H   0  0  0  0  0  0  0  0  0  0  0  0
    3.9574   -0.5325   -2.5651 H   0  0  0  0  0  0  0  0  0  0  0  0
    2.5667   -1.6911   -2.4991 H   0  0  0  0  0  0  0  0  0  0  0  0
    5.0313   -1.5427   -0.7441 H   0  0  0  0  0  0  0  0  0  0  0  0
    3.1800   -0.8638    0.5630 H   0  0  0  0  0  0  0  0  0  0  0  0
    2.2226   -2.2634    0.1740 H   0  0  0  0  0  0  0  0  0  0  0  0
    3.8983   -0.0463    4.6896 H   0  0  0  0  0  0  0  0  0  0  0  0
    3.5513    2.4155    4.6494 H   0  0  0  0  0  0  0  0  0  0  0  0
    1.9925    3.4332    2.9904 H   0  0  0  0  0  0  0  0  0  0  0  0
    0.7423    1.9869    1.4065 H   0  0  0  0  0  0  0  0  0  0  0  0
    1.0366   -0.4717    1.4793 H   0  0  0  0  0  0  0  0  0  0  0  0
    2.6129   -7.1480    2.0512 H   0  0  0  0  0  0  0  0  0  0  0  0
    4.2461   -7.0495   -0.1843 H   0  0  0  0  0  0  0  0  0  0  0  0
  1  2  1  0
  1 26  1  0
  1 27  1  0
  1 28  1  0
  2 11  1  0
  2  3  1  0
  2 29  1  1
  3  4  1  0
  3 30  1  0
  3 31  1  0
  4  5  1  0
  4 32  1  0
  4 33  1  0
  5 25  1  0
  5  6  1  0
  5 34  1  6
  6  9  1  0
  6  7  1  0
  6 35  1  6
  7  8  1  0
  7 36  1  0
  7 37  1  0
  8  9  1  0
  8 38  1  0
  8 39  1  0
  9 10  1  0
  9 40  1  1
 10 11  1  0
 10 41  1  0
 10 42  1  0
 11 12  1  1
 11 21  1  0
 12 13  2  0
 12 14  2  0
 12 15  1  0
 15 20  1  0
 15 16  2  0
 16 17  1  0
 16 43  1  0
 17 18  2  0
 17 44  1  0
 18 19  1  0
 18 45  1  0
 19 20  2  0
 19 46  1  0
 20 47  1  0
 21 25  1  0
 21 22  2  0
 22 23  1  0
 23 24  2  0
 23 48  1  0
 24 25  1  0
 24 49  1  0
M  END
>  <i_m_ct_stereo_status>  (34) 
1

>  <s_m_source_file>  (34) 
/var/tmp/pbs.5076255.sched01/tmpu5rzjxe4/0gixxd53k.sdf

>  <i_m_source_file_index>  (34) 
12

>  <i_lp_mmshare_version>  (34) 
48012

>  <i_f3d_flags>  (34) 
0

>  <s_epik_input>  (34) 
W0NIM11bQ0BASF0xW0NIMl1bQ0gyXVtDQEhdKFtDQEhdMltDQEhdKFtDSDJdMylbQ0gyXVtDSDJdMiluKFtjSF1bY0hdbjQpYzRbQ0BAXTEzUyg9TykoPU8pYzVbY0hdW2NIXVtjSF1bY0hdW2NIXTU=

>  <s_epik_cmdline>  (34) 
J2VwaWtfcHl0aG9uJywgJy1waHQnLCAnMi4wJywgJy1waCcsICc3LjAnLCAnLXRuJywgJzgnLCAnLW1hJywgJzIwMCcsICctaW1hZScsICc8aW5maWxlLm1hZT4nLCAnLW9tYWUnLCAnPG91dGZpbGUubWFlPic=

>  <r_lp_tautomer_probability>  (34) 
1

>  <r_epik_Ionization_Penalty>  (34) 
0.0626104

>  <r_epik_Ionization_Penalty_Charging>  (34) 
0.0626104

>  <r_epik_Ionization_Penalty_Neutral>  (34) 
1.86813e-14

>  <r_epik_State_Penalty>  (34) 
0.0544223

>  <r_epik_Charging_Adjusted_Penalty>  (34) 
0.117033

>  <i_epik_Tot_Q>  (34) 
0

>  <i_epik_Tot_abs_Q>  (34) 
0

>  <s_lp_Force_Field>  (34) 
OPLS3e

>  <r_lp_Energy>  (34) 
56.4701

>  <b_lp_Chiralities_Consistent>  (34) 
1

>  <s_lp_Variant>  (34) 
9:0-1

>  <s_i_glide_gridfile>  (34) 
pfpi4k_grid

>  <i_i_glide_lignum>  (34) 
12

>  <i_i_glide_rotatable_bonds>  (34) 
2

>  <r_i_docking_score>  (34) 
-2.6809

>  <r_i_glide_ligand_efficiency>  (34) 
-0.107236

>  <r_i_glide_ligand_efficiency_sa>  (34) 
-0.31356

>  <r_i_glide_ligand_efficiency_ln>  (34) 
-0.635454

>  <r_i_glide_gscore>  (34) 
-2.6809

>  <r_i_glide_lipo>  (34) 
-0.611573

>  <r_i_glide_hbond>  (34) 
0

>  <r_i_glide_metal>  (34) 
-0

>  <r_i_glide_rewards>  (34) 
-1.03772

>  <r_i_glide_evdw>  (34) 
-28.1029

>  <r_i_glide_ecoul>  (34) 
0.493276

>  <r_i_glide_erotb>  (34) 
0.301116

>  <r_i_glide_esite>  (34) 
-0.00156969

>  <r_i_glide_emodel>  (34) 
-31.5428

>  <r_i_glide_energy>  (34) 
-27.6096

>  <r_i_glide_einternal>  (34) 
1.92237

>  <r_i_glide_intrahb_reward>  (34) 
-0

>  <i_i_glide_confnum>  (34) 
1

>  <i_i_glide_posenum>  (34) 
38

>  <r_i_glide_eff_state_penalty>  (34) 
0

>  <ligand_id>  (34) 
9

>  <original_smiles>  (34) 
CC1CCC2C3CCC3CC1(S(=O)(=O)c1ccccc1)c1nccn12

>  <smiles>  (34) 
[H]c1nc2n(c1[H])C1([H])C([H])([H])C([H])([H])C([H])(C([H])([H])[H])C2(S(=O)(=O)c2c([H])c([H])c([H])c([H])c2[H])C([H])([H])C2([H])C([H])([H])C([H])([H])C12[H]

$$$$
9:0:2
     RDKit          3D

 49 53  0  0  1  0  0  0  0  0999 V2000
    6.6294   -1.1091    1.0564 C   0  0  0  0  0  0  0  0  0  0  0  0
    5.7227   -2.2345    1.5936 C   0  0  2  0  0  0  0  0  0  0  0  0
    6.2016   -3.6172    1.0674 C   0  0  0  0  0  0  0  0  0  0  0  0
    5.6994   -4.0576   -0.3241 C   0  0  0  0  0  0  0  0  0  0  0  0
    4.1707   -4.1239   -0.5191 C   0  0  2  0  0  0  0  0  0  0  0  0
    3.5529   -2.9625   -1.2836 C   0  0  2  0  0  0  0  0  0  0  0  0
    3.7983   -2.5824   -2.7555 C   0  0  0  0  0  0  0  0  0  0  0  0
    3.5480   -1.1298   -2.3045 C   0  0  0  0  0  0  0  0  0  0  0  0
    4.0933   -1.5846   -0.9404 C   0  0  1  0  0  0  0  0  0  0  0  0
    3.6956   -1.0583    0.4297 C   0  0  0  0  0  0  0  0  0  0  0  0
    4.1704   -1.9466    1.6320 C   0  0  2  0  0  0  0  0  0  0  0  0
    3.8546   -0.9158    3.2039 S   0  0  0  0  0  0  0  0  0  0  0  0
    3.8873   -1.7714    4.4041 O   0  0  0  0  0  0  0  0  0  0  0  0
    4.7952    0.2128    3.1815 O   0  0  0  0  0  0  0  0  0  0  0  0
    2.1883   -0.2161    3.0669 C   0  0  0  0  0  0  0  0  0  0  0  0
    1.9683    0.9305    2.2715 C   0  0  0  0  0  0  0  0  0  0  0  0
    0.6747    1.4756    2.1521 C   0  0  0  0  0  0  0  0  0  0  0  0
   -0.4049    0.8987    2.8441 C   0  0  0  0  0  0  0  0  0  0  0  0
   -0.1891   -0.2314    3.6560 C   0  0  0  0  0  0  0  0  0  0  0  0
    1.0992   -0.8016    3.7516 C   0  0  0  0  0  0  0  0  0  0  0  0
    3.3898   -3.2843    1.6934 C   0  0  0  0  0  0  0  0  0  0  0  0
    2.6108   -3.6073    2.7453 N   0  0  0  0  0  0  0  0  0  0  0  0
    2.2104   -4.9150    2.4117 C   0  0  0  0  0  0  0  0  0  0  0  0
    2.6916   -5.3230    1.1794 C   0  0  0  0  0  0  0  0  0  0  0  0
    3.4505   -4.2619    0.7386 N   0  0  0  0  0  0  0  0  0  0  0  0
    6.9661   -1.2741    0.0349 H   0  0  0  0  0  0  0  0  0  0  0  0
    7.5376   -1.0600    1.6513 H   0  0  0  0  0  0  0  0  0  0  0  0
    6.1796   -0.1219    1.1249 H   0  0  0  0  0  0  0  0  0  0  0  0
    5.9950   -2.2966    2.6477 H   0  0  0  0  0  0  0  0  0  0  0  0
    7.2941   -3.6261    1.0387 H   0  0  0  0  0  0  0  0  0  0  0  0
    5.9430   -4.3889    1.7955 H   0  0  0  0  0  0  0  0  0  0  0  0
    6.1764   -3.4961   -1.1290 H   0  0  0  0  0  0  0  0  0  0  0  0
    6.0674   -5.0722   -0.4546 H   0  0  0  0  0  0  0  0  0  0  0  0
    3.9828   -5.0341   -1.0850 H   0  0  0  0  0  0  0  0  0  0  0  0
    2.4642   -2.9728   -1.1539 H   0  0  0  0  0  0  0  0  0  0  0  0
    4.8193   -2.7699   -3.0960 H   0  0  0  0  0  0  0  0  0  0  0  0
    3.0458   -2.9692   -3.4432 H   0  0  0  0  0  0  0  0  0  0  0  0
    4.1586   -0.3768   -2.8019 H   0  0  0  0  0  0  0  0  0  0  0  0
    2.4901   -0.8587   -2.3058 H   0  0  0  0  0  0  0  0  0  0  0  0
    5.1735   -1.5627   -1.0607 H   0  0  0  0  0  0  0  0  0  0  0  0
    4.0715   -0.0397    0.5282 H   0  0  0  0  0  0  0  0  0  0  0  0
    2.6115   -0.9776    0.4772 H   0  0  0  0  0  0  0  0  0  0  0  0
    2.7861    1.4026    1.7531 H   0  0  0  0  0  0  0  0  0  0  0  0
    0.5138    2.3427    1.5345 H   0  0  0  0  0  0  0  0  0  0  0  0
   -1.3948    1.3195    2.7383 H   0  0  0  0  0  0  0  0  0  0  0  0
   -1.0195   -0.6749    4.1840 H   0  0  0  0  0  0  0  0  0  0  0  0
    1.2562   -1.6742    4.3628 H   0  0  0  0  0  0  0  0  0  0  0  0
    1.5829   -5.4535    3.1094 H   0  0  0  0  0  0  0  0  0  0  0  0
    2.5557   -6.2387    0.6207 H   0  0  0  0  0  0  0  0  0  0  0  0
  1  2  1  0
  1 26  1  0
  1 27  1  0
  1 28  1  0
  2 11  1  0
  2  3  1  0
  2 29  1  1
  3  4  1  0
  3 30  1  0
  3 31  1  0
  4  5  1  0
  4 32  1  0
  4 33  1  0
  5 25  1  0
  5  6  1  0
  5 34  1  6
  6  9  1  0
  6  7  1  0
  6 35  1  6
  7  8  1  0
  7 36  1  0
  7 37  1  0
  8  9  1  0
  8 38  1  0
  8 39  1  0
  9 10  1  0
  9 40  1  6
 10 11  1  0
 10 41  1  0
 10 42  1  0
 11 12  1  1
 11 21  1  0
 12 13  2  0
 12 14  2  0
 12 15  1  0
 15 20  1  0
 15 16  2  0
 16 17  1  0
 16 43  1  0
 17 18  2  0
 17 44  1  0
 18 19  1  0
 18 45  1  0
 19 20  2  0
 19 46  1  0
 20 47  1  0
 21 25  1  0
 21 22  2  0
 22 23  1  0
 23 24  2  0
 23 48  1  0
 24 25  1  0
 24 49  1  0
M  END
>  <i_m_ct_stereo_status>  (35) 
1

>  <s_m_source_file>  (35) 
/var/tmp/pbs.5076255.sched01/tmpu5rzjxe4/0gixxd53k.sdf

>  <i_m_source_file_index>  (35) 
12

>  <i_lp_mmshare_version>  (35) 
48012

>  <i_f3d_flags>  (35) 
0

>  <s_epik_input>  (35) 
W0NIM11bQ0BASF0xW0NIMl1bQ0gyXVtDQEhdKFtDQEhdMltDQEhdKFtDSDJdMylbQ0gyXVtDSDJdMiluKFtjSF1bY0hdbjQpYzRbQ0BAXTEzUyg9TykoPU8pYzVbY0hdW2NIXVtjSF1bY0hdW2NIXTU=

>  <s_epik_cmdline>  (35) 
J2VwaWtfcHl0aG9uJywgJy1waHQnLCAnMi4wJywgJy1waCcsICc3LjAnLCAnLXRuJywgJzgnLCAnLW1hJywgJzIwMCcsICctaW1hZScsICc8aW5maWxlLm1hZT4nLCAnLW9tYWUnLCAnPG91dGZpbGUubWFlPic=

>  <r_lp_tautomer_probability>  (35) 
1

>  <r_epik_Ionization_Penalty>  (35) 
0.0626104

>  <r_epik_Ionization_Penalty_Charging>  (35) 
0.0626104

>  <r_epik_Ionization_Penalty_Neutral>  (35) 
1.86813e-14

>  <r_epik_State_Penalty>  (35) 
0.0544223

>  <r_epik_Charging_Adjusted_Penalty>  (35) 
0.117033

>  <i_epik_Tot_Q>  (35) 
0

>  <i_epik_Tot_abs_Q>  (35) 
0

>  <s_lp_Force_Field>  (35) 
OPLS3e

>  <r_lp_Energy>  (35) 
56.4701

>  <b_lp_Chiralities_Consistent>  (35) 
1

>  <s_lp_Variant>  (35) 
9:0-1

>  <s_i_glide_gridfile>  (35) 
pfpi4k_grid

>  <i_i_glide_lignum>  (35) 
12

>  <i_i_glide_rotatable_bonds>  (35) 
2

>  <r_i_docking_score>  (35) 
-2.52912

>  <r_i_glide_ligand_efficiency>  (35) 
-0.101165

>  <r_i_glide_ligand_efficiency_sa>  (35) 
-0.295808

>  <r_i_glide_ligand_efficiency_ln>  (35) 
-0.599477

>  <r_i_glide_gscore>  (35) 
-2.52912

>  <r_i_glide_lipo>  (35) 
-0.280714

>  <r_i_glide_hbond>  (35) 
0

>  <r_i_glide_metal>  (35) 
-0

>  <r_i_glide_rewards>  (35) 
-0.994307

>  <r_i_glide_evdw>  (35) 
-26.7455

>  <r_i_glide_ecoul>  (35) 
-1.43349

>  <r_i_glide_erotb>  (35) 
0.301116

>  <r_i_glide_esite>  (35) 
-0.00291513

>  <r_i_glide_emodel>  (35) 
-32.0427

>  <r_i_glide_energy>  (35) 
-28.179

>  <r_i_glide_einternal>  (35) 
2.03061

>  <r_i_glide_intrahb_reward>  (35) 
-0

>  <i_i_glide_confnum>  (35) 
1

>  <i_i_glide_posenum>  (35) 
15

>  <r_i_glide_eff_state_penalty>  (35) 
0

>  <ligand_id>  (35) 
9

>  <original_smiles>  (35) 
CC1CCC2C3CCC3CC1(S(=O)(=O)c1ccccc1)c1nccn12

>  <smiles>  (35) 
[H]c1nc2n(c1[H])C1([H])C([H])([H])C([H])([H])C([H])(C([H])([H])[H])C2(S(=O)(=O)c2c([H])c([H])c([H])c([H])c2[H])C([H])([H])C2([H])C([H])([H])C([H])([H])C12[H]

$$$$
9:1:0
     RDKit          3D

 50 54  0  0  1  0  0  0  0  0999 V2000
    6.8892   -1.0711    0.8508 C   0  0  0  0  0  0  0  0  0  0  0  0
    5.9187   -2.1669    1.3390 C   0  0  2  0  0  0  0  0  0  0  0  0
    6.2976   -3.5342    0.7103 C   0  0  0  0  0  0  0  0  0  0  0  0
    5.7477   -3.8329   -0.6965 C   0  0  0  0  0  0  0  0  0  0  0  0
    4.2186   -3.8036   -0.8846 C   0  0  2  0  0  0  0  0  0  0  0  0
    3.6864   -2.5507   -1.5581 C   0  0  2  0  0  0  0  0  0  0  0  0
    3.9453   -2.0988   -3.0012 C   0  0  0  0  0  0  0  0  0  0  0  0
    3.8009   -0.6743   -2.4510 C   0  0  0  0  0  0  0  0  0  0  0  0
    4.3189   -1.2455   -1.1241 C   0  0  1  0  0  0  0  0  0  0  0  0
    3.9560   -0.7862    0.2856 C   0  0  0  0  0  0  0  0  0  0  0  0
    4.3810   -1.7902    1.4110 C   0  0  2  0  0  0  0  0  0  0  0  0
    4.1183   -0.8943    3.0581 S   0  0  0  0  0  0  0  0  0  0  0  0
    3.9639   -1.8937    4.1285 O   0  0  0  0  0  0  0  0  0  0  0  0
    5.1734    0.1171    3.2019 O   0  0  0  0  0  0  0  0  0  0  0  0
    2.5342   -0.0308    2.9509 C   0  0  0  0  0  0  0  0  0  0  0  0
    2.4691    1.2603    2.3867 C   0  0  0  0  0  0  0  0  0  0  0  0
    1.2324    1.9325    2.2991 C   0  0  0  0  0  0  0  0  0  0  0  0
    0.0506    1.3214    2.7607 C   0  0  0  0  0  0  0  0  0  0  0  0
    0.1138    0.0377    3.3341 C   0  0  0  0  0  0  0  0  0  0  0  0
    1.3497   -0.6415    3.4210 C   0  0  0  0  0  0  0  0  0  0  0  0
    3.5321   -3.0823    1.3726 C   0  0  0  0  0  0  0  0  0  0  0  0
    2.7879   -3.5314    2.3492 N   0  0  0  0  0  0  0  0  0  0  0  0
    2.2270   -4.7504    2.0287 C   0  0  0  0  0  0  0  0  0  0  0  0
    2.6908   -5.0366    0.7378 C   0  0  0  0  0  0  0  0  0  0  0  0
    3.5006   -3.9862    0.3575 N   0  0  0  0  0  0  0  0  0  0  0  0
    7.1870   -1.1905   -0.1875 H   0  0  0  0  0  0  0  0  0  0  0  0
    7.8225   -1.0506    1.4038 H   0  0  0  0  0  0  0  0  0  0  0  0
    6.4590   -0.0936    0.9881 H   0  0  0  0  0  0  0  0  0  0  0  0
    6.1962   -2.3251    2.3853 H   0  0  0  0  0  0  0  0  0  0  0  0
    7.3880   -3.6052    0.6549 H   0  0  0  0  0  0  0  0  0  0  0  0
    6.0111   -4.3466    1.3854 H   0  0  0  0  0  0  0  0  0  0  0  0
    6.2684   -3.2773   -1.4791 H   0  0  0  0  0  0  0  0  0  0  0  0
    6.0048   -4.8658   -0.8554 H   0  0  0  0  0  0  0  0  0  0  0  0
    3.9728   -4.6451   -1.5172 H   0  0  0  0  0  0  0  0  0  0  0  0
    2.6033   -2.4905   -1.4126 H   0  0  0  0  0  0  0  0  0  0  0  0
    4.9461   -2.3301   -3.3712 H   0  0  0  0  0  0  0  0  0  0  0  0
    3.1603   -2.3747   -3.7013 H   0  0  0  0  0  0  0  0  0  0  0  0
    4.4512    0.0689   -2.9027 H   0  0  0  0  0  0  0  0  0  0  0  0
    2.7598   -0.3488   -2.3928 H   0  0  0  0  0  0  0  0  0  0  0  0
    5.3967   -1.2857   -1.2585 H   0  0  0  0  0  0  0  0  0  0  0  0
    4.4143    0.1875    0.4608 H   0  0  0  0  0  0  0  0  0  0  0  0
    2.8823   -0.6147    0.3337 H   0  0  0  0  0  0  0  0  0  0  0  0
    3.3660    1.7438    2.0319 H   0  0  0  0  0  0  0  0  0  0  0  0
    1.1961    2.9273    1.8779 H   0  0  0  0  0  0  0  0  0  0  0  0
   -0.8949    1.8392    2.6816 H   0  0  0  0  0  0  0  0  0  0  0  0
   -0.7884   -0.4293    3.7075 H   0  0  0  0  0  0  0  0  0  0  0  0
    1.3819   -1.6183    3.8771 H   0  0  0  0  0  0  0  0  0  0  0  0
    1.5814   -5.3077    2.6894 H   0  0  0  0  0  0  0  0  0  0  0  0
    2.5205   -5.8789    0.0772 H   0  0  0  0  0  0  0  0  0  0  0  0
    2.7854   -3.0169    3.2238 H   0  0  0  0  0  0  0  0  0  0  0  0
  1  2  1  0
  1 26  1  0
  1 27  1  0
  1 28  1  0
  2 11  1  0
  2  3  1  0
  2 29  1  1
  3  4  1  0
  3 30  1  0
  3 31  1  0
  4  5  1  0
  4 32  1  0
  4 33  1  0
  5 25  1  0
  5  6  1  0
  5 34  1  6
  6  9  1  0
  6  7  1  0
  6 35  1  6
  7  8  1  0
  7 36  1  0
  7 37  1  0
  8  9  1  0
  8 38  1  0
  8 39  1  0
  9 10  1  0
  9 40  1  6
 10 11  1  0
 10 41  1  0
 10 42  1  0
 11 12  1  1
 11 21  1  0
 12 13  2  0
 12 14  2  0
 12 15  1  0
 15 20  1  0
 15 16  2  0
 16 17  1  0
 16 43  1  0
 17 18  2  0
 17 44  1  0
 18 19  1  0
 18 45  1  0
 19 20  2  0
 19 46  1  0
 20 47  1  0
 21 25  1  0
 21 22  2  0
 22 23  1  0
 22 50  1  0
 23 24  2  0
 23 48  1  0
 24 25  1  0
 24 49  1  0
M  CHG  1  22   1
M  END
>  <i_m_ct_stereo_status>  (36) 
1

>  <s_m_source_file>  (36) 
/var/tmp/pbs.5076255.sched01/tmpu5rzjxe4/0gixxd53k.sdf

>  <i_m_source_file_index>  (36) 
13

>  <i_lp_mmshare_version>  (36) 
48012

>  <i_f3d_flags>  (36) 
0

>  <s_epik_input>  (36) 
W0NIM11bQ0BASF0xW0NIMl1bQ0gyXVtDQEhdKFtDQEhdMltDQEhdKFtDSDJdMylbQ0gyXVtDSDJdMiluKFtjSF1bY0hdbjQpYzRbQ0BAXTEzUyg9TykoPU8pYzVbY0hdW2NIXVtjSF1bY0hdW2NIXTU=

>  <s_epik_cmdline>  (36) 
J2VwaWtfcHl0aG9uJywgJy1waHQnLCAnMi4wJywgJy1waCcsICc3LjAnLCAnLXRuJywgJzgnLCAnLW1hJywgJzIwMCcsICctaW1hZScsICc8aW5maWxlLm1hZT4nLCAnLW9tYWUnLCAnPG91dGZpbGUubWFlPic=

>  <r_lp_tautomer_probability>  (36) 
1

>  <r_epik_Ionization_Penalty>  (36) 
1.36258

>  <r_epik_Ionization_Penalty_Charging>  (36) 
0

>  <r_epik_Ionization_Penalty_Neutral>  (36) 
1.36258

>  <r_epik_State_Penalty>  (36) 
1.44159

>  <r_epik_Charging_Adjusted_Penalty>  (36) 
1.44159

>  <i_epik_Tot_Q>  (36) 
1

>  <i_epik_Tot_abs_Q>  (36) 
1

>  <s_lp_Force_Field>  (36) 
OPLS3e

>  <r_lp_Energy>  (36) 
56.472

>  <b_lp_Chiralities_Consistent>  (36) 
1

>  <s_lp_Variant>  (36) 
9:0-2

>  <s_i_glide_gridfile>  (36) 
pfpi4k_grid

>  <i_i_glide_lignum>  (36) 
13

>  <i_i_glide_rotatable_bonds>  (36) 
2

>  <r_i_docking_score>  (36) 
-3.5022

>  <r_i_glide_ligand_efficiency>  (36) 
-0.140088

>  <r_i_glide_ligand_efficiency_sa>  (36) 
-0.40962

>  <r_i_glide_ligand_efficiency_ln>  (36) 
-0.830127

>  <r_i_glide_gscore>  (36) 
-3.5022

>  <r_i_glide_lipo>  (36) 
-0.387764

>  <r_i_glide_hbond>  (36) 
0

>  <r_i_glide_metal>  (36) 
-0

>  <r_i_glide_rewards>  (36) 
-1.49769

>  <r_i_glide_evdw>  (36) 
-24.4207

>  <r_i_glide_ecoul>  (36) 
-4.58024

>  <r_i_glide_erotb>  (36) 
0.299605

>  <r_i_glide_esite>  (36) 
-0.00828394

>  <r_i_glide_emodel>  (36) 
-39.6912

>  <r_i_glide_energy>  (36) 
-29.0009

>  <r_i_glide_einternal>  (36) 
2.17855

>  <r_i_glide_intrahb_reward>  (36) 
-0.5

>  <i_i_glide_confnum>  (36) 
1

>  <i_i_glide_posenum>  (36) 
2

>  <r_i_glide_eff_state_penalty>  (36) 
0

>  <ligand_id>  (36) 
9

>  <original_smiles>  (36) 
CC1CCC2C3CCC3CC1(S(=O)(=O)c1ccccc1)c1nccn12

>  <smiles>  (36) 
[H]c1c([H])c([H])c(S(=O)(=O)C23c4n(c([H])c([H])[n+]4[H])C([H])(C([H])([H])C([H])([H])C2([H])C([H])([H])[H])C2([H])C([H])([H])C([H])([H])C2([H])C3([H])[H])c([H])c1[H]

$$$$
9:1:1
     RDKit          3D

 50 54  0  0  1  0  0  0  0  0999 V2000
    6.5486   -5.1258    2.0525 C   0  0  0  0  0  0  0  0  0  0  0  0
    5.7702   -3.7876    2.2051 C   0  0  2  0  0  0  0  0  0  0  0  0
    5.2788   -3.5918    3.6780 C   0  0  0  0  0  0  0  0  0  0  0  0
    3.9188   -4.1966    4.0905 C   0  0  0  0  0  0  0  0  0  0  0  0
    2.6955   -3.7431    3.2699 C   0  0  2  0  0  0  0  0  0  0  0  0
    2.2441   -4.7470    2.2237 C   0  0  2  0  0  0  0  0  0  0  0  0
    1.6408   -6.1391    2.4516 C   0  0  0  0  0  0  0  0  0  0  0  0
    2.2587   -6.4975    1.0889 C   0  0  0  0  0  0  0  0  0  0  0  0
    3.3162   -5.4379    1.4101 C   0  0  1  0  0  0  0  0  0  0  0  0
    4.0408   -4.5598    0.4071 C   0  0  0  0  0  0  0  0  0  0  0  0
    4.7831   -3.3403    1.0500 C   0  0  2  0  0  0  0  0  0  0  0  0
    5.8410   -2.5793   -0.3183 S   0  0  0  0  0  0  0  0  0  0  0  0
    6.3162   -1.2577    0.1166 O   0  0  0  0  0  0  0  0  0  0  0  0
    6.8349   -3.5659   -0.7492 O   0  0  0  0  0  0  0  0  0  0  0  0
    4.7572   -2.2886   -1.7349 C   0  0  0  0  0  0  0  0  0  0  0  0
    4.3086   -0.9795   -2.0158 C   0  0  0  0  0  0  0  0  0  0  0  0
    3.4433   -0.7414   -3.1034 C   0  0  0  0  0  0  0  0  0  0  0  0
    3.0137   -1.8124   -3.9054 C   0  0  0  0  0  0  0  0  0  0  0  0
    3.4769   -3.1179   -3.6449 C   0  0  0  0  0  0  0  0  0  0  0  0
    4.3648   -3.3561   -2.5733 C   0  0  0  0  0  0  0  0  0  0  0  0
    3.7993   -2.2822    1.6011 C   0  0  0  0  0  0  0  0  0  0  0  0
    3.7356   -1.0262    1.2145 N   0  0  0  0  0  0  0  0  0  0  0  0
    2.7816   -0.3397    1.9303 C   0  0  0  0  0  0  0  0  0  0  0  0
    2.2497   -1.2703    2.8247 C   0  0  0  0  0  0  0  0  0  0  0  0
    2.9002   -2.4671    2.6040 N   0  0  0  0  0  0  0  0  0  0  0  0
    6.0826   -5.9384    2.6070 H   0  0  0  0  0  0  0  0  0  0  0  0
    7.5530   -5.0481    2.4708 H   0  0  0  0  0  0  0  0  0  0  0  0
    6.6757   -5.4350    1.0187 H   0  0  0  0  0  0  0  0  0  0  0  0
    6.5689   -3.0470    2.1325 H   0  0  0  0  0  0  0  0  0  0  0  0
    6.0159   -4.0225    4.3577 H   0  0  0  0  0  0  0  0  0  0  0  0
    5.2824   -2.5262    3.9238 H   0  0  0  0  0  0  0  0  0  0  0  0
    3.9683   -5.2846    4.1589 H   0  0  0  0  0  0  0  0  0  0  0  0
    3.7420   -3.8814    5.1164 H   0  0  0  0  0  0  0  0  0  0  0  0
    1.8693   -3.6073    3.9627 H   0  0  0  0  0  0  0  0  0  0  0  0
    1.5692   -4.2480    1.5405 H   0  0  0  0  0  0  0  0  0  0  0  0
    2.0863   -6.6746    3.2923 H   0  0  0  0  0  0  0  0  0  0  0  0
    0.5527   -6.1774    2.4630 H   0  0  0  0  0  0  0  0  0  0  0  0
    2.6529   -7.5083    1.0311 H   0  0  0  0  0  0  0  0  0  0  0  0
    1.6370   -6.2409    0.2290 H   0  0  0  0  0  0  0  0  0  0  0  0
    4.0153   -5.9360    2.0751 H   0  0  0  0  0  0  0  0  0  0  0  0
    4.7448   -5.1810   -0.1451 H   0  0  0  0  0  0  0  0  0  0  0  0
    3.3159   -4.2052   -0.3191 H   0  0  0  0  0  0  0  0  0  0  0  0
    4.6189   -0.1430   -1.4019 H   0  0  0  0  0  0  0  0  0  0  0  0
    3.0850    0.2561   -3.3077 H   0  0  0  0  0  0  0  0  0  0  0  0
    2.3129   -1.6176   -4.6900 H   0  0  0  0  0  0  0  0  0  0  0  0
    3.1360   -3.9433   -4.2505 H   0  0  0  0  0  0  0  0  0  0  0  0
    4.7057   -4.3667   -2.3730 H   0  0  0  0  0  0  0  0  0  0  0  0
    2.5483    0.7089    1.7781 H   0  0  0  0  0  0  0  0  0  0  0  0
    1.4729   -1.1676    3.5756 H   0  0  0  0  0  0  0  0  0  0  0  0
    4.3809   -0.6957    0.5155 H   0  0  0  0  0  0  0  0  0  0  0  0
  1  2  1  0
  1 26  1  0
  1 27  1  0
  1 28  1  0
  2 11  1  0
  2  3  1  0
  2 29  1  1
  3  4  1  0
  3 30  1  0
  3 31  1  0
  4  5  1  0
  4 32  1  0
  4 33  1  0
  5 25  1  0
  5  6  1  0
  5 34  1  1
  6  9  1  0
  6  7  1  0
  6 35  1  6
  7  8  1  0
  7 36  1  0
  7 37  1  0
  8  9  1  0
  8 38  1  0
  8 39  1  0
  9 10  1  0
  9 40  1  1
 10 11  1  0
 10 41  1  0
 10 42  1  0
 11 12  1  6
 11 21  1  0
 12 13  2  0
 12 14  2  0
 12 15  1  0
 15 20  1  0
 15 16  2  0
 16 17  1  0
 16 43  1  0
 17 18  2  0
 17 44  1  0
 18 19  1  0
 18 45  1  0
 19 20  2  0
 19 46  1  0
 20 47  1  0
 21 25  1  0
 21 22  2  0
 22 23  1  0
 22 50  1  0
 23 24  2  0
 23 48  1  0
 24 25  1  0
 24 49  1  0
M  CHG  1  22   1
M  END
>  <i_m_ct_stereo_status>  (37) 
1

>  <s_m_source_file>  (37) 
/var/tmp/pbs.5076255.sched01/tmpu5rzjxe4/0gixxd53k.sdf

>  <i_m_source_file_index>  (37) 
13

>  <i_lp_mmshare_version>  (37) 
48012

>  <i_f3d_flags>  (37) 
0

>  <s_epik_input>  (37) 
W0NIM11bQ0BASF0xW0NIMl1bQ0gyXVtDQEhdKFtDQEhdMltDQEhdKFtDSDJdMylbQ0gyXVtDSDJdMiluKFtjSF1bY0hdbjQpYzRbQ0BAXTEzUyg9TykoPU8pYzVbY0hdW2NIXVtjSF1bY0hdW2NIXTU=

>  <s_epik_cmdline>  (37) 
J2VwaWtfcHl0aG9uJywgJy1waHQnLCAnMi4wJywgJy1waCcsICc3LjAnLCAnLXRuJywgJzgnLCAnLW1hJywgJzIwMCcsICctaW1hZScsICc8aW5maWxlLm1hZT4nLCAnLW9tYWUnLCAnPG91dGZpbGUubWFlPic=

>  <r_lp_tautomer_probability>  (37) 
1

>  <r_epik_Ionization_Penalty>  (37) 
1.36258

>  <r_epik_Ionization_Penalty_Charging>  (37) 
0

>  <r_epik_Ionization_Penalty_Neutral>  (37) 
1.36258

>  <r_epik_State_Penalty>  (37) 
1.44159

>  <r_epik_Charging_Adjusted_Penalty>  (37) 
1.44159

>  <i_epik_Tot_Q>  (37) 
1

>  <i_epik_Tot_abs_Q>  (37) 
1

>  <s_lp_Force_Field>  (37) 
OPLS3e

>  <r_lp_Energy>  (37) 
56.472

>  <b_lp_Chiralities_Consistent>  (37) 
1

>  <s_lp_Variant>  (37) 
9:0-2

>  <s_i_glide_gridfile>  (37) 
pfpi4k_grid

>  <i_i_glide_lignum>  (37) 
13

>  <i_i_glide_rotatable_bonds>  (37) 
2

>  <r_i_docking_score>  (37) 
-3.33999

>  <r_i_glide_ligand_efficiency>  (37) 
-0.1336

>  <r_i_glide_ligand_efficiency_sa>  (37) 
-0.390647

>  <r_i_glide_ligand_efficiency_ln>  (37) 
-0.791677

>  <r_i_glide_gscore>  (37) 
-3.33999

>  <r_i_glide_lipo>  (37) 
-0.567872

>  <r_i_glide_hbond>  (37) 
0

>  <r_i_glide_metal>  (37) 
-0

>  <r_i_glide_rewards>  (37) 
-0.971654

>  <r_i_glide_evdw>  (37) 
-26.3354

>  <r_i_glide_ecoul>  (37) 
-4.99059

>  <r_i_glide_erotb>  (37) 
0.299605

>  <r_i_glide_esite>  (37) 
-0.0347116

>  <r_i_glide_emodel>  (37) 
-37.0848

>  <r_i_glide_energy>  (37) 
-31.3259

>  <r_i_glide_einternal>  (37) 
1.58398

>  <r_i_glide_intrahb_reward>  (37) 
-0

>  <i_i_glide_confnum>  (37) 
2

>  <i_i_glide_posenum>  (37) 
11

>  <r_i_glide_eff_state_penalty>  (37) 
0

>  <ligand_id>  (37) 
9

>  <original_smiles>  (37) 
CC1CCC2C3CCC3CC1(S(=O)(=O)c1ccccc1)c1nccn12

>  <smiles>  (37) 
[H]c1c([H])c([H])c(S(=O)(=O)C23c4n(c([H])c([H])[n+]4[H])C([H])(C([H])([H])C([H])([H])C2([H])C([H])([H])[H])C2([H])C([H])([H])C([H])([H])C2([H])C3([H])[H])c([H])c1[H]

$$$$
9:1:2
     RDKit          3D

 50 54  0  0  1  0  0  0  0  0999 V2000
    5.7708   -0.7010    1.4783 C   0  0  0  0  0  0  0  0  0  0  0  0
    5.4087   -2.1874    1.6850 C   0  0  2  0  0  0  0  0  0  0  0  0
    6.5042   -3.1338    1.1154 C   0  0  0  0  0  0  0  0  0  0  0  0
    6.4381   -3.5346   -0.3765 C   0  0  0  0  0  0  0  0  0  0  0  0
    5.1377   -4.2319   -0.8533 C   0  0  2  0  0  0  0  0  0  0  0  0
    4.1700   -3.3348   -1.6111 C   0  0  2  0  0  0  0  0  0  0  0  0
    4.3954   -2.6465   -2.9656 C   0  0  0  0  0  0  0  0  0  0  0  0
    3.4605   -1.5457   -2.4307 C   0  0  0  0  0  0  0  0  0  0  0  0
    3.9886   -1.9488   -1.0490 C   0  0  1  0  0  0  0  0  0  0  0  0
    3.2330   -1.8856    0.2579 C   0  0  0  0  0  0  0  0  0  0  0  0
    3.9077   -2.6161    1.4618 C   0  0  2  0  0  0  0  0  0  0  0  0
    2.8729   -2.1804    2.9944 S   0  0  0  0  0  0  0  0  0  0  0  0
    1.5637   -2.8293    2.8636 O   0  0  0  0  0  0  0  0  0  0  0  0
    3.6675   -2.5029    4.1882 O   0  0  0  0  0  0  0  0  0  0  0  0
    2.5668   -0.3947    3.0246 C   0  0  0  0  0  0  0  0  0  0  0  0
    3.2520    0.4366    3.9379 C   0  0  0  0  0  0  0  0  0  0  0  0
    3.0014    1.8264    3.9466 C   0  0  0  0  0  0  0  0  0  0  0  0
    2.0855    2.3895    3.0330 C   0  0  0  0  0  0  0  0  0  0  0  0
    1.3972    1.5608    2.1265 C   0  0  0  0  0  0  0  0  0  0  0  0
    1.6171    0.1696    2.1417 C   0  0  0  0  0  0  0  0  0  0  0  0
    3.8333   -4.1553    1.2544 C   0  0  0  0  0  0  0  0  0  0  0  0
    3.2485   -5.0112    2.0594 N   0  0  0  0  0  0  0  0  0  0  0  0
    3.4128   -6.3080    1.6096 C   0  0  0  0  0  0  0  0  0  0  0  0
    4.1755   -6.1968    0.4430 C   0  0  0  0  0  0  0  0  0  0  0  0
    4.4159   -4.8531    0.2410 N   0  0  0  0  0  0  0  0  0  0  0  0
    6.2310   -0.5157    0.5093 H   0  0  0  0  0  0  0  0  0  0  0  0
    6.5079   -0.4054    2.2241 H   0  0  0  0  0  0  0  0  0  0  0  0
    4.9274   -0.0253    1.5911 H   0  0  0  0  0  0  0  0  0  0  0  0
    5.5784   -2.3207    2.7504 H   0  0  0  0  0  0  0  0  0  0  0  0
    7.4735   -2.6644    1.2771 H   0  0  0  0  0  0  0  0  0  0  0  0
    6.5465   -4.0424    1.7224 H   0  0  0  0  0  0  0  0  0  0  0  0
    6.7048   -2.6996   -1.0253 H   0  0  0  0  0  0  0  0  0  0  0  0
    7.2479   -4.2443   -0.5221 H   0  0  0  0  0  0  0  0  0  0  0  0
    5.4047   -5.0310   -1.5363 H   0  0  0  0  0  0  0  0  0  0  0  0
    3.1930   -3.8241   -1.6801 H   0  0  0  0  0  0  0  0  0  0  0  0
    5.4237   -2.3138   -3.1218 H   0  0  0  0  0  0  0  0  0  0  0  0
    3.9984   -3.1936   -3.8180 H   0  0  0  0  0  0  0  0  0  0  0  0
    3.7197   -0.5345   -2.7350 H   0  0  0  0  0  0  0  0  0  0  0  0
    2.3988   -1.7603   -2.5658 H   0  0  0  0  0  0  0  0  0  0  0  0
    4.9405   -1.4320   -0.9564 H   0  0  0  0  0  0  0  0  0  0  0  0
    3.1481   -0.8241    0.4442 H   0  0  0  0  0  0  0  0  0  0  0  0
    2.2195   -2.2674    0.1331 H   0  0  0  0  0  0  0  0  0  0  0  0
    3.9544    0.0144    4.6433 H   0  0  0  0  0  0  0  0  0  0  0  0
    3.5163    2.4646    4.6515 H   0  0  0  0  0  0  0  0  0  0  0  0
    1.9077    3.4551    3.0193 H   0  0  0  0  0  0  0  0  0  0  0  0
    0.7028    1.9918    1.4142 H   0  0  0  0  0  0  0  0  0  0  0  0
    1.0803   -0.4550    1.4418 H   0  0  0  0  0  0  0  0  0  0  0  0
    3.0128   -7.1839    2.0999 H   0  0  0  0  0  0  0  0  0  0  0  0
    4.5357   -6.9496   -0.2493 H   0  0  0  0  0  0  0  0  0  0  0  0
    2.7439   -4.6757    2.8741 H   0  0  0  0  0  0  0  0  0  0  0  0
  1  2  1  0
  1 26  1  0
  1 27  1  0
  1 28  1  0
  2 11  1  0
  2  3  1  0
  2 29  1  1
  3  4  1  0
  3 30  1  0
  3 31  1  0
  4  5  1  0
  4 32  1  0
  4 33  1  0
  5 25  1  0
  5  6  1  0
  5 34  1  6
  6  9  1  0
  6  7  1  0
  6 35  1  6
  7  8  1  0
  7 36  1  0
  7 37  1  0
  8  9  1  0
  8 38  1  0
  8 39  1  0
  9 10  1  0
  9 40  1  1
 10 11  1  0
 10 41  1  0
 10 42  1  0
 11 12  1  1
 11 21  1  0
 12 13  2  0
 12 14  2  0
 12 15  1  0
 15 20  1  0
 15 16  2  0
 16 17  1  0
 16 43  1  0
 17 18  2  0
 17 44  1  0
 18 19  1  0
 18 45  1  0
 19 20  2  0
 19 46  1  0
 20 47  1  0
 21 25  1  0
 21 22  2  0
 22 23  1  0
 22 50  1  0
 23 24  2  0
 23 48  1  0
 24 25  1  0
 24 49  1  0
M  CHG  1  22   1
M  END
>  <i_m_ct_stereo_status>  (38) 
1

>  <s_m_source_file>  (38) 
/var/tmp/pbs.5076255.sched01/tmpu5rzjxe4/0gixxd53k.sdf

>  <i_m_source_file_index>  (38) 
13

>  <i_lp_mmshare_version>  (38) 
48012

>  <i_f3d_flags>  (38) 
0

>  <s_epik_input>  (38) 
W0NIM11bQ0BASF0xW0NIMl1bQ0gyXVtDQEhdKFtDQEhdMltDQEhdKFtDSDJdMylbQ0gyXVtDSDJdMiluKFtjSF1bY0hdbjQpYzRbQ0BAXTEzUyg9TykoPU8pYzVbY0hdW2NIXVtjSF1bY0hdW2NIXTU=

>  <s_epik_cmdline>  (38) 
J2VwaWtfcHl0aG9uJywgJy1waHQnLCAnMi4wJywgJy1waCcsICc3LjAnLCAnLXRuJywgJzgnLCAnLW1hJywgJzIwMCcsICctaW1hZScsICc8aW5maWxlLm1hZT4nLCAnLW9tYWUnLCAnPG91dGZpbGUubWFlPic=

>  <r_lp_tautomer_probability>  (38) 
1

>  <r_epik_Ionization_Penalty>  (38) 
1.36258

>  <r_epik_Ionization_Penalty_Charging>  (38) 
0

>  <r_epik_Ionization_Penalty_Neutral>  (38) 
1.36258

>  <r_epik_State_Penalty>  (38) 
1.44159

>  <r_epik_Charging_Adjusted_Penalty>  (38) 
1.44159

>  <i_epik_Tot_Q>  (38) 
1

>  <i_epik_Tot_abs_Q>  (38) 
1

>  <s_lp_Force_Field>  (38) 
OPLS3e

>  <r_lp_Energy>  (38) 
56.472

>  <b_lp_Chiralities_Consistent>  (38) 
1

>  <s_lp_Variant>  (38) 
9:0-2

>  <s_i_glide_gridfile>  (38) 
pfpi4k_grid

>  <i_i_glide_lignum>  (38) 
13

>  <i_i_glide_rotatable_bonds>  (38) 
2

>  <r_i_docking_score>  (38) 
-3.05497

>  <r_i_glide_ligand_efficiency>  (38) 
-0.122199

>  <r_i_glide_ligand_efficiency_sa>  (38) 
-0.357311

>  <r_i_glide_ligand_efficiency_ln>  (38) 
-0.724119

>  <r_i_glide_gscore>  (38) 
-3.05497

>  <r_i_glide_lipo>  (38) 
-0.640689

>  <r_i_glide_hbond>  (38) 
0

>  <r_i_glide_metal>  (38) 
-0

>  <r_i_glide_rewards>  (38) 
-1.0216

>  <r_i_glide_evdw>  (38) 
-27.7483

>  <r_i_glide_ecoul>  (38) 
-2.02271

>  <r_i_glide_erotb>  (38) 
0.299605

>  <r_i_glide_esite>  (38) 
-0.00145537

>  <r_i_glide_emodel>  (38) 
-34.5924

>  <r_i_glide_energy>  (38) 
-29.771

>  <r_i_glide_einternal>  (38) 
1.60514

>  <r_i_glide_intrahb_reward>  (38) 
-0

>  <i_i_glide_confnum>  (38) 
1

>  <i_i_glide_posenum>  (38) 
6

>  <r_i_glide_eff_state_penalty>  (38) 
0

>  <ligand_id>  (38) 
9

>  <original_smiles>  (38) 
CC1CCC2C3CCC3CC1(S(=O)(=O)c1ccccc1)c1nccn12

>  <smiles>  (38) 
[H]c1c([H])c([H])c(S(=O)(=O)C23c4n(c([H])c([H])[n+]4[H])C([H])(C([H])([H])C([H])([H])C2([H])C([H])([H])[H])C2([H])C([H])([H])C([H])([H])C2([H])C3([H])[H])c([H])c1[H]

$$$$
10:0:0
     RDKit          3D

 31 33  0  0  1  0  0  0  0  0999 V2000
   -3.6122    3.3535    9.2752 N   0  0  0  0  0  0  0  0  0  0  0  0
   -2.5770    3.8997    8.6227 C   0  0  0  0  0  0  0  0  0  0  0  0
   -1.9155    4.9244    9.1985 N   0  0  0  0  0  0  0  0  0  0  0  0
   -0.8832    5.4819    8.5575 C   0  0  0  0  0  0  0  0  0  0  0  0
   -0.3870    5.1634    7.3504 N   0  0  0  0  0  0  0  0  0  0  0  0
   -1.0579    4.1184    6.7777 C   0  0  0  0  0  0  0  0  0  0  0  0
   -2.1554    3.4391    7.3514 C   0  0  0  0  0  0  0  0  0  0  0  0
   -2.5924    2.4394    6.4969 N   0  0  0  0  0  0  0  0  0  0  0  0
   -1.8076    2.5394    5.4588 C   0  0  0  0  0  0  0  0  0  0  0  0
   -0.8495    3.5231    5.5513 N   0  0  0  0  0  0  0  0  0  0  0  0
    0.1806    3.8820    4.5442 C   0  0  2  0  0  0  0  0  0  0  0  0
    1.4357    3.8470    5.1535 O   0  0  0  0  0  0  0  0  0  0  0  0
    2.1644    5.0362    4.8386 C   0  0  1  0  0  0  0  0  0  0  0  0
    3.6380    4.6990    4.5314 C   0  0  0  0  0  0  0  0  0  0  0  0
    4.4998    4.1236    5.9850 Cl  0  0  0  0  0  0  0  0  0  0  0  0
    1.3865    5.6855    3.6740 C   0  0  1  0  0  0  0  0  0  0  0  0
    1.8601    5.0883    2.4808 O   0  0  0  0  0  0  0  0  0  0  0  0
   -0.0462    5.3000    4.0135 C   0  0  1  0  0  0  0  0  0  0  0  0
   -0.9489    5.3819    2.9102 O   0  0  0  0  0  0  0  0  0  0  0  0
   -3.8383    3.6687   10.2083 H   0  0  0  0  0  0  0  0  0  0  0  0
   -4.1029    2.5944    8.8353 H   0  0  0  0  0  0  0  0  0  0  0  0
   -0.3740    6.2789    9.0784 H   0  0  0  0  0  0  0  0  0  0  0  0
   -1.9122    1.9059    4.5846 H   0  0  0  0  0  0  0  0  0  0  0  0
    0.1393    3.1103    3.7771 H   0  0  0  0  0  0  0  0  0  0  0  0
    2.1080    5.6862    5.7162 H   0  0  0  0  0  0  0  0  0  0  0  0
    3.7176    3.9194    3.7723 H   0  0  0  0  0  0  0  0  0  0  0  0
    4.1552    5.5811    4.1563 H   0  0  0  0  0  0  0  0  0  0  0  0
    1.5272    6.7703    3.6464 H   0  0  0  0  0  0  0  0  0  0  0  0
    1.1678    4.9529    1.8280 H   0  0  0  0  0  0  0  0  0  0  0  0
   -0.4026    5.9428    4.8239 H   0  0  0  0  0  0  0  0  0  0  0  0
   -0.5739    4.9391    2.1499 H   0  0  0  0  0  0  0  0  0  0  0  0
  1  2  1  0
  1 21  1  0
  1 20  1  0
  2  3  2  0
  2  7  1  0
  3  4  1  0
  4 22  1  0
  4  5  2  0
  5  6  1  0
  6 10  1  0
  6  7  2  0
  7  8  1  0
  8  9  2  0
  9 23  1  0
  9 10  1  0
 10 11  1  0
 11 18  1  0
 11 12  1  0
 11 24  1  6
 12 13  1  0
 13 14  1  0
 13 16  1  0
 13 25  1  1
 14 15  1  0
 14 26  1  0
 14 27  1  0
 16 17  1  0
 16 18  1  0
 16 28  1  6
 17 29  1  0
 18 19  1  0
 18 30  1  1
 19 31  1  0
M  END
>  <i_m_ct_stereo_status>  (39) 
1

>  <s_m_source_file>  (39) 
/var/tmp/pbs.5076255.sched01/tmpu5rzjxe4/0gixxd53k.sdf

>  <i_m_source_file_index>  (39) 
14

>  <i_lp_mmshare_version>  (39) 
48012

>  <i_f3d_flags>  (39) 
0

>  <s_epik_input>  (39) 
bjFbY0hdW25IXVxjKD1OXFtIXSljKGMxMiluW2NIXW4yW0NAQEhdM09bQ0BASF0oW0NIMl1DbClbQ0BASF0oW09IXSlbQ0BIXTNbT0hd

>  <s_epik_cmdline>  (39) 
J2VwaWtfcHl0aG9uJywgJy1waHQnLCAnMi4wJywgJy1waCcsICc3LjAnLCAnLXRuJywgJzgnLCAnLW1hJywgJzIwMCcsICctaW1hZScsICc8aW5maWxlLm1hZT4nLCAnLW9tYWUnLCAnPG91dGZpbGUubWFlPic=

>  <r_lp_tautomer_probability>  (39) 
1

>  <r_epik_Ionization_Penalty>  (39) 
0.000417543

>  <r_epik_Ionization_Penalty_Charging>  (39) 
0

>  <r_epik_Ionization_Penalty_Neutral>  (39) 
0.000417543

>  <r_epik_State_Penalty>  (39) 
-0

>  <r_epik_Charging_Adjusted_Penalty>  (39) 
0

>  <i_epik_Tot_Q>  (39) 
0

>  <i_epik_Tot_abs_Q>  (39) 
0

>  <s_epik_Chemistry_Notes>  (39) 
This compound contains an acetal/aminal-like group ( X-CH(R)-Y where X, Y are N, S, or O) that may be acid/base labile, releasing an aldehyde.

>  <s_lp_Force_Field>  (39) 
OPLS3e

>  <r_lp_Energy>  (39) 
9.95158

>  <b_lp_Chiralities_Consistent>  (39) 
1

>  <s_lp_Variant>  (39) 
10:0-1

>  <s_i_glide_gridfile>  (39) 
pfpi4k_grid

>  <i_i_glide_lignum>  (39) 
14

>  <i_i_glide_rotatable_bonds>  (39) 
4

>  <r_i_docking_score>  (39) 
-4.22041

>  <r_i_glide_ligand_efficiency>  (39) 
-0.222127

>  <r_i_glide_ligand_efficiency_sa>  (39) 
-0.592723

>  <r_i_glide_ligand_efficiency_ln>  (39) 
-1.06996

>  <r_i_glide_gscore>  (39) 
-4.22041

>  <r_i_glide_lipo>  (39) 
-0.126342

>  <r_i_glide_hbond>  (39) 
0

>  <r_i_glide_metal>  (39) 
-0

>  <r_i_glide_rewards>  (39) 
-1.51654

>  <r_i_glide_evdw>  (39) 
-14.8643

>  <r_i_glide_ecoul>  (39) 
-13.4074

>  <r_i_glide_erotb>  (39) 
0.222352

>  <r_i_glide_esite>  (39) 
-0.045551

>  <r_i_glide_emodel>  (39) 
-36.8958

>  <r_i_glide_energy>  (39) 
-28.2718

>  <r_i_glide_einternal>  (39) 
1.33748

>  <r_i_glide_intrahb_reward>  (39) 
-0

>  <i_i_glide_confnum>  (39) 
1

>  <i_i_glide_posenum>  (39) 
17

>  <r_i_glide_eff_state_penalty>  (39) 
0

>  <ligand_id>  (39) 
10

>  <original_smiles>  (39) 
N=c1[nH]cnc2c1ncn2C1OC(CCl)C(O)C1O

>  <smiles>  (39) 
[H]OC1([H])C([H])(n2c([H])nc3c(N([H])[H])nc([H])nc32)OC([H])(C([H])([H])Cl)C1([H])O[H]

$$$$
10:0:1
     RDKit          3D

 31 33  0  0  1  0  0  0  0  0999 V2000
    7.3829   -6.5910    1.2786 N   0  0  0  0  0  0  0  0  0  0  0  0
    6.0519   -6.6841    1.3797 C   0  0  0  0  0  0  0  0  0  0  0  0
    5.3037   -5.5770    1.1791 N   0  0  0  0  0  0  0  0  0  0  0  0
    3.9711   -5.6658    1.2687 C   0  0  0  0  0  0  0  0  0  0  0  0
    3.2188   -6.7335    1.5495 N   0  0  0  0  0  0  0  0  0  0  0  0
    3.9736   -7.8527    1.7616 C   0  0  0  0  0  0  0  0  0  0  0  0
    5.3964   -7.9001    1.6818 C   0  0  0  0  0  0  0  0  0  0  0  0
    5.8437   -9.1892    1.9184 N   0  0  0  0  0  0  0  0  0  0  0  0
    4.7445   -9.8635    2.1175 C   0  0  0  0  0  0  0  0  0  0  0  0
    3.5674   -9.1376    2.0816 N   0  0  0  0  0  0  0  0  0  0  0  0
    2.1645   -9.6769    2.2161 C   0  0  2  0  0  0  0  0  0  0  0  0
    1.2693   -8.6117    2.3889 O   0  0  0  0  0  0  0  0  0  0  0  0
    0.7658   -8.5530    3.7287 C   0  0  1  0  0  0  0  0  0  0  0  0
   -0.7200   -8.9806    3.7345 C   0  0  0  0  0  0  0  0  0  0  0  0
   -1.7441   -7.8011    2.8814 Cl  0  0  0  0  0  0  0  0  0  0  0  0
    1.6706   -9.5098    4.5193 C   0  0  1  0  0  0  0  0  0  0  0  0
    1.0832  -10.0443    5.6953 O   0  0  0  0  0  0  0  0  0  0  0  0
    2.0462  -10.5530    3.4790 C   0  0  1  0  0  0  0  0  0  0  0  0
    1.0793  -11.5809    3.3311 O   0  0  0  0  0  0  0  0  0  0  0  0
    7.8069   -5.7047    1.0615 H   0  0  0  0  0  0  0  0  0  0  0  0
    7.9483   -7.4171    1.4280 H   0  0  0  0  0  0  0  0  0  0  0  0
    3.4293   -4.7468    1.0976 H   0  0  0  0  0  0  0  0  0  0  0  0
    4.7697  -10.9361    2.2764 H   0  0  0  0  0  0  0  0  0  0  0  0
    2.0165  -10.1950    1.2721 H   0  0  0  0  0  0  0  0  0  0  0  0
    0.8522   -7.5349    4.1132 H   0  0  0  0  0  0  0  0  0  0  0  0
   -0.8791   -9.9542    3.2718 H   0  0  0  0  0  0  0  0  0  0  0  0
   -1.1008   -9.0499    4.7537 H   0  0  0  0  0  0  0  0  0  0  0  0
    2.5685   -8.9653    4.8217 H   0  0  0  0  0  0  0  0  0  0  0  0
    1.5202  -10.8469    5.9567 H   0  0  0  0  0  0  0  0  0  0  0  0
    2.9820  -11.0351    3.7307 H   0  0  0  0  0  0  0  0  0  0  0  0
    1.4806  -12.3569    2.9620 H   0  0  0  0  0  0  0  0  0  0  0  0
  1  2  1  0
  1 21  1  0
  1 20  1  0
  2  3  2  0
  2  7  1  0
  3  4  1  0
  4 22  1  0
  4  5  2  0
  5  6  1  0
  6 10  1  0
  6  7  2  0
  7  8  1  0
  8  9  2  0
  9 23  1  0
  9 10  1  0
 10 11  1  0
 11 18  1  0
 11 12  1  0
 11 24  1  6
 12 13  1  0
 13 14  1  0
 13 16  1  0
 13 25  1  1
 14 15  1  0
 14 26  1  0
 14 27  1  0
 16 17  1  0
 16 18  1  0
 16 28  1  1
 17 29  1  0
 18 19  1  0
 18 30  1  1
 19 31  1  0
M  END
>  <i_m_ct_stereo_status>  (40) 
1

>  <s_m_source_file>  (40) 
/var/tmp/pbs.5076255.sched01/tmpu5rzjxe4/0gixxd53k.sdf

>  <i_m_source_file_index>  (40) 
14

>  <i_lp_mmshare_version>  (40) 
48012

>  <i_f3d_flags>  (40) 
0

>  <s_epik_input>  (40) 
bjFbY0hdW25IXVxjKD1OXFtIXSljKGMxMiluW2NIXW4yW0NAQEhdM09bQ0BASF0oW0NIMl1DbClbQ0BASF0oW09IXSlbQ0BIXTNbT0hd

>  <s_epik_cmdline>  (40) 
J2VwaWtfcHl0aG9uJywgJy1waHQnLCAnMi4wJywgJy1waCcsICc3LjAnLCAnLXRuJywgJzgnLCAnLW1hJywgJzIwMCcsICctaW1hZScsICc8aW5maWxlLm1hZT4nLCAnLW9tYWUnLCAnPG91dGZpbGUubWFlPic=

>  <r_lp_tautomer_probability>  (40) 
1

>  <r_epik_Ionization_Penalty>  (40) 
0.000417543

>  <r_epik_Ionization_Penalty_Charging>  (40) 
0

>  <r_epik_Ionization_Penalty_Neutral>  (40) 
0.000417543

>  <r_epik_State_Penalty>  (40) 
-0

>  <r_epik_Charging_Adjusted_Penalty>  (40) 
0

>  <i_epik_Tot_Q>  (40) 
0

>  <i_epik_Tot_abs_Q>  (40) 
0

>  <s_epik_Chemistry_Notes>  (40) 
This compound contains an acetal/aminal-like group ( X-CH(R)-Y where X, Y are N, S, or O) that may be acid/base labile, releasing an aldehyde.

>  <s_lp_Force_Field>  (40) 
OPLS3e

>  <r_lp_Energy>  (40) 
9.95158

>  <b_lp_Chiralities_Consistent>  (40) 
1

>  <s_lp_Variant>  (40) 
10:0-1

>  <s_i_glide_gridfile>  (40) 
pfpi4k_grid

>  <i_i_glide_lignum>  (40) 
14

>  <i_i_glide_rotatable_bonds>  (40) 
4

>  <r_i_docking_score>  (40) 
-3.85914

>  <r_i_glide_ligand_efficiency>  (40) 
-0.203113

>  <r_i_glide_ligand_efficiency_sa>  (40) 
-0.541986

>  <r_i_glide_ligand_efficiency_ln>  (40) 
-0.978375

>  <r_i_glide_gscore>  (40) 
-3.85914

>  <r_i_glide_lipo>  (40) 
-0.222231

>  <r_i_glide_hbond>  (40) 
0

>  <r_i_glide_metal>  (40) 
-0

>  <r_i_glide_rewards>  (40) 
-1.60876

>  <r_i_glide_evdw>  (40) 
-23.2859

>  <r_i_glide_ecoul>  (40) 
-6.56488

>  <r_i_glide_erotb>  (40) 
0.222352

>  <r_i_glide_esite>  (40) 
-0.101477

>  <r_i_glide_emodel>  (40) 
-37.1665

>  <r_i_glide_energy>  (40) 
-29.8508

>  <r_i_glide_einternal>  (40) 
2.30224

>  <r_i_glide_intrahb_reward>  (40) 
-0

>  <i_i_glide_confnum>  (40) 
5

>  <i_i_glide_posenum>  (40) 
39

>  <r_i_glide_eff_state_penalty>  (40) 
0

>  <ligand_id>  (40) 
10

>  <original_smiles>  (40) 
N=c1[nH]cnc2c1ncn2C1OC(CCl)C(O)C1O

>  <smiles>  (40) 
[H]OC1([H])C([H])(n2c([H])nc3c(N([H])[H])nc([H])nc32)OC([H])(C([H])([H])Cl)C1([H])O[H]

$$$$
10:0:2
     RDKit          3D

 31 33  0  0  1  0  0  0  0  0999 V2000
   -3.6553    2.9891    9.9602 N   0  0  0  0  0  0  0  0  0  0  0  0
   -2.7012    3.5640    9.2156 C   0  0  0  0  0  0  0  0  0  0  0  0
   -2.1581    4.7235    9.6423 N   0  0  0  0  0  0  0  0  0  0  0  0
   -1.2045    5.3081    8.9040 C   0  0  0  0  0  0  0  0  0  0  0  0
   -0.6829    4.8985    7.7411 N   0  0  0  0  0  0  0  0  0  0  0  0
   -1.2334    3.7143    7.3285 C   0  0  0  0  0  0  0  0  0  0  0  0
   -2.2504    2.9882    8.0051 C   0  0  0  0  0  0  0  0  0  0  0  0
   -2.5774    1.8388    7.2883 N   0  0  0  0  0  0  0  0  0  0  0  0
   -1.7837    1.8879    6.2461 C   0  0  0  0  0  0  0  0  0  0  0  0
   -0.9458    2.9830    6.1930 N   0  0  0  0  0  0  0  0  0  0  0  0
    0.0330    3.3212    5.1241 C   0  0  2  0  0  0  0  0  0  0  0  0
    1.2777    3.5486    5.7127 O   0  0  0  0  0  0  0  0  0  0  0  0
    1.8411    4.7596    5.2062 C   0  0  1  0  0  0  0  0  0  0  0  0
    3.3502    4.5956    4.9291 C   0  0  0  0  0  0  0  0  0  0  0  0
    4.0359    6.1437    4.3617 Cl  0  0  0  0  0  0  0  0  0  0  0  0
    0.9779    5.1243    3.9840 C   0  0  1  0  0  0  0  0  0  0  0  0
    1.4788    4.3927    2.8830 O   0  0  0  0  0  0  0  0  0  0  0  0
   -0.3835    4.6070    4.4021 C   0  0  1  0  0  0  0  0  0  0  0  0
   -1.2349    4.4128    3.2906 O   0  0  0  0  0  0  0  0  0  0  0  0
   -3.8837    3.3790   10.8564 H   0  0  0  0  0  0  0  0  0  0  0  0
   -4.0437    2.1220    9.6478 H   0  0  0  0  0  0  0  0  0  0  0  0
   -0.7938    6.2201    9.3111 H   0  0  0  0  0  0  0  0  0  0  0  0
   -1.8024    1.1340    5.4680 H   0  0  0  0  0  0  0  0  0  0  0  0
    0.1003    2.4396    4.4889 H   0  0  0  0  0  0  0  0  0  0  0  0
    1.6957    5.5130    5.9815 H   0  0  0  0  0  0  0  0  0  0  0  0
    3.8940    4.2944    5.8239 H   0  0  0  0  0  0  0  0  0  0  0  0
    3.5474    3.8297    4.1780 H   0  0  0  0  0  0  0  0  0  0  0  0
    0.9767    6.1976    3.7764 H   0  0  0  0  0  0  0  0  0  0  0  0
    0.9480    4.5419    2.0856 H   0  0  0  0  0  0  0  0  0  0  0  0
   -0.8518    5.2957    5.1038 H   0  0  0  0  0  0  0  0  0  0  0  0
   -0.7108    4.1325    2.5478 H   0  0  0  0  0  0  0  0  0  0  0  0
  1  2  1  0
  1 21  1  0
  1 20  1  0
  2  3  2  0
  2  7  1  0
  3  4  1  0
  4 22  1  0
  4  5  2  0
  5  6  1  0
  6 10  1  0
  6  7  2  0
  7  8  1  0
  8  9  2  0
  9 23  1  0
  9 10  1  0
 10 11  1  0
 11 18  1  0
 11 12  1  0
 11 24  1  6
 12 13  1  0
 13 14  1  0
 13 16  1  0
 13 25  1  1
 14 15  1  0
 14 26  1  0
 14 27  1  0
 16 17  1  0
 16 18  1  0
 16 28  1  6
 17 29  1  0
 18 19  1  0
 18 30  1  1
 19 31  1  0
M  END
>  <i_m_ct_stereo_status>  (41) 
1

>  <s_m_source_file>  (41) 
/var/tmp/pbs.5076255.sched01/tmpu5rzjxe4/0gixxd53k.sdf

>  <i_m_source_file_index>  (41) 
14

>  <i_lp_mmshare_version>  (41) 
48012

>  <i_f3d_flags>  (41) 
0

>  <s_epik_input>  (41) 
bjFbY0hdW25IXVxjKD1OXFtIXSljKGMxMiluW2NIXW4yW0NAQEhdM09bQ0BASF0oW0NIMl1DbClbQ0BASF0oW09IXSlbQ0BIXTNbT0hd

>  <s_epik_cmdline>  (41) 
J2VwaWtfcHl0aG9uJywgJy1waHQnLCAnMi4wJywgJy1waCcsICc3LjAnLCAnLXRuJywgJzgnLCAnLW1hJywgJzIwMCcsICctaW1hZScsICc8aW5maWxlLm1hZT4nLCAnLW9tYWUnLCAnPG91dGZpbGUubWFlPic=

>  <r_lp_tautomer_probability>  (41) 
1

>  <r_epik_Ionization_Penalty>  (41) 
0.000417543

>  <r_epik_Ionization_Penalty_Charging>  (41) 
0

>  <r_epik_Ionization_Penalty_Neutral>  (41) 
0.000417543

>  <r_epik_State_Penalty>  (41) 
-0

>  <r_epik_Charging_Adjusted_Penalty>  (41) 
0

>  <i_epik_Tot_Q>  (41) 
0

>  <i_epik_Tot_abs_Q>  (41) 
0

>  <s_epik_Chemistry_Notes>  (41) 
This compound contains an acetal/aminal-like group ( X-CH(R)-Y where X, Y are N, S, or O) that may be acid/base labile, releasing an aldehyde.

>  <s_lp_Force_Field>  (41) 
OPLS3e

>  <r_lp_Energy>  (41) 
9.95158

>  <b_lp_Chiralities_Consistent>  (41) 
1

>  <s_lp_Variant>  (41) 
10:0-1

>  <s_i_glide_gridfile>  (41) 
pfpi4k_grid

>  <i_i_glide_lignum>  (41) 
14

>  <i_i_glide_rotatable_bonds>  (41) 
4

>  <r_i_docking_score>  (41) 
-3.77978

>  <r_i_glide_ligand_efficiency>  (41) 
-0.198936

>  <r_i_glide_ligand_efficiency_sa>  (41) 
-0.53084

>  <r_i_glide_ligand_efficiency_ln>  (41) 
-0.958255

>  <r_i_glide_gscore>  (41) 
-3.77978

>  <r_i_glide_lipo>  (41) 
-0.0529116

>  <r_i_glide_hbond>  (41) 
0

>  <r_i_glide_metal>  (41) 
-0

>  <r_i_glide_rewards>  (41) 
-1.48567

>  <r_i_glide_evdw>  (41) 
-17.0821

>  <r_i_glide_ecoul>  (41) 
-10.2223

>  <r_i_glide_erotb>  (41) 
0.222352

>  <r_i_glide_esite>  (41) 
-0.0760956

>  <r_i_glide_emodel>  (41) 
-35.1034

>  <r_i_glide_energy>  (41) 
-27.3044

>  <r_i_glide_einternal>  (41) 
1.06944

>  <r_i_glide_intrahb_reward>  (41) 
-0

>  <i_i_glide_confnum>  (41) 
1

>  <i_i_glide_posenum>  (41) 
2

>  <r_i_glide_eff_state_penalty>  (41) 
0

>  <ligand_id>  (41) 
10

>  <original_smiles>  (41) 
N=c1[nH]cnc2c1ncn2C1OC(CCl)C(O)C1O

>  <smiles>  (41) 
[H]OC1([H])C([H])(n2c([H])nc3c(N([H])[H])nc([H])nc32)OC([H])(C([H])([H])Cl)C1([H])O[H]

$$$$
11:0:0
     RDKit          3D

 36 39  0  0  1  0  0  0  0  0999 V2000
    3.3070   -1.6381   -3.7740 C   0  0  0  0  0  0  0  0  0  0  0  0
    4.0778   -2.0219   -2.5275 C   0  0  0  0  0  0  0  0  0  0  0  0
    5.1104   -1.3664   -1.9630 C   0  0  0  0  0  0  0  0  0  0  0  0
    5.5013   -2.0253   -0.7379 C   0  0  0  0  0  0  0  0  0  0  0  0
    4.6357   -3.0234   -0.6289 C   0  0  0  0  0  0  0  0  0  0  0  0
    3.7636   -3.3139   -1.8105 C   0  0  1  0  0  0  0  0  0  0  0  0
    2.6344   -3.4345   -0.7607 C   0  0  1  0  0  0  0  0  0  0  0  0
    1.9294   -4.6555   -0.7127 O   0  0  0  0  0  0  0  0  0  0  0  0
    3.5684   -3.1241    0.4212 C   0  0  1  0  0  0  0  0  0  0  0  0
    4.1150   -3.9515    1.5708 C   0  0  0  0  0  0  0  0  0  0  0  0
    4.5117   -2.5605    2.1459 C   0  0  1  0  0  0  0  0  0  0  0  0
    5.9332   -2.0135    1.8539 C   0  0  0  0  0  0  0  0  0  0  0  0
    6.2810   -1.4324    0.4401 C   0  0  0  0  0  0  0  0  0  0  0  0
    3.2771   -1.9747    1.4264 C   0  0  0  0  0  0  0  0  0  0  0  0
    3.2728   -0.4900    1.0148 C   0  0  0  0  0  0  0  0  0  0  0  0
    1.9284   -2.1125    2.1546 C   0  0  0  0  0  0  0  0  0  0  0  0
    2.2533   -1.5279   -3.5290 H   0  0  0  0  0  0  0  0  0  0  0  0
    3.3782   -2.4472   -4.4942 H   0  0  0  0  0  0  0  0  0  0  0  0
    3.6584   -0.7163   -4.2405 H   0  0  0  0  0  0  0  0  0  0  0  0
    5.4944   -0.4266   -2.3206 H   0  0  0  0  0  0  0  0  0  0  0  0
    3.9894   -4.2001   -2.3833 H   0  0  0  0  0  0  0  0  0  0  0  0
    1.9111   -2.6667   -0.9082 H   0  0  0  0  0  0  0  0  0  0  0  0
    2.3960   -5.2308   -1.3287 H   0  0  0  0  0  0  0  0  0  0  0  0
    3.3610   -4.4863    2.1438 H   0  0  0  0  0  0  0  0  0  0  0  0
    4.9760   -4.5874    1.3365 H   0  0  0  0  0  0  0  0  0  0  0  0
    4.3206   -2.5679    3.2181 H   0  0  0  0  0  0  0  0  0  0  0  0
    6.1782   -1.2427    2.5810 H   0  0  0  0  0  0  0  0  0  0  0  0
    6.6303   -2.8207    2.0587 H   0  0  0  0  0  0  0  0  0  0  0  0
    7.3310   -1.6572    0.2642 H   0  0  0  0  0  0  0  0  0  0  0  0
    6.2221   -0.3423    0.4340 H   0  0  0  0  0  0  0  0  0  0  0  0
    3.3621    0.1581    1.8874 H   0  0  0  0  0  0  0  0  0  0  0  0
    2.3497   -0.2152    0.5040 H   0  0  0  0  0  0  0  0  0  0  0  0
    4.0640   -0.2091    0.3383 H   0  0  0  0  0  0  0  0  0  0  0  0
    1.8474   -1.4395    3.0121 H   0  0  0  0  0  0  0  0  0  0  0  0
    1.7462   -3.1233    2.5239 H   0  0  0  0  0  0  0  0  0  0  0  0
    1.1059   -1.8666    1.4812 H   0  0  0  0  0  0  0  0  0  0  0  0
  1  2  1  0
  1 17  1  0
  1 18  1  0
  1 19  1  0
  2  6  1  0
  2  3  2  0
  3  4  1  0
  3 20  1  0
  4 13  1  0
  4  5  2  0
  5  9  1  0
  5  6  1  0
  6  7  1  0
  6 21  1  6
  7  8  1  0
  7  9  1  0
  7 22  1  6
  8 23  1  0
  9 14  1  1
  9 10  1  0
 10 11  1  0
 10 24  1  0
 10 25  1  0
 11 12  1  0
 11 14  1  0
 11 26  1  1
 12 13  1  0
 12 27  1  0
 12 28  1  0
 13 29  1  0
 13 30  1  0
 14 15  1  0
 14 16  1  0
 15 31  1  0
 15 32  1  0
 15 33  1  0
 16 34  1  0
 16 35  1  0
 16 36  1  0
M  END
>  <i_m_ct_stereo_status>  (42) 
1

>  <s_m_source_file>  (42) 
/var/tmp/pbs.5076255.sched01/tmpu5rzjxe4/0gixxd53k.sdf

>  <i_m_source_file_index>  (42) 
15

>  <i_lp_mmshare_version>  (42) 
48012

>  <i_f3d_flags>  (42) 
0

>  <s_epik_input>  (42) 
W09IXVtDQEBIXTFbQ0BIXTJDKFtDSDNdKT1bQ0hdQyg9QzJbQ0BAXTEzNClbQ0gyXVtDSDJdW0NASF0oW0NIMl0zKUM0KFtDSDNdKVtDSDNd

>  <s_epik_cmdline>  (42) 
J2VwaWtfcHl0aG9uJywgJy1waHQnLCAnMi4wJywgJy1waCcsICc3LjAnLCAnLXRuJywgJzgnLCAnLW1hJywgJzIwMCcsICctaW1hZScsICc8aW5maWxlLm1hZT4nLCAnLW9tYWUnLCAnPG91dGZpbGUubWFlPic=

>  <r_lp_tautomer_probability>  (42) 
1

>  <r_epik_Ionization_Penalty>  (42) 
2.32039e-07

>  <r_epik_Ionization_Penalty_Charging>  (42) 
0

>  <r_epik_Ionization_Penalty_Neutral>  (42) 
2.32039e-07

>  <r_epik_State_Penalty>  (42) 
-0

>  <r_epik_Charging_Adjusted_Penalty>  (42) 
0

>  <i_epik_Tot_Q>  (42) 
0

>  <i_epik_Tot_abs_Q>  (42) 
0

>  <s_lp_Force_Field>  (42) 
OPLS3e

>  <r_lp_Energy>  (42) 
58.6749

>  <b_lp_Chiralities_Consistent>  (42) 
1

>  <s_lp_Variant>  (42) 
11:0-1

>  <s_i_glide_gridfile>  (42) 
pfpi4k_grid

>  <i_i_glide_lignum>  (42) 
15

>  <i_i_glide_rotatable_bonds>  (42) 
1

>  <r_i_docking_score>  (42) 
-4.3399

>  <r_i_glide_ligand_efficiency>  (42) 
-0.271244

>  <r_i_glide_ligand_efficiency_sa>  (42) 
-0.683492

>  <r_i_glide_ligand_efficiency_ln>  (42) 
-1.15038

>  <r_i_glide_gscore>  (42) 
-4.3399

>  <r_i_glide_lipo>  (42) 
-0.398139

>  <r_i_glide_hbond>  (42) 
-0.320496

>  <r_i_glide_metal>  (42) 
-0

>  <r_i_glide_rewards>  (42) 
-1.93419

>  <r_i_glide_evdw>  (42) 
-14.2836

>  <r_i_glide_ecoul>  (42) 
-6.48598

>  <r_i_glide_erotb>  (42) 
0

>  <r_i_glide_esite>  (42) 
0

>  <r_i_glide_emodel>  (42) 
-24.784

>  <r_i_glide_energy>  (42) 
-20.7696

>  <r_i_glide_einternal>  (42) 
1.48201

>  <r_i_glide_intrahb_reward>  (42) 
-0

>  <i_i_glide_confnum>  (42) 
1

>  <i_i_glide_posenum>  (42) 
6

>  <r_i_glide_eff_state_penalty>  (42) 
0

>  <ligand_id>  (42) 
11

>  <original_smiles>  (42) 
CC1=CC2=C3C1C(O)C31CC(CC2)C1(C)C

>  <smiles>  (42) 
[H]OC1([H])C2([H])C(C([H])([H])[H])=C([H])C3=C2C12C([H])([H])C([H])(C([H])([H])C3([H])[H])C2(C([H])([H])[H])C([H])([H])[H]

$$$$
11:0:1
     RDKit          3D

 36 39  0  0  1  0  0  0  0  0999 V2000
    3.1056   -0.9536   -2.9739 C   0  0  0  0  0  0  0  0  0  0  0  0
    4.0363   -1.9204   -2.2779 C   0  0  0  0  0  0  0  0  0  0  0  0
    5.3324   -1.7677   -1.9776 C   0  0  0  0  0  0  0  0  0  0  0  0
    5.8244   -2.9210   -1.2489 C   0  0  0  0  0  0  0  0  0  0  0  0
    4.7555   -3.6942   -1.1417 C   0  0  0  0  0  0  0  0  0  0  0  0
    3.5394   -3.2991   -1.9214 C   0  0  1  0  0  0  0  0  0  0  0  0
    2.7649   -3.6336   -0.6239 C   0  0  1  0  0  0  0  0  0  0  0  0
    1.8165   -4.6590   -0.7226 O   0  0  0  0  0  0  0  0  0  0  0  0
    4.0469   -3.9919    0.1546 C   0  0  1  0  0  0  0  0  0  0  0  0
    4.5970   -5.2970    0.7055 C   0  0  0  0  0  0  0  0  0  0  0  0
    5.5526   -4.3565    1.4956 C   0  0  1  0  0  0  0  0  0  0  0  0
    6.9396   -4.0273    0.8701 C   0  0  0  0  0  0  0  0  0  0  0  0
    7.0402   -3.0131   -0.3221 C   0  0  0  0  0  0  0  0  0  0  0  0
    4.4140   -3.3048    1.4956 C   0  0  0  0  0  0  0  0  0  0  0  0
    4.7552   -1.8048    1.5889 C   0  0  0  0  0  0  0  0  0  0  0  0
    3.3332   -3.4716    2.5880 C   0  0  0  0  0  0  0  0  0  0  0  0
    2.2590   -0.7427   -2.3261 H   0  0  0  0  0  0  0  0  0  0  0  0
    2.7184   -1.4125   -3.8818 H   0  0  0  0  0  0  0  0  0  0  0  0
    3.5899   -0.0127   -3.2408 H   0  0  0  0  0  0  0  0  0  0  0  0
    5.8701   -0.8570   -2.1596 H   0  0  0  0  0  0  0  0  0  0  0  0
    3.2637   -3.8614   -2.8051 H   0  0  0  0  0  0  0  0  0  0  0  0
    2.2934   -2.7433   -0.2155 H   0  0  0  0  0  0  0  0  0  0  0  0
    2.1989   -5.2735   -1.3466 H   0  0  0  0  0  0  0  0  0  0  0  0
    3.8999   -5.8641    1.3216 H   0  0  0  0  0  0  0  0  0  0  0  0
    5.1119   -5.9422   -0.0097 H   0  0  0  0  0  0  0  0  0  0  0  0
    5.6745   -4.7473    2.5024 H   0  0  0  0  0  0  0  0  0  0  0  0
    7.5906   -3.6552    1.6549 H   0  0  0  0  0  0  0  0  0  0  0  0
    7.4123   -4.9638    0.5698 H   0  0  0  0  0  0  0  0  0  0  0  0
    7.8763   -3.3357   -0.9429 H   0  0  0  0  0  0  0  0  0  0  0  0
    7.3229   -2.0194    0.0279 H   0  0  0  0  0  0  0  0  0  0  0  0
    5.2829   -1.5845    2.5176 H   0  0  0  0  0  0  0  0  0  0  0  0
    3.8589   -1.1826    1.5677 H   0  0  0  0  0  0  0  0  0  0  0  0
    5.3767   -1.4368    0.7863 H   0  0  0  0  0  0  0  0  0  0  0  0
    3.6984   -3.1779    3.5761 H   0  0  0  0  0  0  0  0  0  0  0  0
    2.9706   -4.4953    2.6810 H   0  0  0  0  0  0  0  0  0  0  0  0
    2.4529   -2.8644    2.3612 H   0  0  0  0  0  0  0  0  0  0  0  0
  1  2  1  0
  1 17  1  0
  1 18  1  0
  1 19  1  0
  2  6  1  0
  2  3  2  0
  3  4  1  0
  3 20  1  0
  4 13  1  0
  4  5  2  0
  5  9  1  0
  5  6  1  0
  6  7  1  0
  6 21  1  6
  7  8  1  0
  7  9  1  0
  7 22  1  1
  8 23  1  0
  9 14  1  1
  9 10  1  0
 10 11  1  0
 10 24  1  0
 10 25  1  0
 11 12  1  0
 11 14  1  0
 11 26  1  1
 12 13  1  0
 12 27  1  0
 12 28  1  0
 13 29  1  0
 13 30  1  0
 14 15  1  0
 14 16  1  0
 15 31  1  0
 15 32  1  0
 15 33  1  0
 16 34  1  0
 16 35  1  0
 16 36  1  0
M  END
>  <i_m_ct_stereo_status>  (43) 
1

>  <s_m_source_file>  (43) 
/var/tmp/pbs.5076255.sched01/tmpu5rzjxe4/0gixxd53k.sdf

>  <i_m_source_file_index>  (43) 
15

>  <i_lp_mmshare_version>  (43) 
48012

>  <i_f3d_flags>  (43) 
0

>  <s_epik_input>  (43) 
W09IXVtDQEBIXTFbQ0BIXTJDKFtDSDNdKT1bQ0hdQyg9QzJbQ0BAXTEzNClbQ0gyXVtDSDJdW0NASF0oW0NIMl0zKUM0KFtDSDNdKVtDSDNd

>  <s_epik_cmdline>  (43) 
J2VwaWtfcHl0aG9uJywgJy1waHQnLCAnMi4wJywgJy1waCcsICc3LjAnLCAnLXRuJywgJzgnLCAnLW1hJywgJzIwMCcsICctaW1hZScsICc8aW5maWxlLm1hZT4nLCAnLW9tYWUnLCAnPG91dGZpbGUubWFlPic=

>  <r_lp_tautomer_probability>  (43) 
1

>  <r_epik_Ionization_Penalty>  (43) 
2.32039e-07

>  <r_epik_Ionization_Penalty_Charging>  (43) 
0

>  <r_epik_Ionization_Penalty_Neutral>  (43) 
2.32039e-07

>  <r_epik_State_Penalty>  (43) 
-0

>  <r_epik_Charging_Adjusted_Penalty>  (43) 
0

>  <i_epik_Tot_Q>  (43) 
0

>  <i_epik_Tot_abs_Q>  (43) 
0

>  <s_lp_Force_Field>  (43) 
OPLS3e

>  <r_lp_Energy>  (43) 
58.6749

>  <b_lp_Chiralities_Consistent>  (43) 
1

>  <s_lp_Variant>  (43) 
11:0-1

>  <s_i_glide_gridfile>  (43) 
pfpi4k_grid

>  <i_i_glide_lignum>  (43) 
15

>  <i_i_glide_rotatable_bonds>  (43) 
1

>  <r_i_docking_score>  (43) 
-4.20323

>  <r_i_glide_ligand_efficiency>  (43) 
-0.262702

>  <r_i_glide_ligand_efficiency_sa>  (43) 
-0.661967

>  <r_i_glide_ligand_efficiency_ln>  (43) 
-1.11415

>  <r_i_glide_gscore>  (43) 
-4.20323

>  <r_i_glide_lipo>  (43) 
-0.386699

>  <r_i_glide_hbond>  (43) 
-0.326068

>  <r_i_glide_metal>  (43) 
-0

>  <r_i_glide_rewards>  (43) 
-1.93419

>  <r_i_glide_evdw>  (43) 
-14.7349

>  <r_i_glide_ecoul>  (43) 
-5.46352

>  <r_i_glide_erotb>  (43) 
0

>  <r_i_glide_esite>  (43) 
0

>  <r_i_glide_emodel>  (43) 
-24.8755

>  <r_i_glide_energy>  (43) 
-20.1984

>  <r_i_glide_einternal>  (43) 
0.303919

>  <r_i_glide_intrahb_reward>  (43) 
-0

>  <i_i_glide_confnum>  (43) 
2

>  <i_i_glide_posenum>  (43) 
12

>  <r_i_glide_eff_state_penalty>  (43) 
0

>  <ligand_id>  (43) 
11

>  <original_smiles>  (43) 
CC1=CC2=C3C1C(O)C31CC(CC2)C1(C)C

>  <smiles>  (43) 
[H]OC1([H])C2([H])C(C([H])([H])[H])=C([H])C3=C2C12C([H])([H])C([H])(C([H])([H])C3([H])[H])C2(C([H])([H])[H])C([H])([H])[H]

$$$$
11:0:2
     RDKit          3D

 36 39  0  0  1  0  0  0  0  0999 V2000
    2.6652   -0.5056   -4.6507 C   0  0  0  0  0  0  0  0  0  0  0  0
    3.6690   -0.9145   -3.5841 C   0  0  0  0  0  0  0  0  0  0  0  0
    4.2704   -0.1633   -2.6620 C   0  0  0  0  0  0  0  0  0  0  0  0
    5.1949   -0.9374   -1.8509 C   0  0  0  0  0  0  0  0  0  0  0  0
    5.1956   -2.1056   -2.4562 C   0  0  0  0  0  0  0  0  0  0  0  0
    4.4058   -2.1892   -3.7450 C   0  0  1  0  0  0  0  0  0  0  0  0
    3.9190   -3.5293   -3.1993 C   0  0  1  0  0  0  0  0  0  0  0  0
    4.3263   -4.5615   -4.0444 O   0  0  0  0  0  0  0  0  0  0  0  0
    4.6741   -3.3760   -1.8532 C   0  0  1  0  0  0  0  0  0  0  0  0
    5.8521   -4.0849   -1.2149 C   0  0  0  0  0  0  0  0  0  0  0  0
    5.4263   -3.3472    0.0872 C   0  0  1  0  0  0  0  0  0  0  0  0
    6.0687   -1.9842    0.4068 C   0  0  0  0  0  0  0  0  0  0  0  0
    5.6189   -0.7131   -0.3792 C   0  0  0  0  0  0  0  0  0  0  0  0
    3.9788   -3.4278   -0.4671 C   0  0  0  0  0  0  0  0  0  0  0  0
    2.9397   -2.4126   -0.0475 C   0  0  0  0  0  0  0  0  0  0  0  0
    3.2138   -4.7354   -0.2033 C   0  0  0  0  0  0  0  0  0  0  0  0
    1.8461   -1.2353   -4.6555 H   0  0  0  0  0  0  0  0  0  0  0  0
    3.1187   -0.5005   -5.6523 H   0  0  0  0  0  0  0  0  0  0  0  0
    2.2648    0.4774   -4.4418 H   0  0  0  0  0  0  0  0  0  0  0  0
    4.0525    0.8935   -2.5984 H   0  0  0  0  0  0  0  0  0  0  0  0
    4.9427   -2.2125   -4.6656 H   0  0  0  0  0  0  0  0  0  0  0  0
    2.8310   -3.5552   -3.0971 H   0  0  0  0  0  0  0  0  0  0  0  0
    3.9577   -5.3684   -3.6446 H   0  0  0  0  0  0  0  0  0  0  0  0
    5.7699   -5.1579   -1.0751 H   0  0  0  0  0  0  0  0  0  0  0  0
    6.8321   -3.7974   -1.5994 H   0  0  0  0  0  0  0  0  0  0  0  0
    5.5369   -4.0340    0.9417 H   0  0  0  0  0  0  0  0  0  0  0  0
    5.9222   -1.7508    1.4595 H   0  0  0  0  0  0  0  0  0  0  0  0
    7.1507   -2.0566    0.3038 H   0  0  0  0  0  0  0  0  0  0  0  0
    6.4847   -0.0353   -0.2924 H   0  0  0  0  0  0  0  0  0  0  0  0
    4.8398   -0.1447    0.1398 H   0  0  0  0  0  0  0  0  0  0  0  0
    2.8363   -2.3934    1.0445 H   0  0  0  0  0  0  0  0  0  0  0  0
    1.9980   -2.7069   -0.5058 H   0  0  0  0  0  0  0  0  0  0  0  0
    3.1434   -1.3888   -0.3734 H   0  0  0  0  0  0  0  0  0  0  0  0
    2.9008   -4.8171    0.8419 H   0  0  0  0  0  0  0  0  0  0  0  0
    3.7863   -5.6293   -0.4588 H   0  0  0  0  0  0  0  0  0  0  0  0
    2.3139   -4.7520   -0.8229 H   0  0  0  0  0  0  0  0  0  0  0  0
  1  2  1  0
  1 17  1  0
  1 18  1  0
  1 19  1  0
  2  6  1  0
  2  3  2  0
  3  4  1  0
  3 20  1  0
  4 13  1  0
  4  5  2  0
  5  9  1  0
  5  6  1  0
  6  7  1  0
  6 21  1  6
  7  8  1  0
  7  9  1  0
  7 22  1  1
  8 23  1  0
  9 14  1  1
  9 10  1  0
 10 11  1  0
 10 24  1  0
 10 25  1  0
 11 12  1  0
 11 14  1  0
 11 26  1  1
 12 13  1  0
 12 27  1  0
 12 28  1  0
 13 29  1  0
 13 30  1  0
 14 15  1  0
 14 16  1  0
 15 31  1  0
 15 32  1  0
 15 33  1  0
 16 34  1  0
 16 35  1  0
 16 36  1  0
M  END
>  <i_m_ct_stereo_status>  (44) 
1

>  <s_m_source_file>  (44) 
/var/tmp/pbs.5076255.sched01/tmpu5rzjxe4/0gixxd53k.sdf

>  <i_m_source_file_index>  (44) 
15

>  <i_lp_mmshare_version>  (44) 
48012

>  <i_f3d_flags>  (44) 
0

>  <s_epik_input>  (44) 
W09IXVtDQEBIXTFbQ0BIXTJDKFtDSDNdKT1bQ0hdQyg9QzJbQ0BAXTEzNClbQ0gyXVtDSDJdW0NASF0oW0NIMl0zKUM0KFtDSDNdKVtDSDNd

>  <s_epik_cmdline>  (44) 
J2VwaWtfcHl0aG9uJywgJy1waHQnLCAnMi4wJywgJy1waCcsICc3LjAnLCAnLXRuJywgJzgnLCAnLW1hJywgJzIwMCcsICctaW1hZScsICc8aW5maWxlLm1hZT4nLCAnLW9tYWUnLCAnPG91dGZpbGUubWFlPic=

>  <r_lp_tautomer_probability>  (44) 
1

>  <r_epik_Ionization_Penalty>  (44) 
2.32039e-07

>  <r_epik_Ionization_Penalty_Charging>  (44) 
0

>  <r_epik_Ionization_Penalty_Neutral>  (44) 
2.32039e-07

>  <r_epik_State_Penalty>  (44) 
-0

>  <r_epik_Charging_Adjusted_Penalty>  (44) 
0

>  <i_epik_Tot_Q>  (44) 
0

>  <i_epik_Tot_abs_Q>  (44) 
0

>  <s_lp_Force_Field>  (44) 
OPLS3e

>  <r_lp_Energy>  (44) 
58.6749

>  <b_lp_Chiralities_Consistent>  (44) 
1

>  <s_lp_Variant>  (44) 
11:0-1

>  <s_i_glide_gridfile>  (44) 
pfpi4k_grid

>  <i_i_glide_lignum>  (44) 
15

>  <i_i_glide_rotatable_bonds>  (44) 
1

>  <r_i_docking_score>  (44) 
-4.16639

>  <r_i_glide_ligand_efficiency>  (44) 
-0.260399

>  <r_i_glide_ligand_efficiency_sa>  (44) 
-0.656165

>  <r_i_glide_ligand_efficiency_ln>  (44) 
-1.10438

>  <r_i_glide_gscore>  (44) 
-4.16639

>  <r_i_glide_lipo>  (44) 
-0.898531

>  <r_i_glide_hbond>  (44) 
-0.32

>  <r_i_glide_metal>  (44) 
-0

>  <r_i_glide_rewards>  (44) 
-1.93419

>  <r_i_glide_evdw>  (44) 
0.579563

>  <r_i_glide_ecoul>  (44) 
-6.95096

>  <r_i_glide_erotb>  (44) 
0

>  <r_i_glide_esite>  (44) 
0

>  <r_i_glide_emodel>  (44) 
-8.46778

>  <r_i_glide_energy>  (44) 
-6.3714

>  <r_i_glide_einternal>  (44) 
1.28847

>  <r_i_glide_intrahb_reward>  (44) 
-0

>  <i_i_glide_confnum>  (44) 
1

>  <i_i_glide_posenum>  (44) 
21

>  <r_i_glide_eff_state_penalty>  (44) 
0

>  <ligand_id>  (44) 
11

>  <original_smiles>  (44) 
CC1=CC2=C3C1C(O)C31CC(CC2)C1(C)C

>  <smiles>  (44) 
[H]OC1([H])C2([H])C(C([H])([H])[H])=C([H])C3=C2C12C([H])([H])C([H])(C([H])([H])C3([H])[H])C2(C([H])([H])[H])C([H])([H])[H]

$$$$
12:0:0
     RDKit          3D

 45 51  0  0  1  0  0  0  0  0999 V2000
    7.7252   -5.2220    2.2593 C   0  0  0  0  0  0  0  0  0  0  0  0
    6.7287   -4.4575    1.5121 N   0  0  0  0  0  0  0  0  0  0  0  0
    5.4286   -3.9452    2.2634 C   0  0  0  0  0  0  0  0  0  0  0  0
    5.3670   -3.9146    3.6668 C   0  0  0  0  0  0  0  0  0  0  0  0
    4.2874   -3.3116    4.3363 C   0  0  0  0  0  0  0  0  0  0  0  0
    3.2427   -2.6963    3.6295 C   0  0  0  0  0  0  0  0  0  0  0  0
    3.2137   -2.6838    2.2235 C   0  0  0  0  0  0  0  0  0  0  0  0
    4.2292   -3.2866    1.4496 C   0  0  0  0  0  0  0  0  0  0  0  0
    3.8649   -3.3734   -0.2364 C   0  0  1  0  0  0  0  0  0  0  0  0
    4.9684   -4.2052   -0.1131 C   0  0  0  0  0  0  0  0  0  0  0  0
    4.8138   -5.4785   -0.0441 O   0  0  0  0  0  0  0  0  0  0  0  0
    6.4218   -3.2302    0.2584 C   0  0  0  0  0  0  0  0  0  0  0  0
    7.1257   -4.2476   -0.1240 C   0  0  2  0  0  0  0  0  0  0  0  0
    6.5771   -3.5330   -1.8935 C   0  0  2  0  0  0  0  0  0  0  0  0
    5.7901   -2.1679   -1.7713 C   0  0  2  0  0  0  0  0  0  0  0  0
    4.8605   -3.5290   -1.4826 C   0  0  1  0  0  0  0  0  0  0  0  0
    5.1203   -3.2820   -2.8735 C   0  0  2  0  0  0  0  0  0  0  0  0
    4.2139   -3.8920   -4.0118 C   0  0  0  0  0  0  0  0  0  0  0  0
    2.6915   -3.5310   -3.6862 C   0  0  0  0  0  0  0  0  0  0  0  0
    2.3831   -3.0602   -2.2172 C   0  0  0  0  0  0  0  0  0  0  0  0
    3.3528   -2.4747   -1.4405 C   0  0  0  0  0  0  0  0  0  0  0  0
    4.5077   -2.0159   -2.3756 C   0  0  1  0  0  0  0  0  0  0  0  0
    4.3108   -0.7412   -3.2280 C   0  0  0  0  0  0  0  0  0  0  0  0
    3.0271   -0.5292   -3.7627 O   0  0  0  0  0  0  0  0  0  0  0  0
    7.3628   -5.5895    3.2175 H   0  0  0  0  0  0  0  0  0  0  0  0
    8.6194   -4.6238    2.4481 H   0  0  0  0  0  0  0  0  0  0  0  0
    8.0650   -6.0822    1.6793 H   0  0  0  0  0  0  0  0  0  0  0  0
    6.1624   -4.3195    4.2770 H   0  0  0  0  0  0  0  0  0  0  0  0
    4.2740   -3.3184    5.4173 H   0  0  0  0  0  0  0  0  0  0  0  0
    2.4345   -2.2540    4.1860 H   0  0  0  0  0  0  0  0  0  0  0  0
    2.3651   -2.2324    1.7272 H   0  0  0  0  0  0  0  0  0  0  0  0
    7.1694   -2.5875   -0.2089 H   0  0  0  0  0  0  0  0  0  0  0  0
    6.4948   -2.4625    1.0551 H   0  0  0  0  0  0  0  0  0  0  0  0
    8.2075   -4.1355   -0.0829 H   0  0  0  0  0  0  0  0  0  0  0  0
    7.4357   -3.4397   -2.5514 H   0  0  0  0  0  0  0  0  0  0  0  0
    5.9126   -1.3934   -1.0076 H   0  0  0  0  0  0  0  0  0  0  0  0
    4.6301   -4.4952   -2.1025 H   0  0  0  0  0  0  0  0  0  0  0  0
    4.4792   -3.4147   -4.9398 H   0  0  0  0  0  0  0  0  0  0  0  0
    4.3572   -4.9647   -4.1840 H   0  0  0  0  0  0  0  0  0  0  0  0
    2.2906   -2.7921   -4.3695 H   0  0  0  0  0  0  0  0  0  0  0  0
    2.1005   -4.4052   -3.9155 H   0  0  0  0  0  0  0  0  0  0  0  0
    1.6470   -3.6891   -1.7296 H   0  0  0  0  0  0  0  0  0  0  0  0
    4.5438    0.1459   -2.6323 H   0  0  0  0  0  0  0  0  0  0  0  0
    4.9933   -0.7547   -4.0759 H   0  0  0  0  0  0  0  0  0  0  0  0
    2.3932   -0.6744   -3.0676 H   0  0  0  0  0  0  0  0  0  0  0  0
  1  2  1  0
  1 25  1  0
  1 26  1  0
  1 27  1  0
  2 13  1  0
  2  3  1  0
  3  8  2  0
  3  4  1  0
  4  5  2  0
  4 28  1  0
  5  6  1  0
  5 29  1  0
  6  7  2  0
  6 30  1  0
  7  8  1  0
  7 31  1  0
  9  8  1  1
  9 16  1  0
  9 21  1  0
  9 10  1  0
 10 11  2  0
 10 12  1  0
 12 13  1  0
 12 32  1  0
 12 33  1  0
 13 14  1  0
 13 34  1  6
 14 17  1  0
 14 15  1  0
 14 35  1  6
 15 22  1  0
 15 16  1  0
 15 36  1  1
 16 17  1  0
 16 37  1  1
 17 22  1  0
 17 18  1  6
 18 19  1  0
 18 38  1  0
 18 39  1  0
 19 20  1  0
 19 40  1  0
 19 41  1  0
 20 21  2  0
 20 42  1  0
 21 22  1  0
 22 23  1  6
 23 24  1  0
 23 43  1  0
 23 44  1  0
 24 45  1  0
M  END
>  <i_m_ct_stereo_status>  (45) 
1

>  <s_m_source_file>  (45) 
/var/tmp/pbs.5076255.sched01/tmpu5rzjxe4/0gixxd53k.sdf

>  <i_m_source_file_index>  (45) 
16

>  <i_lp_mmshare_version>  (45) 
48012

>  <i_f3d_flags>  (45) 
0

>  <s_epik_input>  (45) 
W2NIXTFbY0hdW2NIXVtjSF1jKGMxQzIzNClOKFtDSDNdKVtDQEhdKFtDSDJdQzI9TylbQ0BIXTVbQ0BdNjdbQ0BIXTNbQ0BASF01W0NAXTcoW0NIMl1bT0hdKUM0PVtDSF1bQ0gyXVtDSDJdNg==

>  <s_epik_cmdline>  (45) 
J2VwaWtfcHl0aG9uJywgJy1waHQnLCAnMi4wJywgJy1waCcsICc3LjAnLCAnLXRuJywgJzgnLCAnLW1hJywgJzIwMCcsICctaW1hZScsICc8aW5maWxlLm1hZT4nLCAnLW9tYWUnLCAnPG91dGZpbGUubWFlPic=

>  <r_lp_tautomer_probability>  (45) 
0.99995

>  <r_epik_Ionization_Penalty>  (45) 
0.101406

>  <r_epik_Ionization_Penalty_Charging>  (45) 
0

>  <r_epik_Ionization_Penalty_Neutral>  (45) 
0.101406

>  <r_epik_State_Penalty>  (45) 
0.0913973

>  <r_epik_Charging_Adjusted_Penalty>  (45) 
0.0913973

>  <i_epik_Tot_Q>  (45) 
0

>  <i_epik_Tot_abs_Q>  (45) 
0

>  <s_lp_Force_Field>  (45) 
OPLS3e

>  <r_lp_Energy>  (45) 
1022.11

>  <b_lp_Chiralities_Consistent>  (45) 
1

>  <s_lp_Variant>  (45) 
12:0-1

>  <s_i_glide_gridfile>  (45) 
pfpi4k_grid

>  <i_i_glide_lignum>  (45) 
16

>  <i_i_glide_rotatable_bonds>  (45) 
2

>  <r_i_docking_score>  (45) 
-3.38398

>  <r_i_glide_ligand_efficiency>  (45) 
-0.140999

>  <r_i_glide_ligand_efficiency_sa>  (45) 
-0.406712

>  <r_i_glide_ligand_efficiency_ln>  (45) 
-0.809942

>  <r_i_glide_gscore>  (45) 
-3.38398

>  <r_i_glide_lipo>  (45) 
-1.02526

>  <r_i_glide_hbond>  (45) 
0

>  <r_i_glide_metal>  (45) 
-0

>  <r_i_glide_rewards>  (45) 
-1.41948

>  <r_i_glide_evdw>  (45) 
-21.2955

>  <r_i_glide_ecoul>  (45) 
-0.382491

>  <r_i_glide_erotb>  (45) 
0.182898

>  <r_i_glide_esite>  (45) 
0

>  <r_i_glide_emodel>  (45) 
-25.6365

>  <r_i_glide_energy>  (45) 
-21.678

>  <r_i_glide_einternal>  (45) 
2.38343

>  <r_i_glide_intrahb_reward>  (45) 
-0

>  <i_i_glide_confnum>  (45) 
6

>  <i_i_glide_posenum>  (45) 
5

>  <r_i_glide_eff_state_penalty>  (45) 
0

>  <ligand_id>  (45) 
12

>  <original_smiles>  (45) 
CN1c2ccccc2C23C(=O)CC1C1C4C2C12CCC=C3C42CO

>  <smiles>  (45) 
[H]OC([H])([H])C12C3=C([H])C([H])([H])C([H])([H])C14C1([H])C35C(=O)C([H])([H])C([H])(N(C([H])([H])[H])c3c([H])c([H])c([H])c([H])c35)C4([H])C12[H]

$$$$
12:0:1
     RDKit          3D

 45 51  0  0  1  0  0  0  0  0999 V2000
    6.5613   -0.8788    0.5484 C   0  0  0  0  0  0  0  0  0  0  0  0
    5.7880   -2.1076    0.4172 N   0  0  0  0  0  0  0  0  0  0  0  0
    4.6085   -2.1586   -0.6389 C   0  0  0  0  0  0  0  0  0  0  0  0
    4.5126   -1.1940   -1.6410 C   0  0  0  0  0  0  0  0  0  0  0  0
    3.5682   -1.3205   -2.6738 C   0  0  0  0  0  0  0  0  0  0  0  0
    2.7214   -2.4336   -2.7539 C   0  0  0  0  0  0  0  0  0  0  0  0
    2.7368   -3.4463   -1.7929 C   0  0  0  0  0  0  0  0  0  0  0  0
    3.6405   -3.4095   -0.6948 C   0  0  0  0  0  0  0  0  0  0  0  0
    3.3533   -4.6414    0.4745 C   0  0  1  0  0  0  0  0  0  0  0  0
    4.2367   -3.7941    1.1313 C   0  0  0  0  0  0  0  0  0  0  0  0
    3.7996   -2.9505    1.9996 O   0  0  0  0  0  0  0  0  0  0  0  0
    5.8545   -3.8950    0.3632 C   0  0  0  0  0  0  0  0  0  0  0  0
    6.3123   -3.3449    1.4450 C   0  0  2  0  0  0  0  0  0  0  0  0
    6.0263   -5.2058    2.1155 C   0  0  2  0  0  0  0  0  0  0  0  0
    5.5674   -6.1930    0.9415 C   0  0  2  0  0  0  0  0  0  0  0  0
    4.3513   -5.2573    1.5683 C   0  0  1  0  0  0  0  0  0  0  0  0
    4.7119   -6.3637    2.4129 C   0  0  2  0  0  0  0  0  0  0  0  0
    3.7420   -6.9409    3.5327 C   0  0  0  0  0  0  0  0  0  0  0  0
    2.3016   -7.1759    2.8704 C   0  0  0  0  0  0  0  0  0  0  0  0
    2.0599   -6.5437    1.4506 C   0  0  0  0  0  0  0  0  0  0  0  0
    3.0970   -6.2098    0.6193 C   0  0  0  0  0  0  0  0  0  0  0  0
    4.3762   -6.9848    1.0948 C   0  0  1  0  0  0  0  0  0  0  0  0
    4.5271   -8.4833    0.7329 C   0  0  0  0  0  0  0  0  0  0  0  0
    3.4711   -9.3786    1.0655 O   0  0  0  0  0  0  0  0  0  0  0  0
    6.0605   -0.0135    0.1232 H   0  0  0  0  0  0  0  0  0  0  0  0
    7.5393   -1.0144    0.0795 H   0  0  0  0  0  0  0  0  0  0  0  0
    6.7347   -0.6661    1.6064 H   0  0  0  0  0  0  0  0  0  0  0  0
    5.1587   -0.3315   -1.6428 H   0  0  0  0  0  0  0  0  0  0  0  0
    3.4865   -0.5173   -3.3861 H   0  0  0  0  0  0  0  0  0  0  0  0
    1.9925   -2.4646   -3.5444 H   0  0  0  0  0  0  0  0  0  0  0  0
    2.0202   -4.2527   -1.8704 H   0  0  0  0  0  0  0  0  0  0  0  0
    6.7588   -4.5167    0.3488 H   0  0  0  0  0  0  0  0  0  0  0  0
    6.0671   -3.8010   -0.7244 H   0  0  0  0  0  0  0  0  0  0  0  0
    7.3898   -3.1902    1.4735 H   0  0  0  0  0  0  0  0  0  0  0  0
    6.9201   -5.5860    2.6034 H   0  0  0  0  0  0  0  0  0  0  0  0
    5.8223   -6.1249   -0.1216 H   0  0  0  0  0  0  0  0  0  0  0  0
    3.9048   -5.1240    2.6323 H   0  0  0  0  0  0  0  0  0  0  0  0
    4.1523   -7.9055    3.8218 H   0  0  0  0  0  0  0  0  0  0  0  0
    3.6765   -6.3259    4.4444 H   0  0  0  0  0  0  0  0  0  0  0  0
    2.0559   -8.2335    2.8230 H   0  0  0  0  0  0  0  0  0  0  0  0
    1.5430   -6.8056    3.5519 H   0  0  0  0  0  0  0  0  0  0  0  0
    1.2013   -5.8992    1.4346 H   0  0  0  0  0  0  0  0  0  0  0  0
    4.6466   -8.5458   -0.3357 H   0  0  0  0  0  0  0  0  0  0  0  0
    5.4500   -8.8691    1.1667 H   0  0  0  0  0  0  0  0  0  0  0  0
    3.7833  -10.2785    0.9169 H   0  0  0  0  0  0  0  0  0  0  0  0
  1  2  1  0
  1 25  1  0
  1 26  1  0
  1 27  1  0
  2 13  1  0
  2  3  1  0
  3  8  2  0
  3  4  1  0
  4  5  2  0
  4 28  1  0
  5  6  1  0
  5 29  1  0
  6  7  2  0
  6 30  1  0
  7  8  1  0
  7 31  1  0
  9  8  1  6
  9 16  1  0
  9 21  1  0
  9 10  1  0
 10 11  2  0
 10 12  1  0
 12 13  1  0
 12 32  1  0
 12 33  1  0
 13 14  1  0
 13 34  1  6
 14 17  1  0
 14 15  1  0
 14 35  1  1
 15 22  1  0
 15 16  1  0
 15 36  1  6
 16 17  1  0
 16 37  1  1
 17 22  1  0
 17 18  1  1
 18 19  1  0
 18 38  1  0
 18 39  1  0
 19 20  1  0
 19 40  1  0
 19 41  1  0
 20 21  2  0
 20 42  1  0
 21 22  1  0
 22 23  1  1
 23 24  1  0
 23 43  1  0
 23 44  1  0
 24 45  1  0
M  END
>  <i_m_ct_stereo_status>  (46) 
1

>  <s_m_source_file>  (46) 
/var/tmp/pbs.5076255.sched01/tmpu5rzjxe4/0gixxd53k.sdf

>  <i_m_source_file_index>  (46) 
16

>  <i_lp_mmshare_version>  (46) 
48012

>  <i_f3d_flags>  (46) 
0

>  <s_epik_input>  (46) 
W2NIXTFbY0hdW2NIXVtjSF1jKGMxQzIzNClOKFtDSDNdKVtDQEhdKFtDSDJdQzI9TylbQ0BIXTVbQ0BdNjdbQ0BIXTNbQ0BASF01W0NAXTcoW0NIMl1bT0hdKUM0PVtDSF1bQ0gyXVtDSDJdNg==

>  <s_epik_cmdline>  (46) 
J2VwaWtfcHl0aG9uJywgJy1waHQnLCAnMi4wJywgJy1waCcsICc3LjAnLCAnLXRuJywgJzgnLCAnLW1hJywgJzIwMCcsICctaW1hZScsICc8aW5maWxlLm1hZT4nLCAnLW9tYWUnLCAnPG91dGZpbGUubWFlPic=

>  <r_lp_tautomer_probability>  (46) 
0.99995

>  <r_epik_Ionization_Penalty>  (46) 
0.101406

>  <r_epik_Ionization_Penalty_Charging>  (46) 
0

>  <r_epik_Ionization_Penalty_Neutral>  (46) 
0.101406

>  <r_epik_State_Penalty>  (46) 
0.0913973

>  <r_epik_Charging_Adjusted_Penalty>  (46) 
0.0913973

>  <i_epik_Tot_Q>  (46) 
0

>  <i_epik_Tot_abs_Q>  (46) 
0

>  <s_lp_Force_Field>  (46) 
OPLS3e

>  <r_lp_Energy>  (46) 
1022.11

>  <b_lp_Chiralities_Consistent>  (46) 
1

>  <s_lp_Variant>  (46) 
12:0-1

>  <s_i_glide_gridfile>  (46) 
pfpi4k_grid

>  <i_i_glide_lignum>  (46) 
16

>  <i_i_glide_rotatable_bonds>  (46) 
2

>  <r_i_docking_score>  (46) 
-3.23974

>  <r_i_glide_ligand_efficiency>  (46) 
-0.134989

>  <r_i_glide_ligand_efficiency_sa>  (46) 
-0.389376

>  <r_i_glide_ligand_efficiency_ln>  (46) 
-0.775418

>  <r_i_glide_gscore>  (46) 
-3.23974

>  <r_i_glide_lipo>  (46) 
-0.568148

>  <r_i_glide_hbond>  (46) 
-0.16

>  <r_i_glide_metal>  (46) 
-0

>  <r_i_glide_rewards>  (46) 
-1.33921

>  <r_i_glide_evdw>  (46) 
-22.8083

>  <r_i_glide_ecoul>  (46) 
-1.43242

>  <r_i_glide_erotb>  (46) 
0.182898

>  <r_i_glide_esite>  (46) 
0

>  <r_i_glide_emodel>  (46) 
-27.7541

>  <r_i_glide_energy>  (46) 
-24.2408

>  <r_i_glide_einternal>  (46) 
2.79056

>  <r_i_glide_intrahb_reward>  (46) 
-0

>  <i_i_glide_confnum>  (46) 
3

>  <i_i_glide_posenum>  (46) 
9

>  <r_i_glide_eff_state_penalty>  (46) 
0

>  <ligand_id>  (46) 
12

>  <original_smiles>  (46) 
CN1c2ccccc2C23C(=O)CC1C1C4C2C12CCC=C3C42CO

>  <smiles>  (46) 
[H]OC([H])([H])C12C3=C([H])C([H])([H])C([H])([H])C14C1([H])C35C(=O)C([H])([H])C([H])(N(C([H])([H])[H])c3c([H])c([H])c([H])c([H])c35)C4([H])C12[H]

$$$$
12:0:2
     RDKit          3D

 45 51  0  0  1  0  0  0  0  0999 V2000
    7.1687   -1.1870    0.5179 C   0  0  0  0  0  0  0  0  0  0  0  0
    6.2482   -2.3093    0.4002 N   0  0  0  0  0  0  0  0  0  0  0  0
    5.0288   -2.1858   -0.6096 C   0  0  0  0  0  0  0  0  0  0  0  0
    4.9987   -1.1774   -1.5859 C   0  0  0  0  0  0  0  0  0  0  0  0
    4.0033   -1.1473   -2.5815 C   0  0  0  0  0  0  0  0  0  0  0  0
    3.0219   -2.1506   -2.6534 C   0  0  0  0  0  0  0  0  0  0  0  0
    2.9719   -3.1924   -1.7111 C   0  0  0  0  0  0  0  0  0  0  0  0
    3.9025   -3.3083   -0.6526 C   0  0  0  0  0  0  0  0  0  0  0  0
    3.4961   -4.5134    0.5155 C   0  0  1  0  0  0  0  0  0  0  0  0
    4.4994   -3.7901    1.1489 C   0  0  0  0  0  0  0  0  0  0  0  0
    4.2069   -2.8978    2.0188 O   0  0  0  0  0  0  0  0  0  0  0  0
    6.0668   -4.0658    0.3311 C   0  0  0  0  0  0  0  0  0  0  0  0
    6.6412   -3.6161    1.4011 C   0  0  2  0  0  0  0  0  0  0  0  0
    6.1528   -5.4272    2.0370 C   0  0  2  0  0  0  0  0  0  0  0  0
    5.5429   -6.3142    0.8664 C   0  0  2  0  0  0  0  0  0  0  0  0
    4.4530   -5.2565    1.5647 C   0  0  1  0  0  0  0  0  0  0  0  0
    4.7194   -6.4175    2.3586 C   0  0  2  0  0  0  0  0  0  0  0  0
    3.7309   -6.9542    3.4713 C   0  0  0  0  0  0  0  0  0  0  0  0
    2.2659   -7.0560    2.8300 C   0  0  0  0  0  0  0  0  0  0  0  0
    2.0470   -6.2898    1.4774 C   0  0  0  0  0  0  0  0  0  0  0  0
    3.0933   -6.0448    0.6246 C   0  0  0  0  0  0  0  0  0  0  0  0
    4.2953   -6.9589    1.0401 C   0  0  1  0  0  0  0  0  0  0  0  0
    4.2059   -8.4596    0.6994 C   0  0  0  0  0  0  0  0  0  0  0  0
    5.2949   -9.1844    1.2388 O   0  0  0  0  0  0  0  0  0  0  0  0
    6.7689   -0.2500    0.1380 H   0  0  0  0  0  0  0  0  0  0  0  0
    8.1162   -1.4114    0.0215 H   0  0  0  0  0  0  0  0  0  0  0  0
    7.4022   -1.0331    1.5708 H   0  0  0  0  0  0  0  0  0  0  0  0
    5.7355   -0.3909   -1.6195 H   0  0  0  0  0  0  0  0  0  0  0  0
    3.9865   -0.3334   -3.2968 H   0  0  0  0  0  0  0  0  0  0  0  0
    2.2611   -2.0862   -3.4171 H   0  0  0  0  0  0  0  0  0  0  0  0
    2.1661   -3.9073   -1.7862 H   0  0  0  0  0  0  0  0  0  0  0  0
    6.8744   -4.7928    0.2486 H   0  0  0  0  0  0  0  0  0  0  0  0
    6.2341   -4.0029   -0.7623 H   0  0  0  0  0  0  0  0  0  0  0  0
    7.7294   -3.5979    1.3810 H   0  0  0  0  0  0  0  0  0  0  0  0
    7.0110   -5.9337    2.4604 H   0  0  0  0  0  0  0  0  0  0  0  0
    5.7480   -6.2567   -0.2048 H   0  0  0  0  0  0  0  0  0  0  0  0
    4.0915   -5.0988    2.6589 H   0  0  0  0  0  0  0  0  0  0  0  0
    4.0331   -7.9588    3.7686 H   0  0  0  0  0  0  0  0  0  0  0  0
    3.7328   -6.3508    4.3828 H   0  0  0  0  0  0  0  0  0  0  0  0
    1.9776   -8.0951    2.6734 H   0  0  0  0  0  0  0  0  0  0  0  0
    1.5452   -6.6941    3.5583 H   0  0  0  0  0  0  0  0  0  0  0  0
    1.2539   -5.5575    1.5515 H   0  0  0  0  0  0  0  0  0  0  0  0
    3.2846   -8.9219    1.0505 H   0  0  0  0  0  0  0  0  0  0  0  0
    4.2156   -8.6042   -0.3769 H   0  0  0  0  0  0  0  0  0  0  0  0
    5.1257  -10.1104    1.1161 H   0  0  0  0  0  0  0  0  0  0  0  0
  1  2  1  0
  1 25  1  0
  1 26  1  0
  1 27  1  0
  2 13  1  0
  2  3  1  0
  3  8  2  0
  3  4  1  0
  4  5  2  0
  4 28  1  0
  5  6  1  0
  5 29  1  0
  6  7  2  0
  6 30  1  0
  7  8  1  0
  7 31  1  0
  9  8  1  6
  9 16  1  0
  9 21  1  0
  9 10  1  0
 10 11  2  0
 10 12  1  0
 12 13  1  0
 12 32  1  0
 12 33  1  0
 13 14  1  0
 13 34  1  6
 14 17  1  0
 14 15  1  0
 14 35  1  1
 15 22  1  0
 15 16  1  0
 15 36  1  6
 16 17  1  0
 16 37  1  1
 17 22  1  0
 17 18  1  1
 18 19  1  0
 18 38  1  0
 18 39  1  0
 19 20  1  0
 19 40  1  0
 19 41  1  0
 20 21  2  0
 20 42  1  0
 21 22  1  0
 22 23  1  1
 23 24  1  0
 23 43  1  0
 23 44  1  0
 24 45  1  0
M  END
>  <i_m_ct_stereo_status>  (47) 
1

>  <s_m_source_file>  (47) 
/var/tmp/pbs.5076255.sched01/tmpu5rzjxe4/0gixxd53k.sdf

>  <i_m_source_file_index>  (47) 
16

>  <i_lp_mmshare_version>  (47) 
48012

>  <i_f3d_flags>  (47) 
0

>  <s_epik_input>  (47) 
W2NIXTFbY0hdW2NIXVtjSF1jKGMxQzIzNClOKFtDSDNdKVtDQEhdKFtDSDJdQzI9TylbQ0BIXTVbQ0BdNjdbQ0BIXTNbQ0BASF01W0NAXTcoW0NIMl1bT0hdKUM0PVtDSF1bQ0gyXVtDSDJdNg==

>  <s_epik_cmdline>  (47) 
J2VwaWtfcHl0aG9uJywgJy1waHQnLCAnMi4wJywgJy1waCcsICc3LjAnLCAnLXRuJywgJzgnLCAnLW1hJywgJzIwMCcsICctaW1hZScsICc8aW5maWxlLm1hZT4nLCAnLW9tYWUnLCAnPG91dGZpbGUubWFlPic=

>  <r_lp_tautomer_probability>  (47) 
0.99995

>  <r_epik_Ionization_Penalty>  (47) 
0.101406

>  <r_epik_Ionization_Penalty_Charging>  (47) 
0

>  <r_epik_Ionization_Penalty_Neutral>  (47) 
0.101406

>  <r_epik_State_Penalty>  (47) 
0.0913973

>  <r_epik_Charging_Adjusted_Penalty>  (47) 
0.0913973

>  <i_epik_Tot_Q>  (47) 
0

>  <i_epik_Tot_abs_Q>  (47) 
0

>  <s_lp_Force_Field>  (47) 
OPLS3e

>  <r_lp_Energy>  (47) 
1022.11

>  <b_lp_Chiralities_Consistent>  (47) 
1

>  <s_lp_Variant>  (47) 
12:0-1

>  <s_i_glide_gridfile>  (47) 
pfpi4k_grid

>  <i_i_glide_lignum>  (47) 
16

>  <i_i_glide_rotatable_bonds>  (47) 
2

>  <r_i_docking_score>  (47) 
-3.06533

>  <r_i_glide_ligand_efficiency>  (47) 
-0.127722

>  <r_i_glide_ligand_efficiency_sa>  (47) 
-0.368414

>  <r_i_glide_ligand_efficiency_ln>  (47) 
-0.733674

>  <r_i_glide_gscore>  (47) 
-3.06533

>  <r_i_glide_lipo>  (47) 
-0.538152

>  <r_i_glide_hbond>  (47) 
-0.0193391

>  <r_i_glide_metal>  (47) 
-0

>  <r_i_glide_rewards>  (47) 
-1.35927

>  <r_i_glide_evdw>  (47) 
-24.19

>  <r_i_glide_ecoul>  (47) 
-0.813123

>  <r_i_glide_erotb>  (47) 
0.182898

>  <r_i_glide_esite>  (47) 
0

>  <r_i_glide_emodel>  (47) 
-28.8963

>  <r_i_glide_energy>  (47) 
-25.0032

>  <r_i_glide_einternal>  (47) 
1.49652

>  <r_i_glide_intrahb_reward>  (47) 
-0

>  <i_i_glide_confnum>  (47) 
5

>  <i_i_glide_posenum>  (47) 
15

>  <r_i_glide_eff_state_penalty>  (47) 
0

>  <ligand_id>  (47) 
12

>  <original_smiles>  (47) 
CN1c2ccccc2C23C(=O)CC1C1C4C2C12CCC=C3C42CO

>  <smiles>  (47) 
[H]OC([H])([H])C12C3=C([H])C([H])([H])C([H])([H])C14C1([H])C35C(=O)C([H])([H])C([H])(N(C([H])([H])[H])c3c([H])c([H])c([H])c([H])c35)C4([H])C12[H]

$$$$
12:1:0
     RDKit          3D

 46 52  0  0  1  0  0  0  0  0999 V2000
    7.3724   -3.9352    0.0179 C   0  0  0  0  0  0  0  0  0  0  0  0
    6.0450   -4.5893   -0.0268 N   0  0  2  0  0  0  0  0  0  0  0  0
    5.0367   -3.8590   -1.0263 C   0  0  0  0  0  0  0  0  0  0  0  0
    5.4286   -3.8140   -2.3779 C   0  0  0  0  0  0  0  0  0  0  0  0
    4.6624   -3.2033   -3.3746 C   0  0  0  0  0  0  0  0  0  0  0  0
    3.4368   -2.6076   -3.0527 C   0  0  0  0  0  0  0  0  0  0  0  0
    3.0098   -2.6514   -1.7219 C   0  0  0  0  0  0  0  0  0  0  0  0
    3.7558   -3.2308   -0.6891 C   0  0  0  0  0  0  0  0  0  0  0  0
    3.1098   -3.3702    0.7141 C   0  0  1  0  0  0  0  0  0  0  0  0
    2.9119   -4.9147    0.8433 C   0  0  0  0  0  0  0  0  0  0  0  0
    1.8138   -5.4434    0.7207 O   0  0  0  0  0  0  0  0  0  0  0  0
    4.2149   -5.8095    1.0795 C   0  0  0  0  0  0  0  0  0  0  0  0
    5.6212   -5.0625    1.3505 C   0  0  2  0  0  0  0  0  0  0  0  0
    5.5359   -3.8544    2.5779 C   0  0  2  0  0  0  0  0  0  0  0  0
    4.1204   -3.9316    3.0230 C   0  0  2  0  0  0  0  0  0  0  0  0
    4.2357   -3.2177    1.5780 C   0  0  2  0  0  0  0  0  0  0  0  0
    4.8091   -2.3330    2.6056 C   0  0  2  0  0  0  0  0  0  0  0  0
    5.1402   -0.8391    2.2866 C   0  0  0  0  0  0  0  0  0  0  0  0
    3.7957   -0.0833    1.9458 C   0  0  0  0  0  0  0  0  0  0  0  0
    2.7233   -1.0016    1.3418 C   0  0  0  0  0  0  0  0  0  0  0  0
    2.6497   -2.2984    1.7328 C   0  0  0  0  0  0  0  0  0  0  0  0
    3.4192   -2.6173    3.0537 C   0  0  1  0  0  0  0  0  0  0  0  0
    2.8079   -2.1099    4.3585 C   0  0  0  0  0  0  0  0  0  0  0  0
    1.4726   -2.5554    4.4746 O   0  0  0  0  0  0  0  0  0  0  0  0
    7.8013   -3.8392   -0.9760 H   0  0  0  0  0  0  0  0  0  0  0  0
    8.0739   -4.5158    0.6137 H   0  0  0  0  0  0  0  0  0  0  0  0
    7.3076   -2.9340    0.4343 H   0  0  0  0  0  0  0  0  0  0  0  0
    6.3572   -4.2558   -2.7041 H   0  0  0  0  0  0  0  0  0  0  0  0
    5.0134   -3.1901   -4.3898 H   0  0  0  0  0  0  0  0  0  0  0  0
    2.8138   -2.1512   -3.8062 H   0  0  0  0  0  0  0  0  0  0  0  0
    2.0291   -2.2734   -1.5338 H   0  0  0  0  0  0  0  0  0  0  0  0
    4.0101   -6.4660    1.9238 H   0  0  0  0  0  0  0  0  0  0  0  0
    4.3153   -6.4850    0.2327 H   0  0  0  0  0  0  0  0  0  0  0  0
    6.3332   -5.8196    1.6811 H   0  0  0  0  0  0  0  0  0  0  0  0
    6.1513   -4.0505    3.4425 H   0  0  0  0  0  0  0  0  0  0  0  0
    3.5789   -4.8523    3.2419 H   0  0  0  0  0  0  0  0  0  0  0  0
    4.9874   -2.6266    1.0084 H   0  0  0  0  0  0  0  0  0  0  0  0
    5.5977   -0.3456    3.1446 H   0  0  0  0  0  0  0  0  0  0  0  0
    5.8417   -0.7212    1.4583 H   0  0  0  0  0  0  0  0  0  0  0  0
    3.3611    0.3934    2.8219 H   0  0  0  0  0  0  0  0  0  0  0  0
    3.9746    0.7320    1.2471 H   0  0  0  0  0  0  0  0  0  0  0  0
    2.5548   -0.7470    0.3119 H   0  0  0  0  0  0  0  0  0  0  0  0
    3.3631   -2.5105    5.2044 H   0  0  0  0  0  0  0  0  0  0  0  0
    2.8433   -1.0261    4.4511 H   0  0  0  0  0  0  0  0  0  0  0  0
    0.9637   -2.1668    3.7791 H   0  0  0  0  0  0  0  0  0  0  0  0
    6.2444   -5.4839   -0.4553 H   0  0  0  0  0  0  0  0  0  0  0  0
  1  2  1  0
  1 25  1  0
  1 26  1  0
  1 27  1  0
  2 13  1  0
  2  3  1  0
  2 46  1  6
  3  8  2  0
  3  4  1  0
  4  5  2  0
  4 28  1  0
  5  6  1  0
  5 29  1  0
  6  7  2  0
  6 30  1  0
  7  8  1  0
  7 31  1  0
  9  8  1  6
  9 16  1  0
  9 21  1  0
  9 10  1  0
 10 11  2  0
 10 12  1  0
 12 13  1  0
 12 32  1  0
 12 33  1  0
 13 14  1  0
 13 34  1  1
 14 17  1  0
 14 15  1  0
 14 35  1  1
 15 22  1  0
 15 16  1  0
 15 36  1  6
 16 17  1  0
 16 37  1  6
 17 22  1  0
 17 18  1  6
 18 19  1  0
 18 38  1  0
 18 39  1  0
 19 20  1  0
 19 40  1  0
 19 41  1  0
 20 21  2  0
 20 42  1  0
 21 22  1  0
 22 23  1  1
 23 24  1  0
 23 43  1  0
 23 44  1  0
 24 45  1  0
M  CHG  1   2   1
M  END
>  <i_m_ct_stereo_status>  (48) 
1

>  <s_m_source_file>  (48) 
/var/tmp/pbs.5076255.sched01/tmpu5rzjxe4/0gixxd53k.sdf

>  <i_m_source_file_index>  (48) 
17

>  <i_lp_mmshare_version>  (48) 
48012

>  <i_f3d_flags>  (48) 
2

>  <s_epik_input>  (48) 
W2NIXTFbY0hdW2NIXVtjSF1jKGMxQzIzNClOKFtDSDNdKVtDQEhdKFtDSDJdQzI9TylbQ0BIXTVbQ0BdNjdbQ0BIXTNbQ0BASF01W0NAXTcoW0NIMl1bT0hdKUM0PVtDSF1bQ0gyXVtDSDJdNg==

>  <s_epik_cmdline>  (48) 
J2VwaWtfcHl0aG9uJywgJy1waHQnLCAnMi4wJywgJy1waCcsICc3LjAnLCAnLXRuJywgJzgnLCAnLW1hJywgJzIwMCcsICctaW1hZScsICc8aW5maWxlLm1hZT4nLCAnLW9tYWUnLCAnPG91dGZpbGUubWFlPic=

>  <r_lp_tautomer_probability>  (48) 
0.99995

>  <r_epik_Ionization_Penalty>  (48) 
1.09583

>  <r_epik_Ionization_Penalty_Charging>  (48) 
1.09583

>  <r_epik_Ionization_Penalty_Neutral>  (48) 
5.88573e-08

>  <r_epik_State_Penalty>  (48) 
1.15253

>  <r_epik_Charging_Adjusted_Penalty>  (48) 
2.24837

>  <i_epik_Tot_Q>  (48) 
1

>  <i_epik_Tot_abs_Q>  (48) 
1

>  <s_lp_Force_Field>  (48) 
OPLS3e

>  <r_lp_Energy>  (48) 
394.132

>  <b_lp_Chiralities_Consistent>  (48) 
0

>  <s_lp_Variant>  (48) 
12:0-2

>  <s_i_glide_gridfile>  (48) 
pfpi4k_grid

>  <i_i_glide_lignum>  (48) 
17

>  <i_i_glide_rotatable_bonds>  (48) 
2

>  <r_i_docking_score>  (48) 
-3.40985

>  <r_i_glide_ligand_efficiency>  (48) 
-0.142077

>  <r_i_glide_ligand_efficiency_sa>  (48) 
-0.409821

>  <r_i_glide_ligand_efficiency_ln>  (48) 
-0.816134

>  <r_i_glide_gscore>  (48) 
-3.40985

>  <r_i_glide_lipo>  (48) 
-0.868466

>  <r_i_glide_hbond>  (48) 
-0.104471

>  <r_i_glide_metal>  (48) 
-0

>  <r_i_glide_rewards>  (48) 
-1.22451

>  <r_i_glide_evdw>  (48) 
-16.354

>  <r_i_glide_ecoul>  (48) 
-3.7142

>  <r_i_glide_erotb>  (48) 
0.181886

>  <r_i_glide_esite>  (48) 
-0.0194593

>  <r_i_glide_emodel>  (48) 
-24.4039

>  <r_i_glide_energy>  (48) 
-20.0682

>  <r_i_glide_einternal>  (48) 
0.117747

>  <r_i_glide_intrahb_reward>  (48) 
-0

>  <i_i_glide_confnum>  (48) 
5

>  <i_i_glide_posenum>  (48) 
31

>  <r_i_glide_eff_state_penalty>  (48) 
0

>  <ligand_id>  (48) 
12

>  <original_smiles>  (48) 
CN1c2ccccc2C23C(=O)CC1C1C4C2C12CCC=C3C42CO

>  <smiles>  (48) 
[H]OC([H])([H])C12C3=C([H])C([H])([H])C([H])([H])C14C1([H])C35C(=O)C([H])([H])C([H])(C4([H])C12[H])[N+]([H])(C([H])([H])[H])c1c([H])c([H])c([H])c([H])c15

$$$$
12:1:1
     RDKit          3D

 46 52  0  0  1  0  0  0  0  0999 V2000
    7.0229   -4.4417    1.2582 C   0  0  0  0  0  0  0  0  0  0  0  0
    5.7737   -3.7817    1.7077 N   0  0  2  0  0  0  0  0  0  0  0  0
    4.4647   -4.6517    1.4116 C   0  0  0  0  0  0  0  0  0  0  0  0
    4.4384   -5.9190    2.0367 C   0  0  0  0  0  0  0  0  0  0  0  0
    3.3598   -6.8002    1.8511 C   0  0  0  0  0  0  0  0  0  0  0  0
    2.2701   -6.4251    1.0456 C   0  0  0  0  0  0  0  0  0  0  0  0
    2.2683   -5.1761    0.3998 C   0  0  0  0  0  0  0  0  0  0  0  0
    3.3328   -4.2748    0.5596 C   0  0  0  0  0  0  0  0  0  0  0  0
    3.1786   -2.8540   -0.0462 C   0  0  1  0  0  0  0  0  0  0  0  0
    3.0881   -1.9685    1.2474 C   0  0  0  0  0  0  0  0  0  0  0  0
    2.0236   -1.5459    1.6831 O   0  0  0  0  0  0  0  0  0  0  0  0
    4.4370   -1.7321    2.0665 C   0  0  0  0  0  0  0  0  0  0  0  0
    5.8182   -2.2805    1.4417 C   0  0  2  0  0  0  0  0  0  0  0  0
    6.0789   -1.8026   -0.2034 C   0  0  2  0  0  0  0  0  0  0  0  0
    4.8779   -0.9848   -0.5049 C   0  0  2  0  0  0  0  0  0  0  0  0
    4.5141   -2.5591   -0.4632 C   0  0  2  0  0  0  0  0  0  0  0  0
    5.3380   -2.2682   -1.6542 C   0  0  2  0  0  0  0  0  0  0  0  0
    5.4641   -3.3498   -2.7678 C   0  0  0  0  0  0  0  0  0  0  0  0
    4.0520   -3.6387   -3.4324 C   0  0  0  0  0  0  0  0  0  0  0  0
    2.8649   -3.3374   -2.4786 C   0  0  0  0  0  0  0  0  0  0  0  0
    3.0175   -2.3813   -1.5193 C   0  0  0  0  0  0  0  0  0  0  0  0
    4.1755   -1.3608   -1.7695 C   0  0  1  0  0  0  0  0  0  0  0  0
    3.9732   -0.2798   -2.8529 C   0  0  0  0  0  0  0  0  0  0  0  0
    4.1517   -0.7124   -4.1806 O   0  0  0  0  0  0  0  0  0  0  0  0
    7.1199   -5.4320    1.7024 H   0  0  0  0  0  0  0  0  0  0  0  0
    7.8981   -3.8667    1.5672 H   0  0  0  0  0  0  0  0  0  0  0  0
    7.0431   -4.5524    0.1738 H   0  0  0  0  0  0  0  0  0  0  0  0
    5.2543   -6.2366    2.6731 H   0  0  0  0  0  0  0  0  0  0  0  0
    3.3726   -7.7798    2.3101 H   0  0  0  0  0  0  0  0  0  0  0  0
    1.4470   -7.1089    0.9066 H   0  0  0  0  0  0  0  0  0  0  0  0
    1.4278   -4.8870   -0.2118 H   0  0  0  0  0  0  0  0  0  0  0  0
    4.5293   -0.6607    2.2394 H   0  0  0  0  0  0  0  0  0  0  0  0
    4.2968   -2.1552    3.0609 H   0  0  0  0  0  0  0  0  0  0  0  0
    6.6190   -1.8601    2.0515 H   0  0  0  0  0  0  0  0  0  0  0  0
    6.9677   -1.1920   -0.3336 H   0  0  0  0  0  0  0  0  0  0  0  0
    4.4670   -0.2132    0.1461 H   0  0  0  0  0  0  0  0  0  0  0  0
    5.0259   -3.5410   -0.6029 H   0  0  0  0  0  0  0  0  0  0  0  0
    6.1770   -3.0135   -3.5116 H   0  0  0  0  0  0  0  0  0  0  0  0
    5.8752   -4.2787   -2.3890 H   0  0  0  0  0  0  0  0  0  0  0  0
    3.8845   -3.0892   -4.3500 H   0  0  0  0  0  0  0  0  0  0  0  0
    4.0179   -4.6612   -3.8082 H   0  0  0  0  0  0  0  0  0  0  0  0
    2.2641   -4.2034   -2.2311 H   0  0  0  0  0  0  0  0  0  0  0  0
    2.9635    0.1213   -2.8000 H   0  0  0  0  0  0  0  0  0  0  0  0
    4.6625    0.5501   -2.7062 H   0  0  0  0  0  0  0  0  0  0  0  0
    3.5268   -1.4055   -4.3244 H   0  0  0  0  0  0  0  0  0  0  0  0
    5.8727   -3.7881    2.7159 H   0  0  0  0  0  0  0  0  0  0  0  0
  1  2  1  0
  1 25  1  0
  1 26  1  0
  1 27  1  0
  2 13  1  0
  2  3  1  0
  2 46  1  1
  3  8  2  0
  3  4  1  0
  4  5  2  0
  4 28  1  0
  5  6  1  0
  5 29  1  0
  6  7  2  0
  6 30  1  0
  7  8  1  0
  7 31  1  0
  9  8  1  1
  9 16  1  0
  9 21  1  0
  9 10  1  0
 10 11  2  0
 10 12  1  0
 12 13  1  0
 12 32  1  0
 12 33  1  0
 13 14  1  0
 13 34  1  1
 14 17  1  0
 14 15  1  0
 14 35  1  6
 15 22  1  0
 15 16  1  0
 15 36  1  1
 16 17  1  0
 16 37  1  1
 17 22  1  0
 17 18  1  6
 18 19  1  0
 18 38  1  0
 18 39  1  0
 19 20  1  0
 19 40  1  0
 19 41  1  0
 20 21  2  0
 20 42  1  0
 21 22  1  0
 22 23  1  6
 23 24  1  0
 23 43  1  0
 23 44  1  0
 24 45  1  0
M  CHG  1   2   1
M  END
>  <i_m_ct_stereo_status>  (49) 
1

>  <s_m_source_file>  (49) 
/var/tmp/pbs.5076255.sched01/tmpu5rzjxe4/0gixxd53k.sdf

>  <i_m_source_file_index>  (49) 
17

>  <i_lp_mmshare_version>  (49) 
48012

>  <i_f3d_flags>  (49) 
2

>  <s_epik_input>  (49) 
W2NIXTFbY0hdW2NIXVtjSF1jKGMxQzIzNClOKFtDSDNdKVtDQEhdKFtDSDJdQzI9TylbQ0BIXTVbQ0BdNjdbQ0BIXTNbQ0BASF01W0NAXTcoW0NIMl1bT0hdKUM0PVtDSF1bQ0gyXVtDSDJdNg==

>  <s_epik_cmdline>  (49) 
J2VwaWtfcHl0aG9uJywgJy1waHQnLCAnMi4wJywgJy1waCcsICc3LjAnLCAnLXRuJywgJzgnLCAnLW1hJywgJzIwMCcsICctaW1hZScsICc8aW5maWxlLm1hZT4nLCAnLW9tYWUnLCAnPG91dGZpbGUubWFlPic=

>  <r_lp_tautomer_probability>  (49) 
0.99995

>  <r_epik_Ionization_Penalty>  (49) 
1.09583

>  <r_epik_Ionization_Penalty_Charging>  (49) 
1.09583

>  <r_epik_Ionization_Penalty_Neutral>  (49) 
5.88573e-08

>  <r_epik_State_Penalty>  (49) 
1.15253

>  <r_epik_Charging_Adjusted_Penalty>  (49) 
2.24837

>  <i_epik_Tot_Q>  (49) 
1

>  <i_epik_Tot_abs_Q>  (49) 
1

>  <s_lp_Force_Field>  (49) 
OPLS3e

>  <r_lp_Energy>  (49) 
394.132

>  <b_lp_Chiralities_Consistent>  (49) 
0

>  <s_lp_Variant>  (49) 
12:0-2

>  <s_i_glide_gridfile>  (49) 
pfpi4k_grid

>  <i_i_glide_lignum>  (49) 
17

>  <i_i_glide_rotatable_bonds>  (49) 
2

>  <r_i_docking_score>  (49) 
-3.13328

>  <r_i_glide_ligand_efficiency>  (49) 
-0.130553

>  <r_i_glide_ligand_efficiency_sa>  (49) 
-0.376581

>  <r_i_glide_ligand_efficiency_ln>  (49) 
-0.749938

>  <r_i_glide_gscore>  (49) 
-3.13328

>  <r_i_glide_lipo>  (49) 
-0.775148

>  <r_i_glide_hbond>  (49) 
0

>  <r_i_glide_metal>  (49) 
-0

>  <r_i_glide_rewards>  (49) 
-1.22451

>  <r_i_glide_evdw>  (49) 
-20.8004

>  <r_i_glide_ecoul>  (49) 
-1.63535

>  <r_i_glide_erotb>  (49) 
0.181886

>  <r_i_glide_esite>  (49) 
-0.0301884

>  <r_i_glide_emodel>  (49) 
-25.1461

>  <r_i_glide_energy>  (49) 
-22.4357

>  <r_i_glide_einternal>  (49) 
2.52375

>  <r_i_glide_intrahb_reward>  (49) 
-0

>  <i_i_glide_confnum>  (49) 
6

>  <i_i_glide_posenum>  (49) 
32

>  <r_i_glide_eff_state_penalty>  (49) 
0

>  <ligand_id>  (49) 
12

>  <original_smiles>  (49) 
CN1c2ccccc2C23C(=O)CC1C1C4C2C12CCC=C3C42CO

>  <smiles>  (49) 
[H]OC([H])([H])C12C3=C([H])C([H])([H])C([H])([H])C14C1([H])C35C(=O)C([H])([H])C([H])(C4([H])C12[H])[N+]([H])(C([H])([H])[H])c1c([H])c([H])c([H])c([H])c15

$$$$
12:1:2
     RDKit          3D

 46 52  0  0  1  0  0  0  0  0999 V2000
    7.5294   -3.4996   -1.0657 C   0  0  0  0  0  0  0  0  0  0  0  0
    6.2085   -4.1769   -0.9397 N   0  0  2  0  0  0  0  0  0  0  0  0
    5.0614   -3.4892   -1.7746 C   0  0  0  0  0  0  0  0  0  0  0  0
    5.3111   -3.4032   -3.1568 C   0  0  0  0  0  0  0  0  0  0  0  0
    4.3933   -2.7594   -3.9853 C   0  0  0  0  0  0  0  0  0  0  0  0
    3.1871   -2.2552   -3.5152 C   0  0  0  0  0  0  0  0  0  0  0  0
    2.8854   -2.4170   -2.1781 C   0  0  0  0  0  0  0  0  0  0  0  0
    3.7993   -2.9735   -1.2627 C   0  0  0  0  0  0  0  0  0  0  0  0
    3.3599   -3.2142    0.1966 C   0  0  1  0  0  0  0  0  0  0  0  0
    3.2344   -4.7734    0.2516 C   0  0  0  0  0  0  0  0  0  0  0  0
    2.1375   -5.3223    0.2685 O   0  0  0  0  0  0  0  0  0  0  0  0
    4.5982   -5.6171    0.2538 C   0  0  0  0  0  0  0  0  0  0  0  0
    5.9971   -4.8085    0.4108 C   0  0  2  0  0  0  0  0  0  0  0  0
    6.0263   -3.6902    1.7023 C   0  0  2  0  0  0  0  0  0  0  0  0
    4.6933   -3.8582    2.3133 C   0  0  2  0  0  0  0  0  0  0  0  0
    4.5866   -3.0438    0.9214 C   0  0  2  0  0  0  0  0  0  0  0  0
    5.2662   -2.2024    1.9317 C   0  0  2  0  0  0  0  0  0  0  0  0
    5.5082   -0.6836    1.6422 C   0  0  0  0  0  0  0  0  0  0  0  0
    4.1071    0.0313    1.5205 C   0  0  0  0  0  0  0  0  0  0  0  0
    3.0135   -0.8942    0.9801 C   0  0  0  0  0  0  0  0  0  0  0  0
    3.0247   -2.2074    1.3162 C   0  0  0  0  0  0  0  0  0  0  0  0
    3.9556   -2.5807    2.5161 C   0  0  1  0  0  0  0  0  0  0  0  0
    3.5025   -2.1849    3.9116 C   0  0  0  0  0  0  0  0  0  0  0  0
    2.3120   -2.8680    4.2310 O   0  0  0  0  0  0  0  0  0  0  0  0
    7.8050   -3.3972   -2.1170 H   0  0  0  0  0  0  0  0  0  0  0  0
    8.3036   -4.1105   -0.6088 H   0  0  0  0  0  0  0  0  0  0  0  0
    7.5085   -2.5144   -0.5996 H   0  0  0  0  0  0  0  0  0  0  0  0
    6.2119   -3.7918   -3.6103 H   0  0  0  0  0  0  0  0  0  0  0  0
    4.6030   -2.5982   -5.0055 H   0  0  0  0  0  0  0  0  0  0  0  0
    2.4754   -1.7849   -4.1777 H   0  0  0  0  0  0  0  0  0  0  0  0
    1.8747   -2.1832   -1.9444 H   0  0  0  0  0  0  0  0  0  0  0  0
    4.5433   -6.3334    1.0705 H   0  0  0  0  0  0  0  0  0  0  0  0
    4.6252   -6.2289   -0.6425 H   0  0  0  0  0  0  0  0  0  0  0  0
    6.7902   -5.5522    0.5621 H   0  0  0  0  0  0  0  0  0  0  0  0
    6.7553   -3.9309    2.4587 H   0  0  0  0  0  0  0  0  0  0  0  0
    4.2319   -4.8196    2.5364 H   0  0  0  0  0  0  0  0  0  0  0  0
    5.2111   -2.3762    0.2906 H   0  0  0  0  0  0  0  0  0  0  0  0
    6.0525   -0.2292    2.4667 H   0  0  0  0  0  0  0  0  0  0  0  0
    6.0878   -0.4840    0.7316 H   0  0  0  0  0  0  0  0  0  0  0  0
    3.7610    0.4280    2.4727 H   0  0  0  0  0  0  0  0  0  0  0  0
    4.1632    0.8899    0.8582 H   0  0  0  0  0  0  0  0  0  0  0  0
    2.6916   -0.6324   -0.0147 H   0  0  0  0  0  0  0  0  0  0  0  0
    4.2710   -2.4507    4.6373 H   0  0  0  0  0  0  0  0  0  0  0  0
    3.3326   -1.1150    4.0033 H   0  0  0  0  0  0  0  0  0  0  0  0
    2.4764   -3.7983    4.2116 H   0  0  0  0  0  0  0  0  0  0  0  0
    6.3482   -5.0390   -1.4525 H   0  0  0  0  0  0  0  0  0  0  0  0
  1  2  1  0
  1 25  1  0
  1 26  1  0
  1 27  1  0
  2 13  1  0
  2  3  1  0
  2 46  1  6
  3  8  2  0
  3  4  1  0
  4  5  2  0
  4 28  1  0
  5  6  1  0
  5 29  1  0
  6  7  2  0
  6 30  1  0
  7  8  1  0
  7 31  1  0
  9  8  1  6
  9 16  1  0
  9 21  1  0
  9 10  1  0
 10 11  2  0
 10 12  1  0
 12 13  1  0
 12 32  1  0
 12 33  1  0
 13 14  1  0
 13 34  1  1
 14 17  1  0
 14 15  1  0
 14 35  1  1
 15 22  1  0
 15 16  1  0
 15 36  1  6
 16 17  1  0
 16 37  1  6
 17 22  1  0
 17 18  1  6
 18 19  1  0
 18 38  1  0
 18 39  1  0
 19 20  1  0
 19 40  1  0
 19 41  1  0
 20 21  2  0
 20 42  1  0
 21 22  1  0
 22 23  1  1
 23 24  1  0
 23 43  1  0
 23 44  1  0
 24 45  1  0
M  CHG  1   2   1
M  END
>  <i_m_ct_stereo_status>  (50) 
1

>  <s_m_source_file>  (50) 
/var/tmp/pbs.5076255.sched01/tmpu5rzjxe4/0gixxd53k.sdf

>  <i_m_source_file_index>  (50) 
17

>  <i_lp_mmshare_version>  (50) 
48012

>  <i_f3d_flags>  (50) 
2

>  <s_epik_input>  (50) 
W2NIXTFbY0hdW2NIXVtjSF1jKGMxQzIzNClOKFtDSDNdKVtDQEhdKFtDSDJdQzI9TylbQ0BIXTVbQ0BdNjdbQ0BIXTNbQ0BASF01W0NAXTcoW0NIMl1bT0hdKUM0PVtDSF1bQ0gyXVtDSDJdNg==

>  <s_epik_cmdline>  (50) 
J2VwaWtfcHl0aG9uJywgJy1waHQnLCAnMi4wJywgJy1waCcsICc3LjAnLCAnLXRuJywgJzgnLCAnLW1hJywgJzIwMCcsICctaW1hZScsICc8aW5maWxlLm1hZT4nLCAnLW9tYWUnLCAnPG91dGZpbGUubWFlPic=

>  <r_lp_tautomer_probability>  (50) 
0.99995

>  <r_epik_Ionization_Penalty>  (50) 
1.09583

>  <r_epik_Ionization_Penalty_Charging>  (50) 
1.09583

>  <r_epik_Ionization_Penalty_Neutral>  (50) 
5.88573e-08

>  <r_epik_State_Penalty>  (50) 
1.15253

>  <r_epik_Charging_Adjusted_Penalty>  (50) 
2.24837

>  <i_epik_Tot_Q>  (50) 
1

>  <i_epik_Tot_abs_Q>  (50) 
1

>  <s_lp_Force_Field>  (50) 
OPLS3e

>  <r_lp_Energy>  (50) 
394.132

>  <b_lp_Chiralities_Consistent>  (50) 
0

>  <s_lp_Variant>  (50) 
12:0-2

>  <s_i_glide_gridfile>  (50) 
pfpi4k_grid

>  <i_i_glide_lignum>  (50) 
17

>  <i_i_glide_rotatable_bonds>  (50) 
2

>  <r_i_docking_score>  (50) 
-2.93288

>  <r_i_glide_ligand_efficiency>  (50) 
-0.122203

>  <r_i_glide_ligand_efficiency_sa>  (50) 
-0.352495

>  <r_i_glide_ligand_efficiency_ln>  (50) 
-0.701972

>  <r_i_glide_gscore>  (50) 
-2.93288

>  <r_i_glide_lipo>  (50) 
-1.09865

>  <r_i_glide_hbond>  (50) 
-0.0200048

>  <r_i_glide_metal>  (50) 
-0

>  <r_i_glide_rewards>  (50) 
-1.22451

>  <r_i_glide_evdw>  (50) 
-14.1561

>  <r_i_glide_ecoul>  (50) 
-0.286

>  <r_i_glide_erotb>  (50) 
0.181886

>  <r_i_glide_esite>  (50) 
-0.0208893

>  <r_i_glide_emodel>  (50) 
-17.9702

>  <r_i_glide_energy>  (50) 
-14.4421

>  <r_i_glide_einternal>  (50) 
0.0111806

>  <r_i_glide_intrahb_reward>  (50) 
-0

>  <i_i_glide_confnum>  (50) 
5

>  <i_i_glide_posenum>  (50) 
2

>  <r_i_glide_eff_state_penalty>  (50) 
0

>  <ligand_id>  (50) 
12

>  <original_smiles>  (50) 
CN1c2ccccc2C23C(=O)CC1C1C4C2C12CCC=C3C42CO

>  <smiles>  (50) 
[H]OC([H])([H])C12C3=C([H])C([H])([H])C([H])([H])C14C1([H])C35C(=O)C([H])([H])C([H])(C4([H])C12[H])[N+]([H])(C([H])([H])[H])c1c([H])c([H])c([H])c([H])c15

$$$$
13:1:0
     RDKit          3D

 70 78  0  0  1  0  0  0  0  0999 V2000
   -1.7719   -8.6513    3.4100 C   0  0  0  0  0  0  0  0  0  0  0  0
   -0.4718   -9.0285    2.7215 C   0  0  0  0  0  0  0  0  0  0  0  0
    0.8021   -8.9747    3.1834 C   0  0  0  0  0  0  0  0  0  0  0  0
    1.1884   -8.5088    4.6016 C   0  0  0  0  0  0  0  0  0  0  0  0
    2.0478   -7.2726    4.6637 N   0  0  2  0  0  0  0  0  0  0  0  0
    1.5965   -6.2165    3.5206 C   0  0  0  0  0  0  0  0  0  0  0  0
    2.0515   -6.6515    2.2622 O   0  0  0  0  0  0  0  0  0  0  0  0
    3.3287   -7.2799    1.9734 C   0  0  2  0  0  0  0  0  0  0  0  0
    3.3280   -8.8484    2.3902 C   0  0  2  0  0  0  0  0  0  0  0  0
    4.0287   -9.4546    1.3093 O   0  0  0  0  0  0  0  0  0  0  0  0
    1.9108   -9.4596    2.2506 C   0  0  0  0  0  0  0  0  0  0  0  0
    4.0047   -9.4922    3.6779 C   0  0  0  0  0  0  0  0  0  0  0  0
    4.0181   -8.8107    5.0884 C   0  0  1  0  0  0  0  0  0  0  0  0
    5.3195   -8.8920    5.6730 O   0  0  0  0  0  0  0  0  0  0  0  0
    5.7018  -10.1965    6.1050 C   0  0  0  0  0  0  0  0  0  0  0  0
    3.5325   -7.3407    5.1007 C   0  0  1  0  0  0  0  0  0  0  0  0
    4.6434   -6.4518    4.3657 C   0  0  2  0  0  0  0  0  0  0  0  0
    5.3212   -6.9755    3.1030 C   0  0  0  0  0  0  0  0  0  0  0  0
    6.4498   -7.7314    3.0570 C   0  0  0  0  0  0  0  0  0  0  0  0
    7.1496   -8.1910    1.7890 C   0  0  0  0  0  0  0  0  0  0  0  0
    4.6660   -6.3596    1.8817 C   0  0  1  0  0  0  0  0  0  0  0  0
    4.1139   -4.9404    1.3086 C   0  0  2  0  0  0  0  0  0  0  0  0
    4.7357   -3.9586    0.2346 C   0  0  0  0  0  0  0  0  0  0  0  0
    5.0898   -2.4405    0.7645 C   0  0  1  0  0  0  0  0  0  0  0  0
    4.7978   -1.3596    2.0461 C   0  0  0  0  0  0  0  0  0  0  0  0
    3.9270   -2.0935    3.3340 C   0  0  1  0  0  0  0  0  0  0  0  0
    3.1848   -2.4569    2.2125 C   0  0  0  0  0  0  0  0  0  0  0  0
    4.7039   -2.9549    2.0103 C   0  0  1  0  0  0  0  0  0  0  0  0
    4.4774   -4.1884    2.4608 C   0  0  1  0  0  0  0  0  0  0  0  0
    4.0067   -3.7240    3.8634 C   0  0  2  0  0  0  0  0  0  0  0  0
    5.0041   -4.9732    4.2413 C   0  0  2  0  0  0  0  0  0  0  0  0
    5.4199   -5.2010    2.7727 C   0  0  1  0  0  0  0  0  0  0  0  0
   -2.5032   -9.4362    3.2203 H   0  0  0  0  0  0  0  0  0  0  0  0
   -2.1693   -7.7301    2.9840 H   0  0  0  0  0  0  0  0  0  0  0  0
   -1.6998   -8.5473    4.4912 H   0  0  0  0  0  0  0  0  0  0  0  0
   -0.6223   -9.3875    1.7092 H   0  0  0  0  0  0  0  0  0  0  0  0
    0.2777   -8.1941    5.0979 H   0  0  0  0  0  0  0  0  0  0  0  0
    1.4910   -9.3633    5.1963 H   0  0  0  0  0  0  0  0  0  0  0  0
    0.5082   -6.1976    3.4778 H   0  0  0  0  0  0  0  0  0  0  0  0
    1.8991   -5.1958    3.7528 H   0  0  0  0  0  0  0  0  0  0  0  0
    3.1092   -7.3713    0.9080 H   0  0  0  0  0  0  0  0  0  0  0  0
    3.9088  -10.3978    1.3016 H   0  0  0  0  0  0  0  0  0  0  0  0
    1.9561  -10.5466    2.3432 H   0  0  0  0  0  0  0  0  0  0  0  0
    1.5783   -9.2704    1.2313 H   0  0  0  0  0  0  0  0  0  0  0  0
    3.5566  -10.4737    3.8432 H   0  0  0  0  0  0  0  0  0  0  0  0
    5.0251   -9.7747    3.4314 H   0  0  0  0  0  0  0  0  0  0  0  0
    3.4057   -9.3735    5.7923 H   0  0  0  0  0  0  0  0  0  0  0  0
    6.7547  -10.1953    6.3904 H   0  0  0  0  0  0  0  0  0  0  0  0
    5.5818  -10.9533    5.3294 H   0  0  0  0  0  0  0  0  0  0  0  0
    5.1187  -10.5053    6.9737 H   0  0  0  0  0  0  0  0  0  0  0  0
    3.5347   -7.0107    6.1408 H   0  0  0  0  0  0  0  0  0  0  0  0
    3.7597   -6.0720    3.9914 H   0  0  0  0  0  0  0  0  0  0  0  0
    6.8928   -8.0662    3.9833 H   0  0  0  0  0  0  0  0  0  0  0  0
    7.1530   -9.2824    1.7425 H   0  0  0  0  0  0  0  0  0  0  0  0
    8.1845   -7.8455    1.7858 H   0  0  0  0  0  0  0  0  0  0  0  0
    6.6574   -7.8172    0.8883 H   0  0  0  0  0  0  0  0  0  0  0  0
    3.0344   -4.9270    1.1956 H   0  0  0  0  0  0  0  0  0  0  0  0
    5.6148   -4.3958   -0.2442 H   0  0  0  0  0  0  0  0  0  0  0  0
    4.0112   -3.8703   -0.5766 H   0  0  0  0  0  0  0  0  0  0  0  0
    4.4338   -1.9142    0.0653 H   0  0  0  0  0  0  0  0  0  0  0  0
    5.7381   -0.9163    2.4102 H   0  0  0  0  0  0  0  0  0  0  0  0
    4.3224   -0.4412    1.6677 H   0  0  0  0  0  0  0  0  0  0  0  0
    3.3773   -1.4148    3.9884 H   0  0  0  0  0  0  0  0  0  0  0  0
    2.3776   -3.1689    2.4021 H   0  0  0  0  0  0  0  0  0  0  0  0
    2.7061   -1.6991    1.5694 H   0  0  0  0  0  0  0  0  0  0  0  0
    5.7189   -3.0161    2.5899 H   0  0  0  0  0  0  0  0  0  0  0  0
    4.5586   -3.3328    4.7206 H   0  0  0  0  0  0  0  0  0  0  0  0
    5.8883   -4.7082    4.8293 H   0  0  0  0  0  0  0  0  0  0  0  0
    6.4567   -4.9500    2.4954 H   0  0  0  0  0  0  0  0  0  0  0  0
    1.6873   -6.8874    5.5248 H   0  0  0  0  0  0  0  0  0  0  0  0
  1  2  1  0
  1 33  1  0
  1 34  1  0
  1 35  1  0
  2  3  2  3
  2 36  1  0
  3 11  1  0
  3  4  1  0
  4  5  1  0
  4 37  1  0
  4 38  1  0
  5 16  1  0
  5  6  1  0
  5 70  1  1
  6  7  1  0
  6 39  1  0
  6 40  1  0
  7  8  1  0
  8 21  1  0
  8  9  1  0
  8 41  1  6
  9 10  1  6
  9 11  1  0
  9 12  1  0
 10 42  1  0
 11 43  1  0
 11 44  1  0
 12 13  1  0
 12 45  1  0
 12 46  1  0
 13 14  1  0
 13 16  1  0
 13 47  1  1
 14 15  1  0
 15 48  1  0
 15 49  1  0
 15 50  1  0
 16 17  1  0
 16 51  1  1
 17 31  1  0
 17 18  1  0
 17 52  1  1
 18 19  2  3
 21 18  1  6
 19 20  1  0
 19 53  1  0
 20 54  1  0
 20 55  1  0
 20 56  1  0
 21 32  1  0
 21 22  1  0
 29 22  1  6
 22 23  1  0
 22 57  1  6
 23 24  1  0
 23 58  1  0
 23 59  1  0
 24 28  1  0
 24 25  1  0
 24 60  1  1
 25 26  1  0
 25 61  1  0
 25 62  1  0
 26 30  1  0
 26 27  1  0
 26 63  1  1
 27 28  1  0
 27 64  1  0
 27 65  1  0
 28 29  1  0
 28 66  1  1
 29 32  1  0
 29 30  1  0
 30 31  1  0
 30 67  1  6
 31 32  1  0
 31 68  1  1
 32 69  1  1
M  CHG  1   5   1
M  END
>  <i_m_ct_stereo_status>  (51) 
1

>  <s_m_source_file>  (51) 
/var/tmp/pbs.5076255.sched01/tmpu5rzjxe4/0gixxd53k.sdf

>  <i_m_source_file_index>  (51) 
19

>  <i_lp_mmshare_version>  (51) 
48012

>  <i_f3d_flags>  (51) 
0

>  <s_epik_input>  (51) 
W0NAQF0xMjNbQ0BIXTRbQ0BdNShbT0hdKVtDSDJdQyg9W0NIXVxbQ0gzXSkvW0NIMl1OKFtDSDJdTzQpW0NAQEhdKFtDQEBIXShbQ0gyXTUpT1tDSDNdKVtDQEhdKC9DMT1bQ0hdXFtDSDNdKVtDQEBIXTZbQ0hdN1tDQEBdOChbQ0BIXTM2KVtDQEhdMltDSDJdW0NAQEhdOVtDQEhdOFtDSDJdW0NAQEhdN1tDSDJdOQ==

>  <s_epik_cmdline>  (51) 
J2VwaWtfcHl0aG9uJywgJy1waHQnLCAnMi4wJywgJy1waCcsICc3LjAnLCAnLXRuJywgJzgnLCAnLW1hJywgJzIwMCcsICctaW1hZScsICc8aW5maWxlLm1hZT4nLCAnLW9tYWUnLCAnPG91dGZpbGUubWFlPic=

>  <r_epik_Ionization_Penalty>  (51) 
1.70185

>  <r_epik_Ionization_Penalty_Charging>  (51) 
1.70185

>  <r_epik_Ionization_Penalty_Neutral>  (51) 
8.65496e-07

>  <r_epik_State_Penalty>  (51) 
1.8079

>  <r_epik_Charging_Adjusted_Penalty>  (51) 
3.50975

>  <i_epik_Tot_Q>  (51) 
1

>  <i_epik_Tot_abs_Q>  (51) 
1

>  <s_epik_Chemistry_Notes>  (51) 
This compound contains an acetal/aminal-like group ( X-CH(R)-Y where X, Y are N, S, or O) that may be acid/base labile, releasing an aldehyde.

>  <s_lp_Force_Field>  (51) 
OPLS3e

>  <r_lp_Energy>  (51) 
685.229

>  <b_lp_Chiralities_Consistent>  (51) 
1

>  <s_lp_Variant>  (51) 
13:0-2

>  <s_i_glide_gridfile>  (51) 
pfpi4k_grid

>  <i_i_glide_lignum>  (51) 
19

>  <i_i_glide_rotatable_bonds>  (51) 
2

>  <r_i_docking_score>  (51) 
-2.86338

>  <r_i_glide_ligand_efficiency>  (51) 
-0.0894805

>  <r_i_glide_ligand_efficiency_sa>  (51) 
-0.284083

>  <r_i_glide_ligand_efficiency_ln>  (51) 
-0.641188

>  <r_i_glide_gscore>  (51) 
-2.86338

>  <r_i_glide_lipo>  (51) 
-0.488389

>  <r_i_glide_hbond>  (51) 
-0.151071

>  <r_i_glide_metal>  (51) 
-0

>  <r_i_glide_rewards>  (51) 
-0.43223

>  <r_i_glide_evdw>  (51) 
-18.7511

>  <r_i_glide_ecoul>  (51) 
-5.61716

>  <r_i_glide_erotb>  (51) 
0

>  <r_i_glide_esite>  (51) 
-0.0115588

>  <r_i_glide_emodel>  (51) 
-29.2956

>  <r_i_glide_energy>  (51) 
-24.3683

>  <r_i_glide_einternal>  (51) 
0.554298

>  <r_i_glide_intrahb_reward>  (51) 
-0

>  <i_i_glide_confnum>  (51) 
2

>  <i_i_glide_posenum>  (51) 
25

>  <r_i_glide_eff_state_penalty>  (51) 
0

>  <ligand_id>  (51) 
13

>  <original_smiles>  (51) 
CC=C1CN2COC3C(O)(C1)CC(OC)C2C1C(=CC)C32C3CC4CC5CC4C34C5C1C24

>  <smiles>  (51) 
[H]OC12C([H])([H])C(=C([H])C([H])([H])[H])C([H])([H])[N+]3([H])C([H])([H])OC1([H])C14C(=C([H])C([H])([H])[H])C([H])(C5([H])C6([H])C7([H])C([H])([H])C8([H])C([H])([H])C1([H])C6(C8([H])C7([H])[H])C54[H])C3([H])C([H])(OC([H])([H])[H])C2([H])[H]

$$$$
13:1:1
     RDKit          3D

 70 78  0  0  1  0  0  0  0  0999 V2000
   -1.8011   -8.2317    3.3122 C   0  0  0  0  0  0  0  0  0  0  0  0
   -0.4896   -8.6830    2.6883 C   0  0  0  0  0  0  0  0  0  0  0  0
    0.7689   -8.5892    3.1662 C   0  0  0  0  0  0  0  0  0  0  0  0
    1.1359   -7.9852    4.5384 C   0  0  0  0  0  0  0  0  0  0  0  0
    1.9980   -6.7525    4.4991 N   0  0  2  0  0  0  0  0  0  0  0  0
    1.5796   -5.8112    3.2486 C   0  0  0  0  0  0  0  0  0  0  0  0
    2.0555   -6.3739    2.0514 O   0  0  0  0  0  0  0  0  0  0  0  0
    3.3365   -7.0324    1.8555 C   0  0  2  0  0  0  0  0  0  0  0  0
    3.3152   -8.5516    2.4252 C   0  0  2  0  0  0  0  0  0  0  0  0
    4.0390   -9.2702    1.4328 O   0  0  0  0  0  0  0  0  0  0  0  0
    1.8961   -9.1704    2.3063 C   0  0  0  0  0  0  0  0  0  0  0  0
    3.9615   -9.0627    3.7933 C   0  0  0  0  0  0  0  0  0  0  0  0
    3.9542   -8.2381    5.1227 C   0  0  1  0  0  0  0  0  0  0  0  0
    5.2645   -8.3161    5.6856 O   0  0  0  0  0  0  0  0  0  0  0  0
    5.3904   -7.9328    7.0481 C   0  0  0  0  0  0  0  0  0  0  0  0
    3.4717   -6.7745    4.9745 C   0  0  1  0  0  0  0  0  0  0  0  0
    4.6071   -5.9788    4.1768 C   0  0  2  0  0  0  0  0  0  0  0  0
    5.3092   -6.6324    2.9861 C   0  0  0  0  0  0  0  0  0  0  0  0
    6.4302   -7.3949    3.0338 C   0  0  0  0  0  0  0  0  0  0  0  0
    7.1526   -7.9847    1.8293 C   0  0  0  0  0  0  0  0  0  0  0  0
    4.6830   -6.1352    1.6978 C   0  0  1  0  0  0  0  0  0  0  0  0
    4.1486   -4.7773    0.9788 C   0  0  2  0  0  0  0  0  0  0  0  0
    4.8034   -3.9061   -0.1734 C   0  0  0  0  0  0  0  0  0  0  0  0
    5.1626   -2.3487    0.2098 C   0  0  1  0  0  0  0  0  0  0  0  0
    4.8526   -1.1428    1.3757 C   0  0  0  0  0  0  0  0  0  0  0  0
    3.9504   -1.7453    2.7094 C   0  0  1  0  0  0  0  0  0  0  0  0
    3.2266   -2.2083    1.6183 C   0  0  0  0  0  0  0  0  0  0  0  0
    4.7464   -2.7374    1.4923 C   0  0  1  0  0  0  0  0  0  0  0  0
    4.4995   -3.9179    2.0542 C   0  0  1  0  0  0  0  0  0  0  0  0
    4.0061   -3.3155    3.3973 C   0  0  2  0  0  0  0  0  0  0  0  0
    4.9904   -4.5274    3.9125 C   0  0  2  0  0  0  0  0  0  0  0  0
    5.4327   -4.9009    2.4815 C   0  0  1  0  0  0  0  0  0  0  0  0
   -2.5391   -9.0249    3.1891 H   0  0  0  0  0  0  0  0  0  0  0  0
   -2.1802   -7.3545    2.7888 H   0  0  0  0  0  0  0  0  0  0  0  0
   -1.7472   -8.0172    4.3792 H   0  0  0  0  0  0  0  0  0  0  0  0
   -0.6241   -9.1317    1.7119 H   0  0  0  0  0  0  0  0  0  0  0  0
    0.2171   -7.6206    4.9879 H   0  0  0  0  0  0  0  0  0  0  0  0
    1.4258   -8.7779    5.2207 H   0  0  0  0  0  0  0  0  0  0  0  0
    0.4933   -5.7892    3.1889 H   0  0  0  0  0  0  0  0  0  0  0  0
    1.8887   -4.7772    3.3897 H   0  0  0  0  0  0  0  0  0  0  0  0
    3.1373   -7.2295    0.8009 H   0  0  0  0  0  0  0  0  0  0  0  0
    3.9082  -10.2043    1.5323 H   0  0  0  0  0  0  0  0  0  0  0  0
    1.9303  -10.2417    2.5056 H   0  0  0  0  0  0  0  0  0  0  0  0
    1.5821   -9.0851    1.2667 H   0  0  0  0  0  0  0  0  0  0  0  0
    3.5015  -10.0197    4.0440 H   0  0  0  0  0  0  0  0  0  0  0  0
    4.9846   -9.3843    3.6114 H   0  0  0  0  0  0  0  0  0  0  0  0
    3.3392   -8.7593    5.8530 H   0  0  0  0  0  0  0  0  0  0  0  0
    6.3985   -8.1691    7.3890 H   0  0  0  0  0  0  0  0  0  0  0  0
    4.6919   -8.4690    7.6923 H   0  0  0  0  0  0  0  0  0  0  0  0
    5.2481   -6.8604    7.1822 H   0  0  0  0  0  0  0  0  0  0  0  0
    3.4309   -6.3263    5.9671 H   0  0  0  0  0  0  0  0  0  0  0  0
    3.7364   -5.6305    3.7452 H   0  0  0  0  0  0  0  0  0  0  0  0
    6.8586   -7.6451    3.9951 H   0  0  0  0  0  0  0  0  0  0  0  0
    7.1501   -9.0751    1.8891 H   0  0  0  0  0  0  0  0  0  0  0  0
    8.1904   -7.6488    1.8149 H   0  0  0  0  0  0  0  0  0  0  0  0
    6.6828   -7.6962    0.8887 H   0  0  0  0  0  0  0  0  0  0  0  0
    3.0702   -4.7665    0.8372 H   0  0  0  0  0  0  0  0  0  0  0  0
    5.6850   -4.3956   -0.5896 H   0  0  0  0  0  0  0  0  0  0  0  0
    4.0958   -3.8954   -1.0059 H   0  0  0  0  0  0  0  0  0  0  0  0
    4.5216   -1.8876   -0.5465 H   0  0  0  0  0  0  0  0  0  0  0  0
    5.7908   -0.6744    1.7148 H   0  0  0  0  0  0  0  0  0  0  0  0
    4.3941   -0.2635    0.9017 H   0  0  0  0  0  0  0  0  0  0  0  0
    3.3955   -1.0004    3.2855 H   0  0  0  0  0  0  0  0  0  0  0  0
    2.4076   -2.8943    1.8574 H   0  0  0  0  0  0  0  0  0  0  0  0
    2.7658   -1.5138    0.8962 H   0  0  0  0  0  0  0  0  0  0  0  0
    5.7507   -2.7451    2.0953 H   0  0  0  0  0  0  0  0  0  0  0  0
    4.5416   -2.8411    4.2229 H   0  0  0  0  0  0  0  0  0  0  0  0
    5.8586   -4.2118    4.4968 H   0  0  0  0  0  0  0  0  0  0  0  0
    6.4770   -4.6852    2.2047 H   0  0  0  0  0  0  0  0  0  0  0  0
    1.6187   -6.2806    5.3077 H   0  0  0  0  0  0  0  0  0  0  0  0
  1  2  1  0
  1 33  1  0
  1 34  1  0
  1 35  1  0
  2  3  2  3
  2 36  1  0
  3 11  1  0
  3  4  1  0
  4  5  1  0
  4 37  1  0
  4 38  1  0
  5 16  1  0
  5  6  1  0
  5 70  1  1
  6  7  1  0
  6 39  1  0
  6 40  1  0
  7  8  1  0
  8 21  1  0
  8  9  1  0
  8 41  1  6
  9 10  1  6
  9 11  1  0
  9 12  1  0
 10 42  1  0
 11 43  1  0
 11 44  1  0
 12 13  1  0
 12 45  1  0
 12 46  1  0
 13 14  1  0
 13 16  1  0
 13 47  1  1
 14 15  1  0
 15 48  1  0
 15 49  1  0
 15 50  1  0
 16 17  1  0
 16 51  1  1
 17 31  1  0
 17 18  1  0
 17 52  1  1
 18 19  2  3
 21 18  1  6
 19 20  1  0
 19 53  1  0
 20 54  1  0
 20 55  1  0
 20 56  1  0
 21 32  1  0
 21 22  1  0
 29 22  1  6
 22 23  1  0
 22 57  1  6
 23 24  1  0
 23 58  1  0
 23 59  1  0
 24 28  1  0
 24 25  1  0
 24 60  1  1
 25 26  1  0
 25 61  1  0
 25 62  1  0
 26 30  1  0
 26 27  1  0
 26 63  1  1
 27 28  1  0
 27 64  1  0
 27 65  1  0
 28 29  1  0
 28 66  1  1
 29 32  1  0
 29 30  1  0
 30 31  1  0
 30 67  1  6
 31 32  1  0
 31 68  1  1
 32 69  1  1
M  CHG  1   5   1
M  END
>  <i_m_ct_stereo_status>  (52) 
1

>  <s_m_source_file>  (52) 
/var/tmp/pbs.5076255.sched01/tmpu5rzjxe4/0gixxd53k.sdf

>  <i_m_source_file_index>  (52) 
19

>  <i_lp_mmshare_version>  (52) 
48012

>  <i_f3d_flags>  (52) 
0

>  <s_epik_input>  (52) 
W0NAQF0xMjNbQ0BIXTRbQ0BdNShbT0hdKVtDSDJdQyg9W0NIXVxbQ0gzXSkvW0NIMl1OKFtDSDJdTzQpW0NAQEhdKFtDQEBIXShbQ0gyXTUpT1tDSDNdKVtDQEhdKC9DMT1bQ0hdXFtDSDNdKVtDQEBIXTZbQ0hdN1tDQEBdOChbQ0BIXTM2KVtDQEhdMltDSDJdW0NAQEhdOVtDQEhdOFtDSDJdW0NAQEhdN1tDSDJdOQ==

>  <s_epik_cmdline>  (52) 
J2VwaWtfcHl0aG9uJywgJy1waHQnLCAnMi4wJywgJy1waCcsICc3LjAnLCAnLXRuJywgJzgnLCAnLW1hJywgJzIwMCcsICctaW1hZScsICc8aW5maWxlLm1hZT4nLCAnLW9tYWUnLCAnPG91dGZpbGUubWFlPic=

>  <r_epik_Ionization_Penalty>  (52) 
1.70185

>  <r_epik_Ionization_Penalty_Charging>  (52) 
1.70185

>  <r_epik_Ionization_Penalty_Neutral>  (52) 
8.65496e-07

>  <r_epik_State_Penalty>  (52) 
1.8079

>  <r_epik_Charging_Adjusted_Penalty>  (52) 
3.50975

>  <i_epik_Tot_Q>  (52) 
1

>  <i_epik_Tot_abs_Q>  (52) 
1

>  <s_epik_Chemistry_Notes>  (52) 
This compound contains an acetal/aminal-like group ( X-CH(R)-Y where X, Y are N, S, or O) that may be acid/base labile, releasing an aldehyde.

>  <s_lp_Force_Field>  (52) 
OPLS3e

>  <r_lp_Energy>  (52) 
685.229

>  <b_lp_Chiralities_Consistent>  (52) 
1

>  <s_lp_Variant>  (52) 
13:0-2

>  <s_i_glide_gridfile>  (52) 
pfpi4k_grid

>  <i_i_glide_lignum>  (52) 
19

>  <i_i_glide_rotatable_bonds>  (52) 
2

>  <r_i_docking_score>  (52) 
-2.60846

>  <r_i_glide_ligand_efficiency>  (52) 
-0.0815144

>  <r_i_glide_ligand_efficiency_sa>  (52) 
-0.258792

>  <r_i_glide_ligand_efficiency_ln>  (52) 
-0.584105

>  <r_i_glide_gscore>  (52) 
-2.60846

>  <r_i_glide_lipo>  (52) 
-0.468819

>  <r_i_glide_hbond>  (52) 
-0.0502444

>  <r_i_glide_metal>  (52) 
-0

>  <r_i_glide_rewards>  (52) 
-0.43223

>  <r_i_glide_evdw>  (52) 
-19.7255

>  <r_i_glide_ecoul>  (52) 
-4.35865

>  <r_i_glide_erotb>  (52) 
0

>  <r_i_glide_esite>  (52) 
-0.0170915

>  <r_i_glide_emodel>  (52) 
-28.3247

>  <r_i_glide_energy>  (52) 
-24.0842

>  <r_i_glide_einternal>  (52) 
0.0744646

>  <r_i_glide_intrahb_reward>  (52) 
-0

>  <i_i_glide_confnum>  (52) 
1

>  <i_i_glide_posenum>  (52) 
37

>  <r_i_glide_eff_state_penalty>  (52) 
0

>  <ligand_id>  (52) 
13

>  <original_smiles>  (52) 
CC=C1CN2COC3C(O)(C1)CC(OC)C2C1C(=CC)C32C3CC4CC5CC4C34C5C1C24

>  <smiles>  (52) 
[H]OC12C([H])([H])C(=C([H])C([H])([H])[H])C([H])([H])[N+]3([H])C([H])([H])OC1([H])C14C(=C([H])C([H])([H])[H])C([H])(C5([H])C6([H])C7([H])C([H])([H])C8([H])C([H])([H])C1([H])C6(C8([H])C7([H])[H])C54[H])C3([H])C([H])(OC([H])([H])[H])C2([H])[H]

$$$$
13:1:2
     RDKit          3D

 70 78  0  0  1  0  0  0  0  0999 V2000
    3.8081   -2.0255   -2.1334 C   0  0  0  0  0  0  0  0  0  0  0  0
    4.1750   -2.0767   -0.6570 C   0  0  0  0  0  0  0  0  0  0  0  0
    4.6493   -3.0974    0.0803 C   0  0  0  0  0  0  0  0  0  0  0  0
    4.9637   -4.4975   -0.4804 C   0  0  0  0  0  0  0  0  0  0  0  0
    4.1444   -5.6241    0.0860 N   0  0  2  0  0  0  0  0  0  0  0  0
    2.6278   -5.1407    0.3531 C   0  0  0  0  0  0  0  0  0  0  0  0
    2.5804   -4.3238    1.5044 O   0  0  0  0  0  0  0  0  0  0  0  0
    3.3343   -4.4930    2.7293 C   0  0  2  0  0  0  0  0  0  0  0  0
    4.8648   -3.9962    2.5584 C   0  0  2  0  0  0  0  0  0  0  0  0
    5.1384   -3.3507    3.7918 O   0  0  0  0  0  0  0  0  0  0  0  0
    4.9539   -2.8186    1.5582 C   0  0  0  0  0  0  0  0  0  0  0  0
    6.1538   -4.9151    2.3575 C   0  0  0  0  0  0  0  0  0  0  0  0
    6.1682   -6.2162    1.4931 C   0  0  1  0  0  0  0  0  0  0  0  0
    6.8451   -7.2109    2.2548 O   0  0  0  0  0  0  0  0  0  0  0  0
    7.1552   -8.4242    1.5856 C   0  0  0  0  0  0  0  0  0  0  0  0
    4.7738   -6.6908    1.0133 C   0  0  1  0  0  0  0  0  0  0  0  0
    4.0014   -7.2273    2.3037 C   0  0  2  0  0  0  0  0  0  0  0  0
    4.0857   -6.4739    3.6264 C   0  0  0  0  0  0  0  0  0  0  0  0
    5.0208   -6.6661    4.6070 C   0  0  0  0  0  0  0  0  0  0  0  0
    5.0515   -5.9508    5.9465 C   0  0  0  0  0  0  0  0  0  0  0  0
    2.8559   -5.6086    3.8056 C   0  0  1  0  0  0  0  0  0  0  0  0
    1.2429   -5.6415    3.6349 C   0  0  2  0  0  0  0  0  0  0  0  0
    0.0976   -5.7483    4.7251 C   0  0  0  0  0  0  0  0  0  0  0  0
   -0.8878   -7.0560    4.6067 C   0  0  1  0  0  0  0  0  0  0  0  0
   -1.3441   -8.3040    3.5563 C   0  0  0  0  0  0  0  0  0  0  0  0
   -0.3934   -8.3365    2.1336 C   0  0  1  0  0  0  0  0  0  0  0  0
   -0.7508   -6.9973    2.2178 C   0  0  0  0  0  0  0  0  0  0  0  0
   -0.0137   -7.4315    3.5773 C   0  0  1  0  0  0  0  0  0  0  0  0
    1.1871   -6.9946    3.1916 C   0  0  1  0  0  0  0  0  0  0  0  0
    1.2708   -7.9264    1.9528 C   0  0  2  0  0  0  0  0  0  0  0  0
    2.7695   -8.0839    2.5922 C   0  0  2  0  0  0  0  0  0  0  0  0
    2.4382   -7.1992    3.8130 C   0  0  1  0  0  0  0  0  0  0  0  0
    4.1976   -1.1060   -2.5733 H   0  0  0  0  0  0  0  0  0  0  0  0
    2.7237   -1.9907   -2.2390 H   0  0  0  0  0  0  0  0  0  0  0  0
    4.1939   -2.8558   -2.7222 H   0  0  0  0  0  0  0  0  0  0  0  0
    3.9906   -1.1296   -0.1558 H   0  0  0  0  0  0  0  0  0  0  0  0
    4.6748   -4.5009   -1.5221 H   0  0  0  0  0  0  0  0  0  0  0  0
    6.0384   -4.6354   -0.5398 H   0  0  0  0  0  0  0  0  0  0  0  0
    2.3047   -4.5287   -0.4864 H   0  0  0  0  0  0  0  0  0  0  0  0
    1.9335   -5.9755    0.4024 H   0  0  0  0  0  0  0  0  0  0  0  0
    2.9029   -3.6030    3.1922 H   0  0  0  0  0  0  0  0  0  0  0  0
    5.1096   -3.9947    4.4825 H   0  0  0  0  0  0  0  0  0  0  0  0
    5.9458   -2.3620    1.6035 H   0  0  0  0  0  0  0  0  0  0  0  0
    4.2749   -2.0294    1.8976 H   0  0  0  0  0  0  0  0  0  0  0  0
    6.9519   -4.2865    1.9568 H   0  0  0  0  0  0  0  0  0  0  0  0
    6.5820   -5.1597    3.3290 H   0  0  0  0  0  0  0  0  0  0  0  0
    6.8295   -6.0715    0.6418 H   0  0  0  0  0  0  0  0  0  0  0  0
    7.7833   -9.0164    2.2445 H   0  0  0  0  0  0  0  0  0  0  0  0
    7.7075   -8.2605    0.6579 H   0  0  0  0  0  0  0  0  0  0  0  0
    6.2624   -9.0131    1.3779 H   0  0  0  0  0  0  0  0  0  0  0  0
    4.9102   -7.5506    0.3623 H   0  0  0  0  0  0  0  0  0  0  0  0
    3.2775   -6.6874    1.8063 H   0  0  0  0  0  0  0  0  0  0  0  0
    5.8181   -7.3648    4.4301 H   0  0  0  0  0  0  0  0  0  0  0  0
    5.9789   -5.3823    6.0531 H   0  0  0  0  0  0  0  0  0  0  0  0
    5.0226   -6.6854    6.7541 H   0  0  0  0  0  0  0  0  0  0  0  0
    4.2115   -5.2685    6.0790 H   0  0  0  0  0  0  0  0  0  0  0  0
    0.9060   -4.9968    2.8458 H   0  0  0  0  0  0  0  0  0  0  0  0
    0.5012   -5.6829    5.7366 H   0  0  0  0  0  0  0  0  0  0  0  0
   -0.5148   -4.8501    4.6253 H   0  0  0  0  0  0  0  0  0  0  0  0
   -1.8196   -6.5050    4.4713 H   0  0  0  0  0  0  0  0  0  0  0  0
   -1.3087   -9.2837    4.0552 H   0  0  0  0  0  0  0  0  0  0  0  0
   -2.4221   -8.2676    3.3460 H   0  0  0  0  0  0  0  0  0  0  0  0
   -0.8935   -8.7933    1.2950 H   0  0  0  0  0  0  0  0  0  0  0  0
   -0.2623   -6.3540    1.4849 H   0  0  0  0  0  0  0  0  0  0  0  0
   -1.8069   -6.7033    2.1742 H   0  0  0  0  0  0  0  0  0  0  0  0
    0.5638   -8.3416    4.0416 H   0  0  0  0  0  0  0  0  0  0  0  0
    1.4531   -9.0028    1.8654 H   0  0  0  0  0  0  0  0  0  0  0  0
    3.0288   -9.0902    2.9443 H   0  0  0  0  0  0  0  0  0  0  0  0
    2.3744   -7.6927    4.7851 H   0  0  0  0  0  0  0  0  0  0  0  0
    4.0876   -6.1836   -0.7553 H   0  0  0  0  0  0  0  0  0  0  0  0
  1  2  1  0
  1 33  1  0
  1 34  1  0
  1 35  1  0
  2  3  2  3
  2 36  1  0
  3 11  1  0
  3  4  1  0
  4  5  1  0
  4 37  1  0
  4 38  1  0
  5 16  1  0
  5  6  1  0
  5 70  1  6
  6  7  1  0
  6 39  1  0
  6 40  1  0
  7  8  1  0
  8 21  1  0
  8  9  1  0
  8 41  1  1
  9 10  1  1
  9 11  1  0
  9 12  1  0
 10 42  1  0
 11 43  1  0
 11 44  1  0
 12 13  1  0
 12 45  1  0
 12 46  1  0
 13 14  1  0
 13 16  1  0
 13 47  1  6
 14 15  1  0
 15 48  1  0
 15 49  1  0
 15 50  1  0
 16 17  1  0
 16 51  1  6
 17 31  1  0
 17 18  1  0
 17 52  1  1
 18 19  2  3
 21 18  1  1
 19 20  1  0
 19 53  1  0
 20 54  1  0
 20 55  1  0
 20 56  1  0
 21 32  1  0
 21 22  1  0
 29 22  1  6
 22 23  1  0
 22 57  1  6
 23 24  1  0
 23 58  1  0
 23 59  1  0
 24 28  1  0
 24 25  1  0
 24 60  1  1
 25 26  1  0
 25 61  1  0
 25 62  1  0
 26 30  1  0
 26 27  1  0
 26 63  1  6
 27 28  1  0
 27 64  1  0
 27 65  1  0
 28 29  1  0
 28 66  1  6
 29 32  1  0
 29 30  1  0
 30 31  1  0
 30 67  1  6
 31 32  1  0
 31 68  1  1
 32 69  1  1
M  CHG  1   5   1
M  END
>  <i_m_ct_stereo_status>  (53) 
1

>  <s_m_source_file>  (53) 
/var/tmp/pbs.5076255.sched01/tmpu5rzjxe4/0gixxd53k.sdf

>  <i_m_source_file_index>  (53) 
19

>  <i_lp_mmshare_version>  (53) 
48012

>  <i_f3d_flags>  (53) 
0

>  <s_epik_input>  (53) 
W0NAQF0xMjNbQ0BIXTRbQ0BdNShbT0hdKVtDSDJdQyg9W0NIXVxbQ0gzXSkvW0NIMl1OKFtDSDJdTzQpW0NAQEhdKFtDQEBIXShbQ0gyXTUpT1tDSDNdKVtDQEhdKC9DMT1bQ0hdXFtDSDNdKVtDQEBIXTZbQ0hdN1tDQEBdOChbQ0BIXTM2KVtDQEhdMltDSDJdW0NAQEhdOVtDQEhdOFtDSDJdW0NAQEhdN1tDSDJdOQ==

>  <s_epik_cmdline>  (53) 
J2VwaWtfcHl0aG9uJywgJy1waHQnLCAnMi4wJywgJy1waCcsICc3LjAnLCAnLXRuJywgJzgnLCAnLW1hJywgJzIwMCcsICctaW1hZScsICc8aW5maWxlLm1hZT4nLCAnLW9tYWUnLCAnPG91dGZpbGUubWFlPic=

>  <r_epik_Ionization_Penalty>  (53) 
1.70185

>  <r_epik_Ionization_Penalty_Charging>  (53) 
1.70185

>  <r_epik_Ionization_Penalty_Neutral>  (53) 
8.65496e-07

>  <r_epik_State_Penalty>  (53) 
1.8079

>  <r_epik_Charging_Adjusted_Penalty>  (53) 
3.50975

>  <i_epik_Tot_Q>  (53) 
1

>  <i_epik_Tot_abs_Q>  (53) 
1

>  <s_epik_Chemistry_Notes>  (53) 
This compound contains an acetal/aminal-like group ( X-CH(R)-Y where X, Y are N, S, or O) that may be acid/base labile, releasing an aldehyde.

>  <s_lp_Force_Field>  (53) 
OPLS3e

>  <r_lp_Energy>  (53) 
685.229

>  <b_lp_Chiralities_Consistent>  (53) 
1

>  <s_lp_Variant>  (53) 
13:0-2

>  <s_i_glide_gridfile>  (53) 
pfpi4k_grid

>  <i_i_glide_lignum>  (53) 
19

>  <i_i_glide_rotatable_bonds>  (53) 
2

>  <r_i_docking_score>  (53) 
-2.41327

>  <r_i_glide_ligand_efficiency>  (53) 
-0.0754148

>  <r_i_glide_ligand_efficiency_sa>  (53) 
-0.239427

>  <r_i_glide_ligand_efficiency_ln>  (53) 
-0.540398

>  <r_i_glide_gscore>  (53) 
-2.41327

>  <r_i_glide_lipo>  (53) 
-0.480922

>  <r_i_glide_hbond>  (53) 
0

>  <r_i_glide_metal>  (53) 
-0

>  <r_i_glide_rewards>  (53) 
-0.43223

>  <r_i_glide_evdw>  (53) 
-21.6079

>  <r_i_glide_ecoul>  (53) 
-2.48101

>  <r_i_glide_erotb>  (53) 
0

>  <r_i_glide_esite>  (53) 
-0.0475746

>  <r_i_glide_emodel>  (53) 
-28.2186

>  <r_i_glide_energy>  (53) 
-24.0889

>  <r_i_glide_einternal>  (53) 
0.0814957

>  <r_i_glide_intrahb_reward>  (53) 
-0

>  <i_i_glide_confnum>  (53) 
2

>  <i_i_glide_posenum>  (53) 
3

>  <r_i_glide_eff_state_penalty>  (53) 
0

>  <ligand_id>  (53) 
13

>  <original_smiles>  (53) 
CC=C1CN2COC3C(O)(C1)CC(OC)C2C1C(=CC)C32C3CC4CC5CC4C34C5C1C24

>  <smiles>  (53) 
[H]OC12C([H])([H])C(=C([H])C([H])([H])[H])C([H])([H])[N+]3([H])C([H])([H])OC1([H])C14C(=C([H])C([H])([H])[H])C([H])(C5([H])C6([H])C7([H])C([H])([H])C8([H])C([H])([H])C1([H])C6(C8([H])C7([H])[H])C54[H])C3([H])C([H])(OC([H])([H])[H])C2([H])[H]

$$$$
14:1:0
     RDKit          3D

 82 90  0  0  1  0  0  0  0  0999 V2000
    1.1901    0.4047    2.9548 C   0  0  0  0  0  0  0  0  0  0  0  0
    0.8274    0.7400    4.4208 C   0  0  1  0  0  0  0  0  0  0  0  0
    1.3174    2.2078    4.7101 C   0  0  0  0  0  0  0  0  0  0  0  0
    0.3890    3.2281    4.2496 N   0  0  0  0  0  0  0  0  0  0  0  0
    0.5884    4.5248    3.9894 C   0  0  0  0  0  0  0  0  0  0  0  0
   -0.5295    5.2055    3.7140 N   0  0  0  0  0  0  0  0  0  0  0  0
   -1.5337    4.2309    3.7892 C   0  0  0  0  0  0  0  0  0  0  0  0
   -0.9711    3.0337    4.1415 C   0  0  0  0  0  0  0  0  0  0  0  0
   -1.4944    1.7362    4.3540 C   0  0  0  0  0  0  0  0  0  0  0  0
   -0.7087    0.6470    4.4886 C   0  0  0  0  0  0  0  0  0  0  0  0
   -1.2925   -0.7440    4.6126 C   0  0  0  0  0  0  0  0  0  0  0  0
   -0.7070   -1.4701    5.8155 C   0  0  0  0  0  0  0  0  0  0  0  0
    0.8301   -1.5988    5.7437 C   0  0  2  0  0  0  0  0  0  0  0  0
    1.4919   -0.2106    5.5017 C   0  0  1  0  0  0  0  0  0  0  0  0
    3.0483   -0.3037    5.4580 C   0  0  1  0  0  0  0  0  0  0  0  0
    3.6109    0.5024    6.4770 O   0  0  0  0  0  0  0  0  0  0  0  0
    3.6012   -1.7417    5.6252 C   0  0  0  0  0  0  0  0  0  0  0  0
    2.9427   -2.7945    4.6786 C   0  0  2  0  0  0  0  0  0  0  0  0
    3.3157   -2.3882    3.2257 C   0  0  0  0  0  0  0  0  0  0  0  0
    1.3646   -2.7849    4.8750 C   0  0  1  0  0  0  0  0  0  0  0  0
    0.9880   -4.1455    5.5365 C   0  0  0  0  0  0  0  0  0  0  0  0
    2.3271   -4.6041    6.0842 C   0  0  1  0  0  0  0  0  0  0  0  0
    2.6342   -5.9845    6.6680 C   0  0  0  0  0  0  0  0  0  0  0  0
    4.1783   -5.9702    6.6513 C   0  0  0  0  0  0  0  0  0  0  0  0
    4.5885   -4.6435    5.9498 C   0  0  0  0  0  0  0  0  0  0  0  0
    3.3880   -4.2875    5.0225 C   0  0  2  0  0  0  0  0  0  0  0  0
    3.3566   -5.2825    3.7847 C   0  0  0  0  0  0  0  0  0  0  0  0
    2.3498   -5.9655    3.5787 O   0  0  0  0  0  0  0  0  0  0  0  0
    4.4404   -5.4261    2.9734 N   0  0  0  0  0  0  0  0  0  0  0  0
    4.6866   -6.4374    1.9620 C   0  0  2  0  0  0  0  0  0  0  0  0
    6.0059   -7.0573    2.4912 C   0  0  0  0  0  0  0  0  0  0  0  0
    6.7006   -5.8544    3.1741 C   0  0  0  0  0  0  0  0  0  0  0  0
    5.7044   -4.7158    2.8372 C   0  0  1  0  0  0  0  0  0  0  0  0
    5.6765   -4.3493    1.3205 C   0  0  1  0  0  0  0  0  0  0  0  0
    7.0013   -4.1606    0.7423 N   0  0  0  0  0  0  0  0  0  0  0  0
    7.9332   -5.0513    0.4287 C   0  0  0  0  0  0  0  0  0  0  0  0
    9.0196   -4.5164   -0.0863 N   0  0  0  0  0  0  0  0  0  0  0  0
    8.6932   -3.1942   -0.0031 C   0  0  0  0  0  0  0  0  0  0  0  0
    7.4855   -2.9248    0.4698 N   0  0  0  0  0  0  0  0  0  0  0  0
    4.9320   -5.5638    0.7153 C   0  0  0  0  0  0  0  0  0  0  0  0
    2.2337    0.6144    2.7241 H   0  0  0  0  0  0  0  0  0  0  0  0
    0.6075    1.0168    2.2620 H   0  0  0  0  0  0  0  0  0  0  0  0
    0.9696   -0.6339    2.7075 H   0  0  0  0  0  0  0  0  0  0  0  0
    1.4167    2.3664    5.7899 H   0  0  0  0  0  0  0  0  0  0  0  0
    2.2982    2.4030    4.2759 H   0  0  0  0  0  0  0  0  0  0  0  0
    1.5654    4.9818    4.0010 H   0  0  0  0  0  0  0  0  0  0  0  0
   -2.5568    4.4783    3.5833 H   0  0  0  0  0  0  0  0  0  0  0  0
   -2.5705    1.6464    4.3669 H   0  0  0  0  0  0  0  0  0  0  0  0
   -2.3790   -0.6950    4.6896 H   0  0  0  0  0  0  0  0  0  0  0  0
   -1.0535   -1.2963    3.7058 H   0  0  0  0  0  0  0  0  0  0  0  0
   -0.9648   -0.8970    6.7072 H   0  0  0  0  0  0  0  0  0  0  0  0
   -1.1839   -2.4418    5.9284 H   0  0  0  0  0  0  0  0  0  0  0  0
    1.1257   -1.8601    6.7606 H   0  0  0  0  0  0  0  0  0  0  0  0
    1.2554    0.2932    6.4414 H   0  0  0  0  0  0  0  0  0  0  0  0
    3.4300    0.1124    4.5286 H   0  0  0  0  0  0  0  0  0  0  0  0
    3.3461    0.1596    7.3169 H   0  0  0  0  0  0  0  0  0  0  0  0
    4.6796   -1.7311    5.4633 H   0  0  0  0  0  0  0  0  0  0  0  0
    3.4712   -2.0322    6.6673 H   0  0  0  0  0  0  0  0  0  0  0  0
    2.8482   -3.0233    2.4712 H   0  0  0  0  0  0  0  0  0  0  0  0
    4.3910   -2.3782    3.0766 H   0  0  0  0  0  0  0  0  0  0  0  0
    3.0066   -1.3821    2.9902 H   0  0  0  0  0  0  0  0  0  0  0  0
    0.8820   -2.7426    3.8998 H   0  0  0  0  0  0  0  0  0  0  0  0
    0.2580   -4.0656    6.3406 H   0  0  0  0  0  0  0  0  0  0  0  0
    0.5794   -4.8394    4.8043 H   0  0  0  0  0  0  0  0  0  0  0  0
    2.4846   -3.9455    6.9419 H   0  0  0  0  0  0  0  0  0  0  0  0
    2.2384   -6.0985    7.6776 H   0  0  0  0  0  0  0  0  0  0  0  0
    2.2390   -6.7955    6.0551 H   0  0  0  0  0  0  0  0  0  0  0  0
    4.6019   -6.0304    7.6552 H   0  0  0  0  0  0  0  0  0  0  0  0
    4.5509   -6.8310    6.0939 H   0  0  0  0  0  0  0  0  0  0  0  0
    4.7458   -3.8881    6.7182 H   0  0  0  0  0  0  0  0  0  0  0  0
    5.5486   -4.7421    5.4600 H   0  0  0  0  0  0  0  0  0  0  0  0
    3.8878   -7.1731    1.8113 H   0  0  0  0  0  0  0  0  0  0  0  0
    5.8054   -7.8384    3.2296 H   0  0  0  0  0  0  0  0  0  0  0  0
    6.5878   -7.5009    1.6841 H   0  0  0  0  0  0  0  0  0  0  0  0
    6.7661   -6.0279    4.2529 H   0  0  0  0  0  0  0  0  0  0  0  0
    7.7191   -5.6544    2.8356 H   0  0  0  0  0  0  0  0  0  0  0  0
    5.8353   -3.8464    3.4905 H   0  0  0  0  0  0  0  0  0  0  0  0
    5.0655   -3.4537    1.1467 H   0  0  0  0  0  0  0  0  0  0  0  0
    7.8030   -6.1300    0.5202 H   0  0  0  0  0  0  0  0  0  0  0  0
    9.4054   -2.4347   -0.2995 H   0  0  0  0  0  0  0  0  0  0  0  0
    5.5014   -6.1046   -0.0371 H   0  0  0  0  0  0  0  0  0  0  0  0
    3.9919   -5.2532    0.2390 H   0  0  0  0  0  0  0  0  0  0  0  0
  2  1  1  6
  1 41  1  0
  1 42  1  0
  1 43  1  0
  2 10  1  0
  2 14  1  0
  2  3  1  0
  3  4  1  0
  3 44  1  0
  3 45  1  0
  4  8  1  0
  4  5  1  0
  5  6  2  0
  5 46  1  0
  6  7  1  0
  7  8  2  0
  7 47  1  0
  8  9  1  0
  9 10  2  0
  9 48  1  0
 10 11  1  0
 11 12  1  0
 11 49  1  0
 11 50  1  0
 12 13  1  0
 12 51  1  0
 12 52  1  0
 13 20  1  0
 13 14  1  0
 13 53  1  1
 14 15  1  0
 14 54  1  1
 15 16  1  0
 15 17  1  0
 15 55  1  6
 16 56  1  0
 17 18  1  0
 17 57  1  0
 17 58  1  0
 18 26  1  0
 18 19  1  6
 18 20  1  0
 19 59  1  0
 19 60  1  0
 19 61  1  0
 20 21  1  0
 20 62  1  6
 21 22  1  0
 21 63  1  0
 21 64  1  0
 22 26  1  0
 22 23  1  0
 22 65  1  1
 23 24  1  0
 23 66  1  0
 23 67  1  0
 24 25  1  0
 24 68  1  0
 24 69  1  0
 25 26  1  0
 25 70  1  0
 25 71  1  0
 26 27  1  6
 27 28  2  0
 27 29  1  0
 29 33  1  0
 29 30  1  0
 30 40  1  0
 30 31  1  0
 30 72  1  6
 31 32  1  0
 31 73  1  0
 31 74  1  0
 32 33  1  0
 32 75  1  0
 32 76  1  0
 33 34  1  0
 33 77  1  1
 34 35  1  0
 34 40  1  0
 34 78  1  1
 35 39  1  0
 35 36  1  0
 36 37  2  0
 36 79  1  0
 37 38  1  0
 38 39  2  0
 38 80  1  0
 40 81  1  0
 40 82  1  0
M  END
>  <i_m_ct_stereo_status>  (54) 
1

>  <s_m_source_file>  (54) 
/var/tmp/pbs.5076255.sched01/tmpu5rzjxe4/0gixxd53k.sdf

>  <i_m_source_file_index>  (54) 
21

>  <i_lp_mmshare_version>  (54) 
48012

>  <i_f3d_flags>  (54) 
0

>  <s_epik_input>  (54) 
W2NIXTFuW2NIXW4oW0NIMl0yKWMxW0NIXT1DKFtDQEBdMjNbQ0gzXSlbQ0gyXVtDSDJdW0NAQEhdNFtDQEhdM1tDQEBIXShbT0hdKVtDSDJdW0NAXTUoW0NIM10pW0NASF00W0NIMl1bQ0BASF02W0NAQF01KFtDSDJdW0NIMl1bQ0gyXTYpQyg9TylOKFtDQEhdNzgpW0NAQEhdKFtDSDJdW0NIMl03KVtDQEhdKFtDSDJdOCluOVtjSF1uW2NIXW45

>  <s_epik_cmdline>  (54) 
J2VwaWtfcHl0aG9uJywgJy1waHQnLCAnMi4wJywgJy1waCcsICc3LjAnLCAnLXRuJywgJzgnLCAnLW1hJywgJzIwMCcsICctaW1hZScsICc8aW5maWxlLm1hZT4nLCAnLW9tYWUnLCAnPG91dGZpbGUubWFlPic=

>  <r_lp_tautomer_probability>  (54) 
1

>  <r_epik_Ionization_Penalty>  (54) 
2.03153

>  <r_epik_Ionization_Penalty_Charging>  (54) 
2.03143

>  <r_epik_Ionization_Penalty_Neutral>  (54) 
9.71842e-05

>  <r_epik_State_Penalty>  (54) 
2.16247

>  <r_epik_Charging_Adjusted_Penalty>  (54) 
4.1939

>  <i_epik_Tot_Q>  (54) 
0

>  <i_epik_Tot_abs_Q>  (54) 
0

>  <s_lp_Force_Field>  (54) 
OPLS3e

>  <r_lp_Energy>  (54) 
110.601

>  <b_lp_Chiralities_Consistent>  (54) 
1

>  <s_lp_Variant>  (54) 
14:0-2

>  <s_i_glide_gridfile>  (54) 
pfpi4k_grid

>  <i_i_glide_lignum>  (54) 
21

>  <i_i_glide_rotatable_bonds>  (54) 
4

>  <r_i_docking_score>  (54) 
-2.70506

>  <r_i_glide_ligand_efficiency>  (54) 
-0.0676265

>  <r_i_glide_ligand_efficiency_sa>  (54) 
-0.231279

>  <r_i_glide_ligand_efficiency_ln>  (54) 
-0.57691

>  <r_i_glide_gscore>  (54) 
-2.70506

>  <r_i_glide_lipo>  (54) 
-0.223975

>  <r_i_glide_hbond>  (54) 
-0.139019

>  <r_i_glide_metal>  (54) 
-0

>  <r_i_glide_rewards>  (54) 
-0.465376

>  <r_i_glide_evdw>  (54) 
-31.0434

>  <r_i_glide_ecoul>  (54) 
-2.83328

>  <r_i_glide_erotb>  (54) 
0.210716

>  <r_i_glide_esite>  (54) 
-0.110247

>  <r_i_glide_emodel>  (54) 
-38.6334

>  <r_i_glide_energy>  (54) 
-33.8766

>  <r_i_glide_einternal>  (54) 
2.30622

>  <r_i_glide_intrahb_reward>  (54) 
-0

>  <i_i_glide_confnum>  (54) 
1

>  <i_i_glide_posenum>  (54) 
17

>  <r_i_glide_eff_state_penalty>  (54) 
0

>  <ligand_id>  (54) 
14

>  <original_smiles>  (54) 
CC12Cn3cncc3C=C1CCC1C2C(O)CC2(C)C1CC1CCCC12C(=O)N1C2CCC1C(n1cncn1)C2

>  <smiles>  (54) 
[H]OC1([H])C([H])([H])C2(C([H])([H])[H])C([H])(C([H])([H])C3([H])C([H])([H])C([H])([H])C([H])([H])C32C(=O)N2C3([H])C([H])([H])C([H])([H])C2([H])C([H])(n2nc([H])nc2[H])C3([H])[H])C2([H])C([H])([H])C([H])([H])C3=C([H])c4c([H])nc([H])n4C([H])([H])C3(C([H])([H])[H])C12[H]

$$$$
14:1:1
     RDKit          3D

 82 90  0  0  1  0  0  0  0  0999 V2000
    1.7157   -6.1798    2.8875 C   0  0  0  0  0  0  0  0  0  0  0  0
    2.5415   -6.7653    4.0504 C   0  0  1  0  0  0  0  0  0  0  0  0
    1.6360   -7.7932    4.8204 C   0  0  0  0  0  0  0  0  0  0  0  0
    1.6022   -9.1065    4.2021 N   0  0  0  0  0  0  0  0  0  0  0  0
    0.6876  -10.0824    4.3210 C   0  0  0  0  0  0  0  0  0  0  0  0
    1.0134  -11.1872    3.6748 N   0  0  0  0  0  0  0  0  0  0  0  0
    2.2715  -10.9358    3.1249 C   0  0  0  0  0  0  0  0  0  0  0  0
    2.6100   -9.6527    3.4484 C   0  0  0  0  0  0  0  0  0  0  0  0
    3.7156   -8.7994    3.1156 C   0  0  0  0  0  0  0  0  0  0  0  0
    3.7289   -7.4808    3.3712 C   0  0  0  0  0  0  0  0  0  0  0  0
    4.8883   -6.5945    2.9431 C   0  0  0  0  0  0  0  0  0  0  0  0
    5.4061   -5.7710    4.1155 C   0  0  0  0  0  0  0  0  0  0  0  0
    4.3160   -4.8727    4.7379 C   0  0  2  0  0  0  0  0  0  0  0  0
    3.0521   -5.7014    5.1086 C   0  0  1  0  0  0  0  0  0  0  0  0
    1.9495   -4.8122    5.7662 C   0  0  1  0  0  0  0  0  0  0  0  0
    1.6590   -5.2891    7.0698 O   0  0  0  0  0  0  0  0  0  0  0  0
    2.3220   -3.3114    5.8795 C   0  0  0  0  0  0  0  0  0  0  0  0
    2.8387   -2.6591    4.5617 C   0  0  2  0  0  0  0  0  0  0  0  0
    1.6481   -2.6810    3.5577 C   0  0  0  0  0  0  0  0  0  0  0  0
    4.0619   -3.5163    3.9966 C   0  0  1  0  0  0  0  0  0  0  0  0
    5.3137   -2.6082    4.1243 C   0  0  0  0  0  0  0  0  0  0  0  0
    4.8641   -1.5542    5.1115 C   0  0  1  0  0  0  0  0  0  0  0  0
    5.6177   -0.2752    5.4815 C   0  0  0  0  0  0  0  0  0  0  0  0
    4.4942    0.4980    6.2257 C   0  0  0  0  0  0  0  0  0  0  0  0
    3.2034   -0.3790    6.1678 C   0  0  0  0  0  0  0  0  0  0  0  0
    3.4082   -1.1817    4.8063 C   0  0  2  0  0  0  0  0  0  0  0  0
    3.2853   -0.2528    3.5038 C   0  0  0  0  0  0  0  0  0  0  0  0
    4.0739   -0.4030    2.5545 O   0  0  0  0  0  0  0  0  0  0  0  0
    2.2953    0.6799    3.3981 N   0  0  0  0  0  0  0  0  0  0  0  0
    2.0144    1.5675    2.2644 C   0  0  2  0  0  0  0  0  0  0  0  0
    2.2420    2.9695    2.8876 C   0  0  0  0  0  0  0  0  0  0  0  0
    1.8064    2.7348    4.3480 C   0  0  0  0  0  0  0  0  0  0  0  0
    1.2888    1.2689    4.3104 C   0  0  1  0  0  0  0  0  0  0  0  0
    0.0140    1.1095    3.4676 C   0  0  1  0  0  0  0  0  0  0  0  0
   -1.0228    2.0685    3.8675 N   0  0  0  0  0  0  0  0  0  0  0  0
   -1.2625    3.3072    3.4462 C   0  0  0  0  0  0  0  0  0  0  0  0
   -2.1800    3.9382    4.1345 N   0  0  0  0  0  0  0  0  0  0  0  0
   -2.5350    2.9653    5.0108 C   0  0  0  0  0  0  0  0  0  0  0  0
   -1.7848    1.8498    4.9596 N   0  0  0  0  0  0  0  0  0  0  0  0
    0.5202    1.2831    2.0249 C   0  0  0  0  0  0  0  0  0  0  0  0
    0.7480   -5.8046    3.2132 H   0  0  0  0  0  0  0  0  0  0  0  0
    1.5063   -6.9488    2.1427 H   0  0  0  0  0  0  0  0  0  0  0  0
    2.2551   -5.3890    2.3704 H   0  0  0  0  0  0  0  0  0  0  0  0
    2.0178   -7.9716    5.8236 H   0  0  0  0  0  0  0  0  0  0  0  0
    0.6165   -7.4289    4.9429 H   0  0  0  0  0  0  0  0  0  0  0  0
   -0.2246   -9.9710    4.9083 H   0  0  0  0  0  0  0  0  0  0  0  0
    2.7880  -11.6863    2.5393 H   0  0  0  0  0  0  0  0  0  0  0  0
    4.5435   -9.2856    2.6415 H   0  0  0  0  0  0  0  0  0  0  0  0
    5.6914   -7.2005    2.5262 H   0  0  0  0  0  0  0  0  0  0  0  0
    4.5522   -5.9412    2.1433 H   0  0  0  0  0  0  0  0  0  0  0  0
    5.7617   -6.4694    4.8725 H   0  0  0  0  0  0  0  0  0  0  0  0
    6.2813   -5.2005    3.8080 H   0  0  0  0  0  0  0  0  0  0  0  0
    4.7384   -4.5766    5.7012 H   0  0  0  0  0  0  0  0  0  0  0  0
    3.4502   -6.3256    5.9140 H   0  0  0  0  0  0  0  0  0  0  0  0
    1.0100   -4.9031    5.2263 H   0  0  0  0  0  0  0  0  0  0  0  0
    2.4456   -5.2624    7.5958 H   0  0  0  0  0  0  0  0  0  0  0  0
    1.4565   -2.7557    6.2414 H   0  0  0  0  0  0  0  0  0  0  0  0
    3.0728   -3.2184    6.6626 H   0  0  0  0  0  0  0  0  0  0  0  0
    1.9179   -2.3487    2.5577 H   0  0  0  0  0  0  0  0  0  0  0  0
    0.8153   -2.0735    3.9041 H   0  0  0  0  0  0  0  0  0  0  0  0
    1.2495   -3.6736    3.4157 H   0  0  0  0  0  0  0  0  0  0  0  0
    3.9151   -3.7202    2.9339 H   0  0  0  0  0  0  0  0  0  0  0  0
    6.1876   -3.1143    4.5296 H   0  0  0  0  0  0  0  0  0  0  0  0
    5.6040   -2.1683    3.1765 H   0  0  0  0  0  0  0  0  0  0  0  0
    4.8681   -2.1121    6.0438 H   0  0  0  0  0  0  0  0  0  0  0  0
    6.4565   -0.4555    6.1616 H   0  0  0  0  0  0  0  0  0  0  0  0
    5.9644    0.2764    4.5983 H   0  0  0  0  0  0  0  0  0  0  0  0
    4.7291    0.7235    7.2710 H   0  0  0  0  0  0  0  0  0  0  0  0
    4.3263    1.4552    5.7192 H   0  0  0  0  0  0  0  0  0  0  0  0
    3.2456   -1.1109    6.9923 H   0  0  0  0  0  0  0  0  0  0  0  0
    2.3531    0.2329    6.3250 H   0  0  0  0  0  0  0  0  0  0  0  0
    2.5870    1.4080    1.3629 H   0  0  0  0  0  0  0  0  0  0  0  0
    3.2928    3.2842    2.8378 H   0  0  0  0  0  0  0  0  0  0  0  0
    1.6401    3.7468    2.4115 H   0  0  0  0  0  0  0  0  0  0  0  0
    2.6577    2.8560    5.0224 H   0  0  0  0  0  0  0  0  0  0  0  0
    1.0650    3.4504    4.7027 H   0  0  0  0  0  0  0  0  0  0  0  0
    1.0289    0.8472    5.2292 H   0  0  0  0  0  0  0  0  0  0  0  0
   -0.3438    0.0913    3.6410 H   0  0  0  0  0  0  0  0  0  0  0  0
   -0.6746    3.7840    2.6797 H   0  0  0  0  0  0  0  0  0  0  0  0
   -3.3360    3.0756    5.7054 H   0  0  0  0  0  0  0  0  0  0  0  0
    0.0346    2.0844    1.4759 H   0  0  0  0  0  0  0  0  0  0  0  0
    0.3393    0.3565    1.4673 H   0  0  0  0  0  0  0  0  0  0  0  0
  2  1  1  6
  1 41  1  0
  1 42  1  0
  1 43  1  0
  2 10  1  0
  2 14  1  0
  2  3  1  0
  3  4  1  0
  3 44  1  0
  3 45  1  0
  4  8  1  0
  4  5  1  0
  5  6  2  0
  5 46  1  0
  6  7  1  0
  7  8  2  0
  7 47  1  0
  8  9  1  0
  9 10  2  0
  9 48  1  0
 10 11  1  0
 11 12  1  0
 11 49  1  0
 11 50  1  0
 12 13  1  0
 12 51  1  0
 12 52  1  0
 13 20  1  0
 13 14  1  0
 13 53  1  1
 14 15  1  0
 14 54  1  1
 15 16  1  0
 15 17  1  0
 15 55  1  6
 16 56  1  0
 17 18  1  0
 17 57  1  0
 17 58  1  0
 18 26  1  0
 18 19  1  6
 18 20  1  0
 19 59  1  0
 19 60  1  0
 19 61  1  0
 20 21  1  0
 20 62  1  6
 21 22  1  0
 21 63  1  0
 21 64  1  0
 22 26  1  0
 22 23  1  0
 22 65  1  1
 23 24  1  0
 23 66  1  0
 23 67  1  0
 24 25  1  0
 24 68  1  0
 24 69  1  0
 25 26  1  0
 25 70  1  0
 25 71  1  0
 26 27  1  6
 27 28  2  0
 27 29  1  0
 29 33  1  0
 29 30  1  0
 30 40  1  0
 30 31  1  0
 30 72  1  6
 31 32  1  0
 31 73  1  0
 31 74  1  0
 32 33  1  0
 32 75  1  0
 32 76  1  0
 33 34  1  0
 33 77  1  1
 34 35  1  0
 34 40  1  0
 34 78  1  6
 35 39  1  0
 35 36  1  0
 36 37  2  0
 36 79  1  0
 37 38  1  0
 38 39  2  0
 38 80  1  0
 40 81  1  0
 40 82  1  0
M  END
>  <i_m_ct_stereo_status>  (55) 
1

>  <s_m_source_file>  (55) 
/var/tmp/pbs.5076255.sched01/tmpu5rzjxe4/0gixxd53k.sdf

>  <i_m_source_file_index>  (55) 
21

>  <i_lp_mmshare_version>  (55) 
48012

>  <i_f3d_flags>  (55) 
0

>  <s_epik_input>  (55) 
W2NIXTFuW2NIXW4oW0NIMl0yKWMxW0NIXT1DKFtDQEBdMjNbQ0gzXSlbQ0gyXVtDSDJdW0NAQEhdNFtDQEhdM1tDQEBIXShbT0hdKVtDSDJdW0NAXTUoW0NIM10pW0NASF00W0NIMl1bQ0BASF02W0NAQF01KFtDSDJdW0NIMl1bQ0gyXTYpQyg9TylOKFtDQEhdNzgpW0NAQEhdKFtDSDJdW0NIMl03KVtDQEhdKFtDSDJdOCluOVtjSF1uW2NIXW45

>  <s_epik_cmdline>  (55) 
J2VwaWtfcHl0aG9uJywgJy1waHQnLCAnMi4wJywgJy1waCcsICc3LjAnLCAnLXRuJywgJzgnLCAnLW1hJywgJzIwMCcsICctaW1hZScsICc8aW5maWxlLm1hZT4nLCAnLW9tYWUnLCAnPG91dGZpbGUubWFlPic=

>  <r_lp_tautomer_probability>  (55) 
1

>  <r_epik_Ionization_Penalty>  (55) 
2.03153

>  <r_epik_Ionization_Penalty_Charging>  (55) 
2.03143

>  <r_epik_Ionization_Penalty_Neutral>  (55) 
9.71842e-05

>  <r_epik_State_Penalty>  (55) 
2.16247

>  <r_epik_Charging_Adjusted_Penalty>  (55) 
4.1939

>  <i_epik_Tot_Q>  (55) 
0

>  <i_epik_Tot_abs_Q>  (55) 
0

>  <s_lp_Force_Field>  (55) 
OPLS3e

>  <r_lp_Energy>  (55) 
110.601

>  <b_lp_Chiralities_Consistent>  (55) 
1

>  <s_lp_Variant>  (55) 
14:0-2

>  <s_i_glide_gridfile>  (55) 
pfpi4k_grid

>  <i_i_glide_lignum>  (55) 
21

>  <i_i_glide_rotatable_bonds>  (55) 
4

>  <r_i_docking_score>  (55) 
-2.48228

>  <r_i_glide_ligand_efficiency>  (55) 
-0.062057

>  <r_i_glide_ligand_efficiency_sa>  (55) 
-0.212232

>  <r_i_glide_ligand_efficiency_ln>  (55) 
-0.529398

>  <r_i_glide_gscore>  (55) 
-2.48228

>  <r_i_glide_lipo>  (55) 
-0.229994

>  <r_i_glide_hbond>  (55) 
-0.00757178

>  <r_i_glide_metal>  (55) 
-0

>  <r_i_glide_rewards>  (55) 
-0.00369289

>  <r_i_glide_evdw>  (55) 
-32.3598

>  <r_i_glide_ecoul>  (55) 
-4.27653

>  <r_i_glide_erotb>  (55) 
0.210716

>  <r_i_glide_esite>  (55) 
-0.192271

>  <r_i_glide_emodel>  (55) 
-39.5321

>  <r_i_glide_energy>  (55) 
-36.6363

>  <r_i_glide_einternal>  (55) 
3.97972

>  <r_i_glide_intrahb_reward>  (55) 
-0

>  <i_i_glide_confnum>  (55) 
1

>  <i_i_glide_posenum>  (55) 
18

>  <r_i_glide_eff_state_penalty>  (55) 
0

>  <ligand_id>  (55) 
14

>  <original_smiles>  (55) 
CC12Cn3cncc3C=C1CCC1C2C(O)CC2(C)C1CC1CCCC12C(=O)N1C2CCC1C(n1cncn1)C2

>  <smiles>  (55) 
[H]OC1([H])C([H])([H])C2(C([H])([H])[H])C([H])(C([H])([H])C3([H])C([H])([H])C([H])([H])C([H])([H])C32C(=O)N2C3([H])C([H])([H])C([H])([H])C2([H])C([H])(n2nc([H])nc2[H])C3([H])[H])C2([H])C([H])([H])C([H])([H])C3=C([H])c4c([H])nc([H])n4C([H])([H])C3(C([H])([H])[H])C12[H]

$$$$
14:1:2
     RDKit          3D

 82 90  0  0  1  0  0  0  0  0999 V2000
    1.1510    0.6541    3.2773 C   0  0  0  0  0  0  0  0  0  0  0  0
    0.8457    0.7148    4.7922 C   0  0  1  0  0  0  0  0  0  0  0  0
    1.4979    2.0299    5.3568 C   0  0  0  0  0  0  0  0  0  0  0  0
    0.6814    3.2136    5.1400 N   0  0  0  0  0  0  0  0  0  0  0  0
    1.0157    4.5064    5.1285 C   0  0  0  0  0  0  0  0  0  0  0  0
   -0.0215    5.3407    5.0063 N   0  0  0  0  0  0  0  0  0  0  0  0
   -1.1167    4.4808    4.9480 C   0  0  0  0  0  0  0  0  0  0  0  0
   -0.6886    3.1777    5.0395 C   0  0  0  0  0  0  0  0  0  0  0  0
   -1.3561    1.9341    5.0047 C   0  0  0  0  0  0  0  0  0  0  0  0
   -0.6882    0.7610    4.8889 C   0  0  0  0  0  0  0  0  0  0  0  0
   -1.4171   -0.5557    4.7455 C   0  0  0  0  0  0  0  0  0  0  0  0
   -0.8952   -1.5668    5.7594 C   0  0  0  0  0  0  0  0  0  0  0  0
    0.6152   -1.8333    5.6212 C   0  0  2  0  0  0  0  0  0  0  0  0
    1.4174   -0.4985    5.6384 C   0  0  1  0  0  0  0  0  0  0  0  0
    2.9544   -0.7341    5.5307 C   0  0  1  0  0  0  0  0  0  0  0  0
    3.6124   -0.2086    6.6657 O   0  0  0  0  0  0  0  0  0  0  0  0
    3.3482   -2.2267    5.4015 C   0  0  0  0  0  0  0  0  0  0  0  0
    2.5641   -2.9889    4.2915 C   0  0  2  0  0  0  0  0  0  0  0  0
    2.9412   -2.2868    2.9760 C   0  0  0  0  0  0  0  0  0  0  0  0
    1.0057   -2.8701    4.5242 C   0  0  1  0  0  0  0  0  0  0  0  0
    0.5102   -4.2955    4.9077 C   0  0  0  0  0  0  0  0  0  0  0  0
    1.8012   -4.9819    5.3062 C   0  0  1  0  0  0  0  0  0  0  0  0
    1.9667   -6.4751    5.5984 C   0  0  0  0  0  0  0  0  0  0  0  0
    3.5030   -6.6100    5.5175 C   0  0  0  0  0  0  0  0  0  0  0  0
    4.0424   -5.2213    5.0578 C   0  0  0  0  0  0  0  0  0  0  0  0
    2.8658   -4.5566    4.2846 C   0  0  2  0  0  0  0  0  0  0  0  0
    2.7029   -5.2479    2.8664 C   0  0  0  0  0  0  0  0  0  0  0  0
    1.6903   -5.9127    2.6260 O   0  0  0  0  0  0  0  0  0  0  0  0
    3.6610   -5.1204    1.9087 N   0  0  0  0  0  0  0  0  0  0  0  0
    3.6453   -5.6543    0.5611 C   0  0  2  0  0  0  0  0  0  0  0  0
    4.9505   -6.4712    0.5561 C   0  0  0  0  0  0  0  0  0  0  0  0
    5.8628   -5.6698    1.4988 C   0  0  0  0  0  0  0  0  0  0  0  0
    4.9630   -4.4611    1.8357 C   0  0  1  0  0  0  0  0  0  0  0  0
    4.7743   -3.5230    0.5863 C   0  0  1  0  0  0  0  0  0  0  0  0
    6.0172   -3.1514   -0.0743 N   0  0  0  0  0  0  0  0  0  0  0  0
    6.2976   -2.9448   -1.3564 C   0  0  0  0  0  0  0  0  0  0  0  0
    7.5635   -2.6186   -1.5701 N   0  0  0  0  0  0  0  0  0  0  0  0
    8.0267   -2.6137   -0.2871 C   0  0  0  0  0  0  0  0  0  0  0  0
    7.1153   -2.8410    0.6566 N   0  0  0  0  0  0  0  0  0  0  0  0
    3.8197   -4.3765   -0.2828 C   0  0  0  0  0  0  0  0  0  0  0  0
    2.2085    0.8045    3.0594 H   0  0  0  0  0  0  0  0  0  0  0  0
    0.6293    1.4486    2.7408 H   0  0  0  0  0  0  0  0  0  0  0  0
    0.8146   -0.2835    2.8326 H   0  0  0  0  0  0  0  0  0  0  0  0
    1.6247    1.9563    6.4411 H   0  0  0  0  0  0  0  0  0  0  0  0
    2.4843    2.2113    4.9330 H   0  0  0  0  0  0  0  0  0  0  0  0
    2.0362    4.8502    5.2040 H   0  0  0  0  0  0  0  0  0  0  0  0
   -2.1171    4.8475    4.8322 H   0  0  0  0  0  0  0  0  0  0  0  0
   -2.4347    1.9558    5.0340 H   0  0  0  0  0  0  0  0  0  0  0  0
   -2.4898   -0.4149    4.8766 H   0  0  0  0  0  0  0  0  0  0  0  0
   -1.2610   -0.9280    3.7338 H   0  0  0  0  0  0  0  0  0  0  0  0
   -1.0604   -1.1630    6.7582 H   0  0  0  0  0  0  0  0  0  0  0  0
   -1.4693   -2.4897    5.6944 H   0  0  0  0  0  0  0  0  0  0  0  0
    0.8963   -2.3232    6.5548 H   0  0  0  0  0  0  0  0  0  0  0  0
    1.2487   -0.1734    6.6667 H   0  0  0  0  0  0  0  0  0  0  0  0
    3.3680   -0.1824    4.6889 H   0  0  0  0  0  0  0  0  0  0  0  0
    3.3444   -0.7079    7.4231 H   0  0  0  0  0  0  0  0  0  0  0  0
    4.4163   -2.2937    5.1947 H   0  0  0  0  0  0  0  0  0  0  0  0
    3.2121   -2.7064    6.3701 H   0  0  0  0  0  0  0  0  0  0  0  0
    2.4387   -2.7234    2.1127 H   0  0  0  0  0  0  0  0  0  0  0  0
    4.0264   -2.3033    2.8711 H   0  0  0  0  0  0  0  0  0  0  0  0
    2.6808   -1.2464    2.9436 H   0  0  0  0  0  0  0  0  0  0  0  0
    0.5176   -2.5837    3.5925 H   0  0  0  0  0  0  0  0  0  0  0  0
   -0.2061   -4.3089    5.7295 H   0  0  0  0  0  0  0  0  0  0  0  0
    0.0444   -4.7903    4.0586 H   0  0  0  0  0  0  0  0  0  0  0  0
    2.0415   -4.5254    6.2704 H   0  0  0  0  0  0  0  0  0  0  0  0
    1.5764   -6.7416    6.5821 H   0  0  0  0  0  0  0  0  0  0  0  0
    1.4741   -7.1109    4.8614 H   0  0  0  0  0  0  0  0  0  0  0  0
    3.9342   -6.9110    6.4754 H   0  0  0  0  0  0  0  0  0  0  0  0
    3.7682   -7.3783    4.7899 H   0  0  0  0  0  0  0  0  0  0  0  0
    4.3038   -4.6581    5.9549 H   0  0  0  0  0  0  0  0  0  0  0  0
    4.9652   -5.3245    4.4910 H   0  0  0  0  0  0  0  0  0  0  0  0
    2.7611   -6.2365    0.2728 H   0  0  0  0  0  0  0  0  0  0  0  0
    4.7992   -7.4898    0.9276 H   0  0  0  0  0  0  0  0  0  0  0  0
    5.3598   -6.4992   -0.4485 H   0  0  0  0  0  0  0  0  0  0  0  0
    6.0980   -6.2485    2.3978 H   0  0  0  0  0  0  0  0  0  0  0  0
    6.8082   -5.4100    1.0118 H   0  0  0  0  0  0  0  0  0  0  0  0
    5.3029   -3.9654    2.7512 H   0  0  0  0  0  0  0  0  0  0  0  0
    4.2567   -2.5863    0.8036 H   0  0  0  0  0  0  0  0  0  0  0  0
    5.5521   -3.0454   -2.1423 H   0  0  0  0  0  0  0  0  0  0  0  0
    9.0570   -2.4072   -0.0542 H   0  0  0  0  0  0  0  0  0  0  0  0
    4.1935   -4.6402   -1.2732 H   0  0  0  0  0  0  0  0  0  0  0  0
    2.8622   -3.8578   -0.4130 H   0  0  0  0  0  0  0  0  0  0  0  0
  2  1  1  6
  1 41  1  0
  1 42  1  0
  1 43  1  0
  2 10  1  0
  2 14  1  0
  2  3  1  0
  3  4  1  0
  3 44  1  0
  3 45  1  0
  4  8  1  0
  4  5  1  0
  5  6  2  0
  5 46  1  0
  6  7  1  0
  7  8  2  0
  7 47  1  0
  8  9  1  0
  9 10  2  0
  9 48  1  0
 10 11  1  0
 11 12  1  0
 11 49  1  0
 11 50  1  0
 12 13  1  0
 12 51  1  0
 12 52  1  0
 13 20  1  0
 13 14  1  0
 13 53  1  1
 14 15  1  0
 14 54  1  1
 15 16  1  0
 15 17  1  0
 15 55  1  6
 16 56  1  0
 17 18  1  0
 17 57  1  0
 17 58  1  0
 18 26  1  0
 18 19  1  6
 18 20  1  0
 19 59  1  0
 19 60  1  0
 19 61  1  0
 20 21  1  0
 20 62  1  6
 21 22  1  0
 21 63  1  0
 21 64  1  0
 22 26  1  0
 22 23  1  0
 22 65  1  1
 23 24  1  0
 23 66  1  0
 23 67  1  0
 24 25  1  0
 24 68  1  0
 24 69  1  0
 25 26  1  0
 25 70  1  0
 25 71  1  0
 26 27  1  6
 27 28  2  0
 27 29  1  0
 29 33  1  0
 29 30  1  0
 30 40  1  0
 30 31  1  0
 30 72  1  6
 31 32  1  0
 31 73  1  0
 31 74  1  0
 32 33  1  0
 32 75  1  0
 32 76  1  0
 33 34  1  0
 33 77  1  1
 34 35  1  0
 34 40  1  0
 34 78  1  1
 35 39  1  0
 35 36  1  0
 36 37  2  0
 36 79  1  0
 37 38  1  0
 38 39  2  0
 38 80  1  0
 40 81  1  0
 40 82  1  0
M  END
>  <i_m_ct_stereo_status>  (56) 
1

>  <s_m_source_file>  (56) 
/var/tmp/pbs.5076255.sched01/tmpu5rzjxe4/0gixxd53k.sdf

>  <i_m_source_file_index>  (56) 
21

>  <i_lp_mmshare_version>  (56) 
48012

>  <i_f3d_flags>  (56) 
0

>  <s_epik_input>  (56) 
W2NIXTFuW2NIXW4oW0NIMl0yKWMxW0NIXT1DKFtDQEBdMjNbQ0gzXSlbQ0gyXVtDSDJdW0NAQEhdNFtDQEhdM1tDQEBIXShbT0hdKVtDSDJdW0NAXTUoW0NIM10pW0NASF00W0NIMl1bQ0BASF02W0NAQF01KFtDSDJdW0NIMl1bQ0gyXTYpQyg9TylOKFtDQEhdNzgpW0NAQEhdKFtDSDJdW0NIMl03KVtDQEhdKFtDSDJdOCluOVtjSF1uW2NIXW45

>  <s_epik_cmdline>  (56) 
J2VwaWtfcHl0aG9uJywgJy1waHQnLCAnMi4wJywgJy1waCcsICc3LjAnLCAnLXRuJywgJzgnLCAnLW1hJywgJzIwMCcsICctaW1hZScsICc8aW5maWxlLm1hZT4nLCAnLW9tYWUnLCAnPG91dGZpbGUubWFlPic=

>  <r_lp_tautomer_probability>  (56) 
1

>  <r_epik_Ionization_Penalty>  (56) 
2.03153

>  <r_epik_Ionization_Penalty_Charging>  (56) 
2.03143

>  <r_epik_Ionization_Penalty_Neutral>  (56) 
9.71842e-05

>  <r_epik_State_Penalty>  (56) 
2.16247

>  <r_epik_Charging_Adjusted_Penalty>  (56) 
4.1939

>  <i_epik_Tot_Q>  (56) 
0

>  <i_epik_Tot_abs_Q>  (56) 
0

>  <s_lp_Force_Field>  (56) 
OPLS3e

>  <r_lp_Energy>  (56) 
110.601

>  <b_lp_Chiralities_Consistent>  (56) 
1

>  <s_lp_Variant>  (56) 
14:0-2

>  <s_i_glide_gridfile>  (56) 
pfpi4k_grid

>  <i_i_glide_lignum>  (56) 
21

>  <i_i_glide_rotatable_bonds>  (56) 
4

>  <r_i_docking_score>  (56) 
-2.33741

>  <r_i_glide_ligand_efficiency>  (56) 
-0.0584353

>  <r_i_glide_ligand_efficiency_sa>  (56) 
-0.199846

>  <r_i_glide_ligand_efficiency_ln>  (56) 
-0.498501

>  <r_i_glide_gscore>  (56) 
-2.33741

>  <r_i_glide_lipo>  (56) 
-0.288227

>  <r_i_glide_hbond>  (56) 
-0.16

>  <r_i_glide_metal>  (56) 
-0

>  <r_i_glide_rewards>  (56) 
-0.145738

>  <r_i_glide_evdw>  (56) 
-32.7948

>  <r_i_glide_ecoul>  (56) 
-1.95153

>  <r_i_glide_erotb>  (56) 
0.210716

>  <r_i_glide_esite>  (56) 
-0.0216917

>  <r_i_glide_emodel>  (56) 
-38.4843

>  <r_i_glide_energy>  (56) 
-34.7463

>  <r_i_glide_einternal>  (56) 
2.22536

>  <r_i_glide_intrahb_reward>  (56) 
-0

>  <i_i_glide_confnum>  (56) 
3

>  <i_i_glide_posenum>  (56) 
5

>  <r_i_glide_eff_state_penalty>  (56) 
0

>  <ligand_id>  (56) 
14

>  <original_smiles>  (56) 
CC12Cn3cncc3C=C1CCC1C2C(O)CC2(C)C1CC1CCCC12C(=O)N1C2CCC1C(n1cncn1)C2

>  <smiles>  (56) 
[H]OC1([H])C([H])([H])C2(C([H])([H])[H])C([H])(C([H])([H])C3([H])C([H])([H])C([H])([H])C([H])([H])C32C(=O)N2C3([H])C([H])([H])C([H])([H])C2([H])C([H])(n2nc([H])nc2[H])C3([H])[H])C2([H])C([H])([H])C([H])([H])C3=C([H])c4c([H])nc([H])n4C([H])([H])C3(C([H])([H])[H])C12[H]

$$$$
15:0:0
     RDKit          3D

 25 27  0  0  1  0  0  0  0  0999 V2000
   -1.7459    2.3959    9.5965 C   0  0  0  0  0  0  0  0  0  0  0  0
   -1.1051    1.7187    8.4855 N   0  0  0  0  0  0  0  0  0  0  0  0
   -0.2283    0.6221    8.5028 C   0  0  0  0  0  0  0  0  0  0  0  0
    0.1413    0.3127    7.1899 C   0  0  0  0  0  0  0  0  0  0  0  0
   -0.5259    1.2538    6.4270 C   0  0  0  0  0  0  0  0  0  0  0  0
   -1.2230    2.0570    7.1887 C   0  0  0  0  0  0  0  0  0  0  0  0
   -1.8794    3.0144    6.3516 C   0  0  0  0  0  0  0  0  0  0  0  0
   -1.5123    2.6524    5.0590 C   0  0  0  0  0  0  0  0  0  0  0  0
   -1.9688    3.2897    3.8123 C   0  0  0  0  0  0  0  0  0  0  0  0
   -2.1223    2.5679    2.8045 O   0  0  0  0  0  0  0  0  0  0  0  0
   -2.1819    4.5185    3.8588 O   0  0  0  0  0  0  0  0  0  0  0  0
   -0.6146    1.5383    5.0800 N   0  0  0  0  0  0  0  0  0  0  0  0
    0.0475    0.8283    4.0541 C   0  0  0  0  0  0  0  0  0  0  0  0
    0.4082    1.3169    2.8280 C   0  0  0  0  0  0  0  0  0  0  0  0
    1.0258    0.2103    2.1920 C   0  0  0  0  0  0  0  0  0  0  0  0
    1.0556   -0.8588    2.9666 N   0  0  0  0  0  0  0  0  0  0  0  0
    0.4406   -0.4624    4.1561 O   0  0  0  0  0  0  0  0  0  0  0  0
   -1.5040    1.8603   10.5277 H   0  0  0  0  0  0  0  0  0  0  0  0
   -2.8262    2.3894    9.4602 H   0  0  0  0  0  0  0  0  0  0  0  0
   -1.3642    3.4140    9.6713 H   0  0  0  0  0  0  0  0  0  0  0  0
    0.0842    0.1416    9.4255 H   0  0  0  0  0  0  0  0  0  0  0  0
    0.8014   -0.4600    6.8129 H   0  0  0  0  0  0  0  0  0  0  0  0
   -2.5580    3.7999    6.6692 H   0  0  0  0  0  0  0  0  0  0  0  0
    0.2536    2.3166    2.4489 H   0  0  0  0  0  0  0  0  0  0  0  0
    1.4187    0.1450    1.1931 H   0  0  0  0  0  0  0  0  0  0  0  0
  1  2  1  0
  1 18  1  0
  1 19  1  0
  1 20  1  0
  2  6  1  0
  2  3  1  0
  3  4  2  0
  3 21  1  0
  4  5  1  0
  4 22  1  0
  5 12  1  0
  5  6  2  0
  6  7  1  0
  7  8  2  0
  7 23  1  0
  8  9  1  0
  8 12  1  0
  9 10  2  0
  9 11  1  0
 12 13  1  0
 13 17  1  0
 13 14  2  0
 14 15  1  0
 14 24  1  0
 15 16  2  0
 15 25  1  0
 16 17  1  0
M  CHG  1  11  -1
M  END
>  <i_m_ct_stereo_status>  (57) 
1

>  <s_m_source_file>  (57) 
/var/tmp/pbs.5076255.sched01/tmpu5rzjxe4/0gixxd53k.sdf

>  <i_m_source_file_index>  (57) 
22

>  <i_lp_mmshare_version>  (57) 
48012

>  <i_f3d_flags>  (57) 
0

>  <s_epik_input>  (57) 
W2NIXTFbY0hdbihbQ0gzXSljKGMxMilbY0hdYyhDKD1PKVtPSF0pbjItYzNbY0hdW2NIXW5vMw==

>  <s_epik_cmdline>  (57) 
J2VwaWtfcHl0aG9uJywgJy1waHQnLCAnMi4wJywgJy1waCcsICc3LjAnLCAnLXRuJywgJzgnLCAnLW1hJywgJzIwMCcsICctaW1hZScsICc8aW5maWxlLm1hZT4nLCAnLW9tYWUnLCAnPG91dGZpbGUubWFlPic=

>  <r_epik_Ionization_Penalty>  (57) 
0.00135294

>  <r_epik_Ionization_Penalty_Charging>  (57) 
0.00135294

>  <r_epik_Ionization_Penalty_Neutral>  (57) 
1.28819e-11

>  <r_epik_State_Penalty>  (57) 
0.000900103

>  <r_epik_Charging_Adjusted_Penalty>  (57) 
0.00225304

>  <i_epik_Tot_Q>  (57) 
-1

>  <i_epik_Tot_abs_Q>  (57) 
1

>  <s_lp_Force_Field>  (57) 
OPLS3e

>  <r_lp_Energy>  (57) 
10.6401

>  <b_lp_Chiralities_Consistent>  (57) 
1

>  <s_lp_Variant>  (57) 
15:0-1

>  <s_i_glide_gridfile>  (57) 
pfpi4k_grid

>  <i_i_glide_lignum>  (57) 
22

>  <i_i_glide_rotatable_bonds>  (57) 
2

>  <r_i_docking_score>  (57) 
-3.09713

>  <r_i_glide_ligand_efficiency>  (57) 
-0.182184

>  <r_i_glide_ligand_efficiency_sa>  (57) 
-0.468447

>  <r_i_glide_ligand_efficiency_ln>  (57) 
-0.807972

>  <r_i_glide_gscore>  (57) 
-3.09713

>  <r_i_glide_lipo>  (57) 
-0.0684104

>  <r_i_glide_hbond>  (57) 
-0.185456

>  <r_i_glide_metal>  (57) 
-0

>  <r_i_glide_rewards>  (57) 
-1.83955

>  <r_i_glide_evdw>  (57) 
-15.9074

>  <r_i_glide_ecoul>  (57) 
-2.68427

>  <r_i_glide_erotb>  (57) 
0.322318

>  <r_i_glide_esite>  (57) 
-0.128022

>  <r_i_glide_emodel>  (57) 
-22.0386

>  <r_i_glide_energy>  (57) 
-18.5917

>  <r_i_glide_einternal>  (57) 
2.47146

>  <r_i_glide_intrahb_reward>  (57) 
-0

>  <i_i_glide_confnum>  (57) 
4

>  <i_i_glide_posenum>  (57) 
2

>  <r_i_glide_eff_state_penalty>  (57) 
0

>  <ligand_id>  (57) 
15

>  <original_smiles>  (57) 
Cn1ccc2c1cc(C(=O)O)n2-c1ccno1

>  <smiles>  (57) 
[H]c1noc(-n2c(C(=O)[O-])c([H])c3c2c([H])c([H])n3C([H])([H])[H])c1[H]

$$$$
15:0:1
     RDKit          3D

 25 27  0  0  1  0  0  0  0  0999 V2000
   -3.0960    3.5444    2.8456 C   0  0  0  0  0  0  0  0  0  0  0  0
   -2.1835    2.5536    3.3960 N   0  0  0  0  0  0  0  0  0  0  0  0
   -1.3682    1.6195    2.7493 C   0  0  0  0  0  0  0  0  0  0  0  0
   -0.6921    0.8710    3.7130 C   0  0  0  0  0  0  0  0  0  0  0  0
   -1.1143    1.4033    4.9113 C   0  0  0  0  0  0  0  0  0  0  0  0
   -1.9661    2.3712    4.7101 C   0  0  0  0  0  0  0  0  0  0  0  0
   -2.3766    2.8706    5.9759 C   0  0  0  0  0  0  0  0  0  0  0  0
   -1.7009    2.1028    6.9178 C   0  0  0  0  0  0  0  0  0  0  0  0
   -1.8479    2.2072    8.3841 C   0  0  0  0  0  0  0  0  0  0  0  0
   -2.6040    3.1208    8.8087 O   0  0  0  0  0  0  0  0  0  0  0  0
   -1.2582    1.3827    9.0990 O   0  0  0  0  0  0  0  0  0  0  0  0
   -0.8674    1.1413    6.2397 N   0  0  0  0  0  0  0  0  0  0  0  0
   -0.0217    0.0898    6.6914 C   0  0  0  0  0  0  0  0  0  0  0  0
    0.8498    0.1700    7.7449 C   0  0  0  0  0  0  0  0  0  0  0  0
    1.4070   -1.1244    7.8283 C   0  0  0  0  0  0  0  0  0  0  0  0
    0.9343   -1.9388    6.8961 N   0  0  0  0  0  0  0  0  0  0  0  0
    0.0425   -1.1508    6.1550 O   0  0  0  0  0  0  0  0  0  0  0  0
   -3.0238    3.4885    1.7577 H   0  0  0  0  0  0  0  0  0  0  0  0
   -2.8042    4.5400    3.1744 H   0  0  0  0  0  0  0  0  0  0  0  0
   -4.1225    3.3043    3.1174 H   0  0  0  0  0  0  0  0  0  0  0  0
   -1.3234    1.5476    1.6675 H   0  0  0  0  0  0  0  0  0  0  0  0
    0.0097    0.0523    3.5750 H   0  0  0  0  0  0  0  0  0  0  0  0
   -3.1087    3.6455    6.1751 H   0  0  0  0  0  0  0  0  0  0  0  0
    1.0301    1.0282    8.3727 H   0  0  0  0  0  0  0  0  0  0  0  0
    2.0987   -1.5198    8.5563 H   0  0  0  0  0  0  0  0  0  0  0  0
  1  2  1  0
  1 18  1  0
  1 19  1  0
  1 20  1  0
  2  6  1  0
  2  3  1  0
  3  4  2  0
  3 21  1  0
  4  5  1  0
  4 22  1  0
  5 12  1  0
  5  6  2  0
  6  7  1  0
  7  8  2  0
  7 23  1  0
  8  9  1  0
  8 12  1  0
  9 10  2  0
  9 11  1  0
 12 13  1  0
 13 17  1  0
 13 14  2  0
 14 15  1  0
 14 24  1  0
 15 16  2  0
 15 25  1  0
 16 17  1  0
M  CHG  1  11  -1
M  END
>  <i_m_ct_stereo_status>  (58) 
1

>  <s_m_source_file>  (58) 
/var/tmp/pbs.5076255.sched01/tmpu5rzjxe4/0gixxd53k.sdf

>  <i_m_source_file_index>  (58) 
22

>  <i_lp_mmshare_version>  (58) 
48012

>  <i_f3d_flags>  (58) 
0

>  <s_epik_input>  (58) 
W2NIXTFbY0hdbihbQ0gzXSljKGMxMilbY0hdYyhDKD1PKVtPSF0pbjItYzNbY0hdW2NIXW5vMw==

>  <s_epik_cmdline>  (58) 
J2VwaWtfcHl0aG9uJywgJy1waHQnLCAnMi4wJywgJy1waCcsICc3LjAnLCAnLXRuJywgJzgnLCAnLW1hJywgJzIwMCcsICctaW1hZScsICc8aW5maWxlLm1hZT4nLCAnLW9tYWUnLCAnPG91dGZpbGUubWFlPic=

>  <r_epik_Ionization_Penalty>  (58) 
0.00135294

>  <r_epik_Ionization_Penalty_Charging>  (58) 
0.00135294

>  <r_epik_Ionization_Penalty_Neutral>  (58) 
1.28819e-11

>  <r_epik_State_Penalty>  (58) 
0.000900103

>  <r_epik_Charging_Adjusted_Penalty>  (58) 
0.00225304

>  <i_epik_Tot_Q>  (58) 
-1

>  <i_epik_Tot_abs_Q>  (58) 
1

>  <s_lp_Force_Field>  (58) 
OPLS3e

>  <r_lp_Energy>  (58) 
10.6401

>  <b_lp_Chiralities_Consistent>  (58) 
1

>  <s_lp_Variant>  (58) 
15:0-1

>  <s_i_glide_gridfile>  (58) 
pfpi4k_grid

>  <i_i_glide_lignum>  (58) 
22

>  <i_i_glide_rotatable_bonds>  (58) 
2

>  <r_i_docking_score>  (58) 
-2.29855

>  <r_i_glide_ligand_efficiency>  (58) 
-0.135209

>  <r_i_glide_ligand_efficiency_sa>  (58) 
-0.34766

>  <r_i_glide_ligand_efficiency_ln>  (58) 
-0.599641

>  <r_i_glide_gscore>  (58) 
-2.29855

>  <r_i_glide_lipo>  (58) 
-0.0777014

>  <r_i_glide_hbond>  (58) 
0

>  <r_i_glide_metal>  (58) 
-0

>  <r_i_glide_rewards>  (58) 
-1.83955

>  <r_i_glide_evdw>  (58) 
-15.6749

>  <r_i_glide_ecoul>  (58) 
1.43991

>  <r_i_glide_erotb>  (58) 
0.322318

>  <r_i_glide_esite>  (58) 
-0.135861

>  <r_i_glide_emodel>  (58) 
-17.483

>  <r_i_glide_energy>  (58) 
-14.235

>  <r_i_glide_einternal>  (58) 
0.469784

>  <r_i_glide_intrahb_reward>  (58) 
-0

>  <i_i_glide_confnum>  (58) 
3

>  <i_i_glide_posenum>  (58) 
11

>  <r_i_glide_eff_state_penalty>  (58) 
0

>  <ligand_id>  (58) 
15

>  <original_smiles>  (58) 
Cn1ccc2c1cc(C(=O)O)n2-c1ccno1

>  <smiles>  (58) 
[H]c1noc(-n2c(C(=O)[O-])c([H])c3c2c([H])c([H])n3C([H])([H])[H])c1[H]

$$$$
17:0:0
     RDKit          3D

 50 54  0  0  1  0  0  0  0  0999 V2000
    1.3370   -0.9397    6.4822 O   0  0  0  0  0  0  0  0  0  0  0  0
    1.8711   -0.6926    5.1957 C   0  0  2  0  0  0  0  0  0  0  0  0
    2.8850    0.4751    5.2147 C   0  0  0  0  0  0  0  0  0  0  0  0
    3.4513    0.6858    3.7993 C   0  0  2  0  0  0  0  0  0  0  0  0
    2.2992    1.0092    2.8131 C   0  0  0  0  0  0  0  0  0  0  0  0
    1.3059   -0.1756    2.7734 C   0  0  2  0  0  0  0  0  0  0  0  0
    0.7308   -0.4007    4.1979 C   0  0  0  0  0  0  0  0  0  0  0  0
    2.0437   -1.4602    2.2945 C   0  0  1  0  0  0  0  0  0  0  0  0
    2.6436   -1.2450    0.9193 N   0  0  0  0  0  0  0  0  0  0  0  0
    3.1685   -2.4228    0.1859 C   0  0  2  0  0  0  0  0  0  0  0  0
    4.5103   -2.9431    0.7500 C   0  0  0  0  0  0  0  0  0  0  0  0
    5.5667   -2.0041    0.1961 C   0  0  0  0  0  0  0  0  0  0  0  0
    5.1038   -1.7158   -1.2285 C   0  0  1  0  0  0  0  0  0  0  0  0
    5.7418   -2.6955   -2.2068 C   0  0  0  0  0  0  0  0  0  0  0  0
    4.6286   -2.9633   -3.1983 C   0  0  0  0  0  0  0  0  0  0  0  0
    3.3748   -3.0333   -2.3299 C   0  0  0  0  0  0  0  0  0  0  0  0
    3.5790   -1.9652   -1.2519 C   0  0  1  0  0  0  0  0  0  0  0  0
    3.1327   -1.7721    3.3625 C   0  0  1  0  0  0  0  0  0  0  0  0
    4.1569   -0.6107    3.3592 C   0  0  0  0  0  0  0  0  0  0  0  0
    2.5756   -1.9717    4.7574 C   0  0  0  0  0  0  0  0  0  0  0  0
    1.9525   -1.4998    6.9443 H   0  0  0  0  0  0  0  0  0  0  0  0
    2.3874    1.3781    5.5340 H   0  0  0  0  0  0  0  0  0  0  0  0
    3.7043    0.2830    5.9094 H   0  0  0  0  0  0  0  0  0  0  0  0
    4.1725    1.5092    3.7885 H   0  0  0  0  0  0  0  0  0  0  0  0
    1.7933    1.9142    3.1209 H   0  0  0  0  0  0  0  0  0  0  0  0
    2.6910    1.2213    1.8138 H   0  0  0  0  0  0  0  0  0  0  0  0
    0.4775    0.0535    2.0928 H   0  0  0  0  0  0  0  0  0  0  0  0
    0.0183   -1.2244    4.1982 H   0  0  0  0  0  0  0  0  0  0  0  0
    0.2034    0.4789    4.5312 H   0  0  0  0  0  0  0  0  0  0  0  0
    1.3351   -2.2849    2.2293 H   0  0  0  0  0  0  0  0  0  0  0  0
    1.8857   -0.8551    0.3183 H   0  0  0  0  0  0  0  0  0  0  0  0
    2.3718   -3.1855    0.1476 H   0  0  0  0  0  0  0  0  0  0  0  0
    4.6996   -2.9219    1.8006 H   0  0  0  0  0  0  0  0  0  0  0  0
    4.6528   -3.9810    0.4325 H   0  0  0  0  0  0  0  0  0  0  0  0
    5.5979   -1.0498    0.7248 H   0  0  0  0  0  0  0  0  0  0  0  0
    6.5692   -2.4306    0.3330 H   0  0  0  0  0  0  0  0  0  0  0  0
    5.3344   -0.6764   -1.4751 H   0  0  0  0  0  0  0  0  0  0  0  0
    6.6486   -2.2878   -2.6423 H   0  0  0  0  0  0  0  0  0  0  0  0
    6.0161   -3.6245   -1.6995 H   0  0  0  0  0  0  0  0  0  0  0  0
    4.5523   -2.1265   -3.8910 H   0  0  0  0  0  0  0  0  0  0  0  0
    4.8027   -3.8711   -3.7701 H   0  0  0  0  0  0  0  0  0  0  0  0
    2.4605   -2.8792   -2.8998 H   0  0  0  0  0  0  0  0  0  0  0  0
    3.3195   -4.0200   -1.8722 H   0  0  0  0  0  0  0  0  0  0  0  0
    3.0596   -1.0488   -1.5530 H   0  0  0  0  0  0  0  0  0  0  0  0
    3.5169   -2.7717    3.2783 H   0  0  0  0  0  0  0  0  0  0  0  0
    4.5315   -0.3828    2.3667 H   0  0  0  0  0  0  0  0  0  0  0  0
    5.0538   -0.8377    3.9401 H   0  0  0  0  0  0  0  0  0  0  0  0
    3.4183   -2.2355    5.4047 H   0  0  0  0  0  0  0  0  0  0  0  0
    1.9134   -2.8382    4.7372 H   0  0  0  0  0  0  0  0  0  0  0  0
    3.3714   -0.5617    1.0088 H   0  0  0  0  0  0  0  0  0  0  0  0
  2  1  1  1
  1 21  1  0
  2  7  1  0
  2 20  1  0
  2  3  1  0
  3  4  1  0
  3 22  1  0
  3 23  1  0
  4 19  1  0
  4  5  1  0
  4 24  1  1
  5  6  1  0
  5 25  1  0
  5 26  1  0
  6  7  1  0
  6  8  1  0
  6 27  1  6
  7 28  1  0
  7 29  1  0
  8  9  1  0
  8 18  1  0
  8 30  1  6
  9 10  1  0
  9 31  1  0
  9 50  1  0
 10 17  1  0
 10 11  1  0
 10 32  1  6
 11 12  1  0
 11 33  1  0
 11 34  1  0
 12 13  1  0
 12 35  1  0
 12 36  1  0
 13 17  1  0
 13 14  1  0
 13 37  1  6
 14 15  1  0
 14 38  1  0
 14 39  1  0
 15 16  1  0
 15 40  1  0
 15 41  1  0
 16 17  1  0
 16 42  1  0
 16 43  1  0
 17 44  1  6
 18 19  1  0
 18 20  1  0
 18 45  1  6
 19 46  1  0
 19 47  1  0
 20 48  1  0
 20 49  1  0
M  CHG  1   9   1
M  END
>  <i_m_ct_stereo_status>  (59) 
1

>  <s_m_source_file>  (59) 
/var/tmp/pbs.5076255.sched01/tmpu5rzjxe4/0gixxd53k.sdf

>  <i_m_source_file_index>  (59) 
24

>  <i_lp_mmshare_version>  (59) 
48012

>  <i_f3d_flags>  (59) 
0

>  <s_epik_input>  (59) 
W09IXVtDQF0xMltDSDJdW0NAQEhdM1tDSDJdW0NASF0oW0NIMl0xKVtDQEhdKFtDQEBIXShbQ0gyXTMpW0NIMl0yKVtOSF1bQ0BIXShbQ0gyXVtDSDJdNClbQ0BASF0oW0NAQEhdNDUpW0NIMl1bQ0gyXVtDSDJdNQ==

>  <s_epik_cmdline>  (59) 
J2VwaWtfcHl0aG9uJywgJy1waHQnLCAnMi4wJywgJy1waCcsICc3LjAnLCAnLXRuJywgJzgnLCAnLW1hJywgJzIwMCcsICctaW1hZScsICc8aW5maWxlLm1hZT4nLCAnLW9tYWUnLCAnPG91dGZpbGUubWFlPic=

>  <r_lp_tautomer_probability>  (59) 
1

>  <r_epik_Ionization_Penalty>  (59) 
3.57707e-05

>  <r_epik_Ionization_Penalty_Charging>  (59) 
3.52406e-05

>  <r_epik_Ionization_Penalty_Neutral>  (59) 
5.30112e-07

>  <r_epik_State_Penalty>  (59) 
-0

>  <r_epik_Charging_Adjusted_Penalty>  (59) 
3.52406e-05

>  <i_epik_Tot_Q>  (59) 
1

>  <i_epik_Tot_abs_Q>  (59) 
1

>  <s_lp_Force_Field>  (59) 
OPLS3e

>  <r_lp_Energy>  (59) 
2.46824

>  <b_lp_Chiralities_Consistent>  (59) 
1

>  <s_lp_Variant>  (59) 
17:0-1

>  <s_i_glide_gridfile>  (59) 
pfpi4k_grid

>  <i_i_glide_lignum>  (59) 
24

>  <i_i_glide_rotatable_bonds>  (59) 
3

>  <r_i_docking_score>  (59) 
-3.70811

>  <r_i_glide_ligand_efficiency>  (59) 
-0.185405

>  <r_i_glide_ligand_efficiency_sa>  (59) 
-0.503268

>  <r_i_glide_ligand_efficiency_ln>  (59) 
-0.928017

>  <r_i_glide_gscore>  (59) 
-3.70811

>  <r_i_glide_lipo>  (59) 
-0.261444

>  <r_i_glide_hbond>  (59) 
-0.2

>  <r_i_glide_metal>  (59) 
-0

>  <r_i_glide_rewards>  (59) 
-1.52429

>  <r_i_glide_evdw>  (59) 
-20.6071

>  <r_i_glide_ecoul>  (59) 
-7.35014

>  <r_i_glide_erotb>  (59) 
0.470877

>  <r_i_glide_esite>  (59) 
-0.0603748

>  <r_i_glide_emodel>  (59) 
-31.8389

>  <r_i_glide_energy>  (59) 
-27.9572

>  <r_i_glide_einternal>  (59) 
0.99053

>  <r_i_glide_intrahb_reward>  (59) 
-0

>  <i_i_glide_confnum>  (59) 
4

>  <i_i_glide_posenum>  (59) 
8

>  <r_i_glide_eff_state_penalty>  (59) 
0

>  <ligand_id>  (59) 
17

>  <original_smiles>  (59) 
OC12CC3CC(C1)C(NC1CCC4CCCC41)C(C3)C2

>  <smiles>  (59) 
[H]OC12C([H])([H])C3([H])C([H])([H])C([H])(C1([H])[H])C([H])([N+]([H])([H])C1([H])C([H])([H])C([H])([H])C4([H])C([H])([H])C([H])([H])C([H])([H])C41[H])C([H])(C3([H])[H])C2([H])[H]

$$$$
17:0:1
     RDKit          3D

 50 54  0  0  1  0  0  0  0  0999 V2000
    1.4255   -0.8498    6.4714 O   0  0  0  0  0  0  0  0  0  0  0  0
    1.9402   -0.6928    5.1749 C   0  0  2  0  0  0  0  0  0  0  0  0
    3.0216    0.4085    5.1923 C   0  0  0  0  0  0  0  0  0  0  0  0
    3.5955    0.5501    3.7705 C   0  0  2  0  0  0  0  0  0  0  0  0
    2.4743    0.9441    2.7716 C   0  0  0  0  0  0  0  0  0  0  0  0
    1.3922   -0.1627    2.7526 C   0  0  2  0  0  0  0  0  0  0  0  0
    0.8179   -0.3263    4.1796 C   0  0  0  0  0  0  0  0  0  0  0  0
    2.0324   -1.5030    2.2812 C   0  0  1  0  0  0  0  0  0  0  0  0
    2.6035   -1.3453    0.9087 N   0  0  0  0  0  0  0  0  0  0  0  0
    3.3651   -2.5025    0.3092 C   0  0  2  0  0  0  0  0  0  0  0  0
    4.7331   -2.7917    0.9888 C   0  0  0  0  0  0  0  0  0  0  0  0
    5.7057   -1.7669    0.3918 C   0  0  0  0  0  0  0  0  0  0  0  0
    5.2825   -1.6833   -1.0744 C   0  0  1  0  0  0  0  0  0  0  0  0
    6.1008   -2.6522   -1.9148 C   0  0  0  0  0  0  0  0  0  0  0  0
    5.0913   -3.1341   -2.9297 C   0  0  0  0  0  0  0  0  0  0  0  0
    3.8053   -3.2960   -2.1222 C   0  0  0  0  0  0  0  0  0  0  0  0
    3.8025   -2.1227   -1.1457 C   0  0  1  0  0  0  0  0  0  0  0  0
    3.0818   -1.8869    3.3531 C   0  0  1  0  0  0  0  0  0  0  0  0
    4.2014   -0.7914    3.3477 C   0  0  0  0  0  0  0  0  0  0  0  0
    2.5415   -2.0430    4.7531 C   0  0  0  0  0  0  0  0  0  0  0  0
    1.1558    0.0026    6.7636 H   0  0  0  0  0  0  0  0  0  0  0  0
    2.6013    1.3646    5.4894 H   0  0  0  0  0  0  0  0  0  0  0  0
    3.8422    0.1681    5.8675 H   0  0  0  0  0  0  0  0  0  0  0  0
    4.3794    1.3167    3.7323 H   0  0  0  0  0  0  0  0  0  0  0  0
    2.0360    1.8949    3.0560 H   0  0  0  0  0  0  0  0  0  0  0  0
    2.8786    1.1069    1.7665 H   0  0  0  0  0  0  0  0  0  0  0  0
    0.5867    0.1140    2.0689 H   0  0  0  0  0  0  0  0  0  0  0  0
    0.0466   -1.0971    4.1954 H   0  0  0  0  0  0  0  0  0  0  0  0
    0.3560    0.5976    4.5004 H   0  0  0  0  0  0  0  0  0  0  0  0
    1.2642   -2.2811    2.2250 H   0  0  0  0  0  0  0  0  0  0  0  0
    1.8702   -1.0782    0.2564 H   0  0  0  0  0  0  0  0  0  0  0  0
    2.6678   -3.3638    0.3044 H   0  0  0  0  0  0  0  0  0  0  0  0
    4.8761   -2.7025    2.0160 H   0  0  0  0  0  0  0  0  0  0  0  0
    5.0020   -3.8380    0.7885 H   0  0  0  0  0  0  0  0  0  0  0  0
    5.5997   -0.7595    0.7655 H   0  0  0  0  0  0  0  0  0  0  0  0
    6.7356   -2.0763    0.6233 H   0  0  0  0  0  0  0  0  0  0  0  0
    5.3953   -0.6449   -1.3906 H   0  0  0  0  0  0  0  0  0  0  0  0
    6.9773   -2.1583   -2.3160 H   0  0  0  0  0  0  0  0  0  0  0  0
    6.4531   -3.4837   -1.3007 H   0  0  0  0  0  0  0  0  0  0  0  0
    4.9592   -2.3710   -3.6944 H   0  0  0  0  0  0  0  0  0  0  0  0
    5.4134   -4.0536   -3.4049 H   0  0  0  0  0  0  0  0  0  0  0  0
    2.9206   -3.3060   -2.7531 H   0  0  0  0  0  0  0  0  0  0  0  0
    3.8435   -4.2462   -1.5875 H   0  0  0  0  0  0  0  0  0  0  0  0
    3.1937   -1.3062   -1.5456 H   0  0  0  0  0  0  0  0  0  0  0  0
    3.3925   -2.9169    3.1700 H   0  0  0  0  0  0  0  0  0  0  0  0
    4.5251   -0.5618    2.3873 H   0  0  0  0  0  0  0  0  0  0  0  0
    5.0824   -1.0797    3.9294 H   0  0  0  0  0  0  0  0  0  0  0  0
    3.3686   -2.3446    5.4020 H   0  0  0  0  0  0  0  0  0  0  0  0
    1.8065   -2.8578    4.7661 H   0  0  0  0  0  0  0  0  0  0  0  0
    3.2782   -0.5680    0.9374 H   0  0  0  0  0  0  0  0  0  0  0  0
  2  1  1  1
  1 21  1  0
  2  7  1  0
  2 20  1  0
  2  3  1  0
  3  4  1  0
  3 22  1  0
  3 23  1  0
  4 19  1  0
  4  5  1  0
  4 24  1  1
  5  6  1  0
  5 25  1  0
  5 26  1  0
  6  7  1  0
  6  8  1  0
  6 27  1  6
  7 28  1  0
  7 29  1  0
  8  9  1  0
  8 18  1  0
  8 30  1  6
  9 10  1  0
  9 31  1  0
  9 50  1  0
 10 17  1  0
 10 11  1  0
 10 32  1  6
 11 12  1  0
 11 33  1  0
 11 34  1  0
 12 13  1  0
 12 35  1  0
 12 36  1  0
 13 17  1  0
 13 14  1  0
 13 37  1  6
 14 15  1  0
 14 38  1  0
 14 39  1  0
 15 16  1  0
 15 40  1  0
 15 41  1  0
 16 17  1  0
 16 42  1  0
 16 43  1  0
 17 44  1  6
 18 19  1  0
 18 20  1  0
 18 45  1  6
 19 46  1  0
 19 47  1  0
 20 48  1  0
 20 49  1  0
M  CHG  1   9   1
M  END
>  <i_m_ct_stereo_status>  (60) 
1

>  <s_m_source_file>  (60) 
/var/tmp/pbs.5076255.sched01/tmpu5rzjxe4/0gixxd53k.sdf

>  <i_m_source_file_index>  (60) 
24

>  <i_lp_mmshare_version>  (60) 
48012

>  <i_f3d_flags>  (60) 
0

>  <s_epik_input>  (60) 
W09IXVtDQF0xMltDSDJdW0NAQEhdM1tDSDJdW0NASF0oW0NIMl0xKVtDQEhdKFtDQEBIXShbQ0gyXTMpW0NIMl0yKVtOSF1bQ0BIXShbQ0gyXVtDSDJdNClbQ0BASF0oW0NAQEhdNDUpW0NIMl1bQ0gyXVtDSDJdNQ==

>  <s_epik_cmdline>  (60) 
J2VwaWtfcHl0aG9uJywgJy1waHQnLCAnMi4wJywgJy1waCcsICc3LjAnLCAnLXRuJywgJzgnLCAnLW1hJywgJzIwMCcsICctaW1hZScsICc8aW5maWxlLm1hZT4nLCAnLW9tYWUnLCAnPG91dGZpbGUubWFlPic=

>  <r_lp_tautomer_probability>  (60) 
1

>  <r_epik_Ionization_Penalty>  (60) 
3.57707e-05

>  <r_epik_Ionization_Penalty_Charging>  (60) 
3.52406e-05

>  <r_epik_Ionization_Penalty_Neutral>  (60) 
5.30112e-07

>  <r_epik_State_Penalty>  (60) 
-0

>  <r_epik_Charging_Adjusted_Penalty>  (60) 
3.52406e-05

>  <i_epik_Tot_Q>  (60) 
1

>  <i_epik_Tot_abs_Q>  (60) 
1

>  <s_lp_Force_Field>  (60) 
OPLS3e

>  <r_lp_Energy>  (60) 
2.46824

>  <b_lp_Chiralities_Consistent>  (60) 
1

>  <s_lp_Variant>  (60) 
17:0-1

>  <s_i_glide_gridfile>  (60) 
pfpi4k_grid

>  <i_i_glide_lignum>  (60) 
24

>  <i_i_glide_rotatable_bonds>  (60) 
3

>  <r_i_docking_score>  (60) 
-3.50457

>  <r_i_glide_ligand_efficiency>  (60) 
-0.175229

>  <r_i_glide_ligand_efficiency_sa>  (60) 
-0.475644

>  <r_i_glide_ligand_efficiency_ln>  (60) 
-0.877079

>  <r_i_glide_gscore>  (60) 
-3.50457

>  <r_i_glide_lipo>  (60) 
-0.324025

>  <r_i_glide_hbond>  (60) 
-0.2

>  <r_i_glide_metal>  (60) 
-0

>  <r_i_glide_rewards>  (60) 
-1.52429

>  <r_i_glide_evdw>  (60) 
-20.9093

>  <r_i_glide_ecoul>  (60) 
-7.599

>  <r_i_glide_erotb>  (60) 
0.470877

>  <r_i_glide_esite>  (60) 
-0.0588978

>  <r_i_glide_emodel>  (60) 
-30.6871

>  <r_i_glide_energy>  (60) 
-28.5083

>  <r_i_glide_einternal>  (60) 
1.47612

>  <r_i_glide_intrahb_reward>  (60) 
-0

>  <i_i_glide_confnum>  (60) 
4

>  <i_i_glide_posenum>  (60) 
11

>  <r_i_glide_eff_state_penalty>  (60) 
0

>  <ligand_id>  (60) 
17

>  <original_smiles>  (60) 
OC12CC3CC(C1)C(NC1CCC4CCCC41)C(C3)C2

>  <smiles>  (60) 
[H]OC12C([H])([H])C3([H])C([H])([H])C([H])(C1([H])[H])C([H])([N+]([H])([H])C1([H])C([H])([H])C([H])([H])C4([H])C([H])([H])C([H])([H])C([H])([H])C41[H])C([H])(C3([H])[H])C2([H])[H]

$$$$
17:0:2
     RDKit          3D

 50 54  0  0  1  0  0  0  0  0999 V2000
    3.9827   -4.6296    0.5734 O   0  0  0  0  0  0  0  0  0  0  0  0
    4.0749   -3.3255    1.1253 C   0  0  2  0  0  0  0  0  0  0  0  0
    5.5551   -2.8688    1.1761 C   0  0  0  0  0  0  0  0  0  0  0  0
    5.6331   -1.4485    1.7753 C   0  0  2  0  0  0  0  0  0  0  0  0
    5.0456   -1.4739    3.2052 C   0  0  0  0  0  0  0  0  0  0  0  0
    3.5583   -1.9057    3.1473 C   0  0  2  0  0  0  0  0  0  0  0  0
    3.4793   -3.3308    2.5490 C   0  0  0  0  0  0  0  0  0  0  0  0
    2.7583   -0.8966    2.2723 C   0  0  1  0  0  0  0  0  0  0  0  0
    2.8200    0.4287    2.8527 N   0  0  0  0  0  0  0  0  0  0  0  0
    1.7751    1.4042    2.4653 C   0  0  2  0  0  0  0  0  0  0  0  0
    2.2214    2.8167    2.8784 C   0  0  0  0  0  0  0  0  0  0  0  0
    1.8048    2.9441    4.3404 C   0  0  0  0  0  0  0  0  0  0  0  0
    0.4905    2.1557    4.4386 C   0  0  1  0  0  0  0  0  0  0  0  0
   -0.7701    3.0177    4.2826 C   0  0  0  0  0  0  0  0  0  0  0  0
   -1.7215    2.1532    3.4641 C   0  0  0  0  0  0  0  0  0  0  0  0
   -0.7985    1.4588    2.4700 C   0  0  0  0  0  0  0  0  0  0  0  0
    0.4776    1.1615    3.2600 C   0  0  1  0  0  0  0  0  0  0  0  0
    3.3590   -0.9325    0.8471 C   0  0  1  0  0  0  0  0  0  0  0  0
    4.8306   -0.4784    0.8736 C   0  0  0  0  0  0  0  0  0  0  0  0
    3.2704   -2.3456    0.2415 C   0  0  0  0  0  0  0  0  0  0  0  0
    4.2550   -4.6113   -0.3225 H   0  0  0  0  0  0  0  0  0  0  0  0
    6.1426   -3.5569    1.7906 H   0  0  0  0  0  0  0  0  0  0  0  0
    5.9948   -2.8790    0.1772 H   0  0  0  0  0  0  0  0  0  0  0  0
    6.6753   -1.1175    1.8141 H   0  0  0  0  0  0  0  0  0  0  0  0
    5.6043   -2.1760    3.8289 H   0  0  0  0  0  0  0  0  0  0  0  0
    5.1650   -0.4967    3.6790 H   0  0  0  0  0  0  0  0  0  0  0  0
    3.1417   -1.9278    4.1577 H   0  0  0  0  0  0  0  0  0  0  0  0
    2.4451   -3.6787    2.5245 H   0  0  0  0  0  0  0  0  0  0  0  0
    4.0305   -4.0308    3.1821 H   0  0  0  0  0  0  0  0  0  0  0  0
    1.7157   -1.2463    2.2367 H   0  0  0  0  0  0  0  0  0  0  0  0
    2.7842    0.3723    3.8603 H   0  0  0  0  0  0  0  0  0  0  0  0
    1.6180    1.3756    1.3835 H   0  0  0  0  0  0  0  0  0  0  0  0
    3.2871    3.0069    2.7438 H   0  0  0  0  0  0  0  0  0  0  0  0
    1.6898    3.5606    2.2855 H   0  0  0  0  0  0  0  0  0  0  0  0
    2.5595    2.4759    4.9795 H   0  0  0  0  0  0  0  0  0  0  0  0
    1.7117    3.9832    4.6613 H   0  0  0  0  0  0  0  0  0  0  0  0
    0.4447    1.6125    5.3864 H   0  0  0  0  0  0  0  0  0  0  0  0
   -1.1871    3.3191    5.2421 H   0  0  0  0  0  0  0  0  0  0  0  0
   -0.5434    3.9254    3.7175 H   0  0  0  0  0  0  0  0  0  0  0  0
   -2.1933    1.4068    4.1075 H   0  0  0  0  0  0  0  0  0  0  0  0
   -2.5092    2.7273    2.9738 H   0  0  0  0  0  0  0  0  0  0  0  0
   -1.2443    0.5656    2.0337 H   0  0  0  0  0  0  0  0  0  0  0  0
   -0.5780    2.1427    1.6480 H   0  0  0  0  0  0  0  0  0  0  0  0
    0.4026    0.1436    3.6449 H   0  0  0  0  0  0  0  0  0  0  0  0
    2.7875   -0.2499    0.2110 H   0  0  0  0  0  0  0  0  0  0  0  0
    4.9201    0.5438    1.2430 H   0  0  0  0  0  0  0  0  0  0  0  0
    5.2417   -0.4634   -0.1364 H   0  0  0  0  0  0  0  0  0  0  0  0
    3.6585   -2.3437   -0.7776 H   0  0  0  0  0  0  0  0  0  0  0  0
    2.2293   -2.6705    0.1788 H   0  0  0  0  0  0  0  0  0  0  0  0
    3.7144    0.8204    2.6001 H   0  0  0  0  0  0  0  0  0  0  0  0
  2  1  1  6
  1 21  1  0
  2  7  1  0
  2 20  1  0
  2  3  1  0
  3  4  1  0
  3 22  1  0
  3 23  1  0
  4 19  1  0
  4  5  1  0
  4 24  1  1
  5  6  1  0
  5 25  1  0
  5 26  1  0
  6  7  1  0
  6  8  1  0
  6 27  1  1
  7 28  1  0
  7 29  1  0
  8  9  1  0
  8 18  1  0
  8 30  1  6
  9 10  1  0
  9 31  1  0
  9 50  1  0
 10 17  1  0
 10 11  1  0
 10 32  1  6
 11 12  1  0
 11 33  1  0
 11 34  1  0
 12 13  1  0
 12 35  1  0
 12 36  1  0
 13 17  1  0
 13 14  1  0
 13 37  1  1
 14 15  1  0
 14 38  1  0
 14 39  1  0
 15 16  1  0
 15 40  1  0
 15 41  1  0
 16 17  1  0
 16 42  1  0
 16 43  1  0
 17 44  1  1
 18 19  1  0
 18 20  1  0
 18 45  1  6
 19 46  1  0
 19 47  1  0
 20 48  1  0
 20 49  1  0
M  CHG  1   9   1
M  END
>  <i_m_ct_stereo_status>  (61) 
1

>  <s_m_source_file>  (61) 
/var/tmp/pbs.5076255.sched01/tmpu5rzjxe4/0gixxd53k.sdf

>  <i_m_source_file_index>  (61) 
24

>  <i_lp_mmshare_version>  (61) 
48012

>  <i_f3d_flags>  (61) 
0

>  <s_epik_input>  (61) 
W09IXVtDQF0xMltDSDJdW0NAQEhdM1tDSDJdW0NASF0oW0NIMl0xKVtDQEhdKFtDQEBIXShbQ0gyXTMpW0NIMl0yKVtOSF1bQ0BIXShbQ0gyXVtDSDJdNClbQ0BASF0oW0NAQEhdNDUpW0NIMl1bQ0gyXVtDSDJdNQ==

>  <s_epik_cmdline>  (61) 
J2VwaWtfcHl0aG9uJywgJy1waHQnLCAnMi4wJywgJy1waCcsICc3LjAnLCAnLXRuJywgJzgnLCAnLW1hJywgJzIwMCcsICctaW1hZScsICc8aW5maWxlLm1hZT4nLCAnLW9tYWUnLCAnPG91dGZpbGUubWFlPic=

>  <r_lp_tautomer_probability>  (61) 
1

>  <r_epik_Ionization_Penalty>  (61) 
3.57707e-05

>  <r_epik_Ionization_Penalty_Charging>  (61) 
3.52406e-05

>  <r_epik_Ionization_Penalty_Neutral>  (61) 
5.30112e-07

>  <r_epik_State_Penalty>  (61) 
-0

>  <r_epik_Charging_Adjusted_Penalty>  (61) 
3.52406e-05

>  <i_epik_Tot_Q>  (61) 
1

>  <i_epik_Tot_abs_Q>  (61) 
1

>  <s_lp_Force_Field>  (61) 
OPLS3e

>  <r_lp_Energy>  (61) 
2.46824

>  <b_lp_Chiralities_Consistent>  (61) 
1

>  <s_lp_Variant>  (61) 
17:0-1

>  <s_i_glide_gridfile>  (61) 
pfpi4k_grid

>  <i_i_glide_lignum>  (61) 
24

>  <i_i_glide_rotatable_bonds>  (61) 
3

>  <r_i_docking_score>  (61) 
-3.20209

>  <r_i_glide_ligand_efficiency>  (61) 
-0.160105

>  <r_i_glide_ligand_efficiency_sa>  (61) 
-0.434591

>  <r_i_glide_ligand_efficiency_ln>  (61) 
-0.801379

>  <r_i_glide_gscore>  (61) 
-3.20209

>  <r_i_glide_lipo>  (61) 
-0.451294

>  <r_i_glide_hbond>  (61) 
0

>  <r_i_glide_metal>  (61) 
-0

>  <r_i_glide_rewards>  (61) 
-1.52429

>  <r_i_glide_evdw>  (61) 
-22.138

>  <r_i_glide_ecoul>  (61) 
-3.93655

>  <r_i_glide_erotb>  (61) 
0.470877

>  <r_i_glide_esite>  (61) 
0

>  <r_i_glide_emodel>  (61) 
-32.4262

>  <r_i_glide_energy>  (61) 
-26.0746

>  <r_i_glide_einternal>  (61) 
0.520366

>  <r_i_glide_intrahb_reward>  (61) 
-0

>  <i_i_glide_confnum>  (61) 
2

>  <i_i_glide_posenum>  (61) 
3

>  <r_i_glide_eff_state_penalty>  (61) 
0

>  <ligand_id>  (61) 
17

>  <original_smiles>  (61) 
OC12CC3CC(C1)C(NC1CCC4CCCC41)C(C3)C2

>  <smiles>  (61) 
[H]OC12C([H])([H])C3([H])C([H])([H])C([H])(C1([H])[H])C([H])([N+]([H])([H])C1([H])C([H])([H])C([H])([H])C4([H])C([H])([H])C([H])([H])C([H])([H])C41[H])C([H])(C3([H])[H])C2([H])[H]

$$$$
19:0:0
     RDKit          3D

 21 23  0  0  1  0  0  0  0  0999 V2000
    4.2215   -1.4102   -3.7013 C   0  0  0  0  0  0  0  0  0  0  0  0
    2.9482   -2.2185   -3.9091 C   0  0  0  0  0  0  0  0  0  0  0  0
    2.7342   -2.9166   -2.5804 C   0  0  0  0  0  0  0  0  0  0  0  0
    4.0579   -3.0498   -2.0076 N   0  0  0  0  0  0  0  0  0  0  0  0
    4.2802   -3.7916   -0.8388 C   0  0  0  0  0  0  0  0  0  0  0  0
    5.5210   -4.0045   -0.3810 N   0  0  0  0  0  0  0  0  0  0  0  0
    5.3721   -4.7713    0.7196 N   0  0  0  0  0  0  0  0  0  0  0  0
    6.3843   -5.2070    1.4680 N   0  0  0  0  0  0  0  0  0  0  0  0
    5.7828   -5.8828    2.4059 N   0  0  0  0  0  0  0  0  0  0  0  0
    4.3784   -5.8782    2.2574 N   0  0  0  0  0  0  0  0  0  0  0  0
    4.1649   -5.1699    1.1866 C   0  0  0  0  0  0  0  0  0  0  0  0
    2.9422   -4.5142    0.1116 S   0  0  0  0  0  0  0  0  0  0  0  0
    5.0471   -2.2627   -2.7222 C   0  0  0  0  0  0  0  0  0  0  0  0
    3.9693   -0.4497   -3.2490 H   0  0  0  0  0  0  0  0  0  0  0  0
    4.7297   -1.2026   -4.6413 H   0  0  0  0  0  0  0  0  0  0  0  0
    2.1068   -1.6022   -4.2163 H   0  0  0  0  0  0  0  0  0  0  0  0
    3.0909   -2.9632   -4.6958 H   0  0  0  0  0  0  0  0  0  0  0  0
    2.1121   -2.3210   -1.9182 H   0  0  0  0  0  0  0  0  0  0  0  0
    2.2507   -3.8801   -2.7191 H   0  0  0  0  0  0  0  0  0  0  0  0
    5.7116   -2.9408   -3.2609 H   0  0  0  0  0  0  0  0  0  0  0  0
    5.6405   -1.6348   -2.0554 H   0  0  0  0  0  0  0  0  0  0  0  0
  1 13  1  0
  1  2  1  0
  1 14  1  0
  1 15  1  0
  2  3  1  0
  2 16  1  0
  2 17  1  0
  3  4  1  0
  3 18  1  0
  3 19  1  0
  4  5  1  0
  4 13  1  0
  5 12  1  0
  5  6  2  0
  6  7  1  0
  7 11  1  0
  7  8  1  0
  8  9  2  0
  9 10  1  0
 10 11  2  0
 11 12  1  0
 13 20  1  0
 13 21  1  0
M  END
>  <i_m_ct_stereo_status>  (62) 
1

>  <s_m_source_file>  (62) 
/var/tmp/pbs.5076255.sched01/tmpu5rzjxe4/0gixxd53k.sdf

>  <i_m_source_file_index>  (62) 
26

>  <i_lp_mmshare_version>  (62) 
48012

>  <i_f3d_flags>  (62) 
0

>  <s_epik_input>  (62) 
W0NIMl0xW0NIMl1bQ0gyXVtDSDJdTjFjKG4yKXNjKG4yMylubm4z

>  <s_epik_cmdline>  (62) 
J2VwaWtfcHl0aG9uJywgJy1waHQnLCAnMi4wJywgJy1waCcsICc3LjAnLCAnLXRuJywgJzgnLCAnLW1hJywgJzIwMCcsICctaW1hZScsICc8aW5maWxlLm1hZT4nLCAnLW9tYWUnLCAnPG91dGZpbGUubWFlPic=

>  <r_lp_tautomer_probability>  (62) 
1

>  <r_epik_Ionization_Penalty>  (62) 
5.26734e-08

>  <r_epik_Ionization_Penalty_Charging>  (62) 
0

>  <r_epik_Ionization_Penalty_Neutral>  (62) 
5.26734e-08

>  <r_epik_State_Penalty>  (62) 
-0

>  <r_epik_Charging_Adjusted_Penalty>  (62) 
0

>  <i_epik_Tot_Q>  (62) 
0

>  <i_epik_Tot_abs_Q>  (62) 
0

>  <s_lp_Force_Field>  (62) 
OPLS3e

>  <r_lp_Energy>  (62) 
8.06393

>  <b_lp_Chiralities_Consistent>  (62) 
1

>  <s_lp_Variant>  (62) 
19:0-1

>  <s_i_glide_gridfile>  (62) 
pfpi4k_grid

>  <i_i_glide_lignum>  (62) 
26

>  <i_i_glide_rotatable_bonds>  (62) 
1

>  <r_i_docking_score>  (62) 
-3.37631

>  <r_i_glide_ligand_efficiency>  (62) 
-0.259716

>  <r_i_glide_ligand_efficiency_sa>  (62) 
-0.610679

>  <r_i_glide_ligand_efficiency_ln>  (62) 
-0.947084

>  <r_i_glide_gscore>  (62) 
-3.37631

>  <r_i_glide_lipo>  (62) 
-0.422148

>  <r_i_glide_hbond>  (62) 
0

>  <r_i_glide_metal>  (62) 
-0

>  <r_i_glide_rewards>  (62) 
-2.20809

>  <r_i_glide_evdw>  (62) 
-19.6425

>  <r_i_glide_ecoul>  (62) 
-1.10257

>  <r_i_glide_erotb>  (62) 
0.421461

>  <r_i_glide_esite>  (62) 
-0.0200156

>  <r_i_glide_emodel>  (62) 
-25.0008

>  <r_i_glide_energy>  (62) 
-20.745

>  <r_i_glide_einternal>  (62) 
0.134335

>  <r_i_glide_intrahb_reward>  (62) 
-0

>  <i_i_glide_confnum>  (62) 
1

>  <i_i_glide_posenum>  (62) 
10

>  <r_i_glide_eff_state_penalty>  (62) 
0

>  <ligand_id>  (62) 
19

>  <original_smiles>  (62) 
C1CCN(c2nn3nnnc3s2)C1

>  <smiles>  (62) 
[H]C1([H])N(c2nn3nnnc3s2)C([H])([H])C([H])([H])C1([H])[H]

$$$$
19:0:1
     RDKit          3D

 21 23  0  0  1  0  0  0  0  0999 V2000
    4.1439   -1.1342   -2.9138 C   0  0  0  0  0  0  0  0  0  0  0  0
    3.1811   -1.9786   -3.7524 C   0  0  0  0  0  0  0  0  0  0  0  0
    2.4865   -2.8934   -2.7331 C   0  0  0  0  0  0  0  0  0  0  0  0
    3.4371   -2.9807   -1.6331 N   0  0  0  0  0  0  0  0  0  0  0  0
    3.3760   -3.8699   -0.5435 C   0  0  0  0  0  0  0  0  0  0  0  0
    2.2878   -4.5901   -0.2934 N   0  0  0  0  0  0  0  0  0  0  0  0
    2.5644   -5.3114    0.8043 N   0  0  0  0  0  0  0  0  0  0  0  0
    1.6854   -6.1240    1.3766 N   0  0  0  0  0  0  0  0  0  0  0  0
    2.3490   -6.5901    2.3946 N   0  0  0  0  0  0  0  0  0  0  0  0
    3.6582   -6.0604    2.4719 N   0  0  0  0  0  0  0  0  0  0  0  0
    3.7536   -5.2518    1.4565 C   0  0  0  0  0  0  0  0  0  0  0  0
    4.7604   -4.1085    0.5886 S   0  0  0  0  0  0  0  0  0  0  0  0
    4.5432   -2.0636   -1.7764 C   0  0  0  0  0  0  0  0  0  0  0  0
    3.6243   -0.2630   -2.5158 H   0  0  0  0  0  0  0  0  0  0  0  0
    5.0048   -0.7773   -3.4736 H   0  0  0  0  0  0  0  0  0  0  0  0
    2.4834   -1.3649   -4.3226 H   0  0  0  0  0  0  0  0  0  0  0  0
    3.7543   -2.5799   -4.4590 H   0  0  0  0  0  0  0  0  0  0  0  0
    1.5608   -2.4448   -2.3758 H   0  0  0  0  0  0  0  0  0  0  0  0
    2.2505   -3.8615   -3.1718 H   0  0  0  0  0  0  0  0  0  0  0  0
    5.4436   -2.6251   -2.0200 H   0  0  0  0  0  0  0  0  0  0  0  0
    4.7135   -1.5133   -0.8535 H   0  0  0  0  0  0  0  0  0  0  0  0
  1 13  1  0
  1  2  1  0
  1 14  1  0
  1 15  1  0
  2  3  1  0
  2 16  1  0
  2 17  1  0
  3  4  1  0
  3 18  1  0
  3 19  1  0
  4  5  1  0
  4 13  1  0
  5 12  1  0
  5  6  2  0
  6  7  1  0
  7 11  1  0
  7  8  1  0
  8  9  2  0
  9 10  1  0
 10 11  2  0
 11 12  1  0
 13 20  1  0
 13 21  1  0
M  END
>  <i_m_ct_stereo_status>  (63) 
1

>  <s_m_source_file>  (63) 
/var/tmp/pbs.5076255.sched01/tmpu5rzjxe4/0gixxd53k.sdf

>  <i_m_source_file_index>  (63) 
26

>  <i_lp_mmshare_version>  (63) 
48012

>  <i_f3d_flags>  (63) 
0

>  <s_epik_input>  (63) 
W0NIMl0xW0NIMl1bQ0gyXVtDSDJdTjFjKG4yKXNjKG4yMylubm4z

>  <s_epik_cmdline>  (63) 
J2VwaWtfcHl0aG9uJywgJy1waHQnLCAnMi4wJywgJy1waCcsICc3LjAnLCAnLXRuJywgJzgnLCAnLW1hJywgJzIwMCcsICctaW1hZScsICc8aW5maWxlLm1hZT4nLCAnLW9tYWUnLCAnPG91dGZpbGUubWFlPic=

>  <r_lp_tautomer_probability>  (63) 
1

>  <r_epik_Ionization_Penalty>  (63) 
5.26734e-08

>  <r_epik_Ionization_Penalty_Charging>  (63) 
0

>  <r_epik_Ionization_Penalty_Neutral>  (63) 
5.26734e-08

>  <r_epik_State_Penalty>  (63) 
-0

>  <r_epik_Charging_Adjusted_Penalty>  (63) 
0

>  <i_epik_Tot_Q>  (63) 
0

>  <i_epik_Tot_abs_Q>  (63) 
0

>  <s_lp_Force_Field>  (63) 
OPLS3e

>  <r_lp_Energy>  (63) 
8.06393

>  <b_lp_Chiralities_Consistent>  (63) 
1

>  <s_lp_Variant>  (63) 
19:0-1

>  <s_i_glide_gridfile>  (63) 
pfpi4k_grid

>  <i_i_glide_lignum>  (63) 
26

>  <i_i_glide_rotatable_bonds>  (63) 
1

>  <r_i_docking_score>  (63) 
-3.12822

>  <r_i_glide_ligand_efficiency>  (63) 
-0.240633

>  <r_i_glide_ligand_efficiency_sa>  (63) 
-0.565808

>  <r_i_glide_ligand_efficiency_ln>  (63) 
-0.877495

>  <r_i_glide_gscore>  (63) 
-3.12822

>  <r_i_glide_lipo>  (63) 
-0.261123

>  <r_i_glide_hbond>  (63) 
0

>  <r_i_glide_metal>  (63) 
-0

>  <r_i_glide_rewards>  (63) 
-2.09203

>  <r_i_glide_evdw>  (63) 
-19.2866

>  <r_i_glide_ecoul>  (63) 
-0.79825

>  <r_i_glide_erotb>  (63) 
0.421461

>  <r_i_glide_esite>  (63) 
-0.112466

>  <r_i_glide_emodel>  (63) 
-23.8284

>  <r_i_glide_energy>  (63) 
-20.0848

>  <r_i_glide_einternal>  (63) 
0.336585

>  <r_i_glide_intrahb_reward>  (63) 
-0

>  <i_i_glide_confnum>  (63) 
1

>  <i_i_glide_posenum>  (63) 
9

>  <r_i_glide_eff_state_penalty>  (63) 
0

>  <ligand_id>  (63) 
19

>  <original_smiles>  (63) 
C1CCN(c2nn3nnnc3s2)C1

>  <smiles>  (63) 
[H]C1([H])N(c2nn3nnnc3s2)C([H])([H])C([H])([H])C1([H])[H]

$$$$
19:0:2
     RDKit          3D

 21 23  0  0  1  0  0  0  0  0999 V2000
    4.2128   -2.7870   -3.8916 C   0  0  0  0  0  0  0  0  0  0  0  0
    4.1973   -1.2599   -3.9967 C   0  0  0  0  0  0  0  0  0  0  0  0
    4.3658   -0.7742   -2.5498 C   0  0  0  0  0  0  0  0  0  0  0  0
    3.8731   -1.8758   -1.7434 N   0  0  0  0  0  0  0  0  0  0  0  0
    3.6092   -1.8560   -0.3593 C   0  0  0  0  0  0  0  0  0  0  0  0
    3.8149   -0.7733    0.3873 N   0  0  0  0  0  0  0  0  0  0  0  0
    3.4497   -1.1110    1.6338 N   0  0  0  0  0  0  0  0  0  0  0  0
    3.5223   -0.2819    2.6620 N   0  0  0  0  0  0  0  0  0  0  0  0
    3.1066   -1.0143    3.6546 N   0  0  0  0  0  0  0  0  0  0  0  0
    2.7699   -2.3260    3.2512 N   0  0  0  0  0  0  0  0  0  0  0  0
    3.0019   -2.3518    1.9705 C   0  0  0  0  0  0  0  0  0  0  0  0
    3.0082   -3.3175    0.5095 S   0  0  0  0  0  0  0  0  0  0  0  0
    3.5923   -3.0579   -2.5337 C   0  0  0  0  0  0  0  0  0  0  0  0
    5.2384   -3.1549   -3.8906 H   0  0  0  0  0  0  0  0  0  0  0  0
    3.6814   -3.2912   -4.6973 H   0  0  0  0  0  0  0  0  0  0  0  0
    4.9686   -0.8871   -4.6665 H   0  0  0  0  0  0  0  0  0  0  0  0
    3.2335   -0.9382   -4.3955 H   0  0  0  0  0  0  0  0  0  0  0  0
    5.4153   -0.6044   -2.3075 H   0  0  0  0  0  0  0  0  0  0  0  0
    3.8152    0.1500   -2.3837 H   0  0  0  0  0  0  0  0  0  0  0  0
    2.5159   -3.2036   -2.6147 H   0  0  0  0  0  0  0  0  0  0  0  0
    4.0306   -3.9426   -2.0772 H   0  0  0  0  0  0  0  0  0  0  0  0
  1 13  1  0
  1  2  1  0
  1 14  1  0
  1 15  1  0
  2  3  1  0
  2 16  1  0
  2 17  1  0
  3  4  1  0
  3 18  1  0
  3 19  1  0
  4  5  1  0
  4 13  1  0
  5 12  1  0
  5  6  2  0
  6  7  1  0
  7 11  1  0
  7  8  1  0
  8  9  2  0
  9 10  1  0
 10 11  2  0
 11 12  1  0
 13 20  1  0
 13 21  1  0
M  END
>  <i_m_ct_stereo_status>  (64) 
1

>  <s_m_source_file>  (64) 
/var/tmp/pbs.5076255.sched01/tmpu5rzjxe4/0gixxd53k.sdf

>  <i_m_source_file_index>  (64) 
26

>  <i_lp_mmshare_version>  (64) 
48012

>  <i_f3d_flags>  (64) 
0

>  <s_epik_input>  (64) 
W0NIMl0xW0NIMl1bQ0gyXVtDSDJdTjFjKG4yKXNjKG4yMylubm4z

>  <s_epik_cmdline>  (64) 
J2VwaWtfcHl0aG9uJywgJy1waHQnLCAnMi4wJywgJy1waCcsICc3LjAnLCAnLXRuJywgJzgnLCAnLW1hJywgJzIwMCcsICctaW1hZScsICc8aW5maWxlLm1hZT4nLCAnLW9tYWUnLCAnPG91dGZpbGUubWFlPic=

>  <r_lp_tautomer_probability>  (64) 
1

>  <r_epik_Ionization_Penalty>  (64) 
5.26734e-08

>  <r_epik_Ionization_Penalty_Charging>  (64) 
0

>  <r_epik_Ionization_Penalty_Neutral>  (64) 
5.26734e-08

>  <r_epik_State_Penalty>  (64) 
-0

>  <r_epik_Charging_Adjusted_Penalty>  (64) 
0

>  <i_epik_Tot_Q>  (64) 
0

>  <i_epik_Tot_abs_Q>  (64) 
0

>  <s_lp_Force_Field>  (64) 
OPLS3e

>  <r_lp_Energy>  (64) 
8.06393

>  <b_lp_Chiralities_Consistent>  (64) 
1

>  <s_lp_Variant>  (64) 
19:0-1

>  <s_i_glide_gridfile>  (64) 
pfpi4k_grid

>  <i_i_glide_lignum>  (64) 
26

>  <i_i_glide_rotatable_bonds>  (64) 
1

>  <r_i_docking_score>  (64) 
-2.98876

>  <r_i_glide_ligand_efficiency>  (64) 
-0.229905

>  <r_i_glide_ligand_efficiency_sa>  (64) 
-0.540583

>  <r_i_glide_ligand_efficiency_ln>  (64) 
-0.838374

>  <r_i_glide_gscore>  (64) 
-2.98876

>  <r_i_glide_lipo>  (64) 
-0.127859

>  <r_i_glide_hbond>  (64) 
0

>  <r_i_glide_metal>  (64) 
-0

>  <r_i_glide_rewards>  (64) 
-2.07113

>  <r_i_glide_evdw>  (64) 
-19.4881

>  <r_i_glide_ecoul>  (64) 
-1.09041

>  <r_i_glide_erotb>  (64) 
0.421461

>  <r_i_glide_esite>  (64) 
-0.0732639

>  <r_i_glide_emodel>  (64) 
-24.2611

>  <r_i_glide_energy>  (64) 
-20.5785

>  <r_i_glide_einternal>  (64) 
0.0733244

>  <r_i_glide_intrahb_reward>  (64) 
-0

>  <i_i_glide_confnum>  (64) 
2

>  <i_i_glide_posenum>  (64) 
13

>  <r_i_glide_eff_state_penalty>  (64) 
0

>  <ligand_id>  (64) 
19

>  <original_smiles>  (64) 
C1CCN(c2nn3nnnc3s2)C1

>  <smiles>  (64) 
[H]C1([H])N(c2nn3nnnc3s2)C([H])([H])C([H])([H])C1([H])[H]

$$$$
20:0:0
     RDKit          3D

 49 52  0  0  1  0  0  0  0  0999 V2000
    2.5182   -2.4646    5.5320 C   0  0  0  0  0  0  0  0  0  0  0  0
    2.9690   -3.5863    4.5688 C   0  0  2  0  0  0  0  0  0  0  0  0
    4.1574   -4.3593    5.2220 C   0  0  0  0  0  0  0  0  0  0  0  0
    4.9110   -5.3581    4.3131 C   0  0  0  0  0  0  0  0  0  0  0  0
    4.2054   -5.4554    2.9552 C   0  0  2  0  0  0  0  0  0  0  0  0
    4.5589   -6.6323    2.0175 C   0  0  1  0  0  0  0  0  0  0  0  0
    4.7154   -7.9937    2.7331 C   0  0  0  0  0  0  0  0  0  0  0  0
    3.3846   -6.7249    0.9653 C   0  0  1  0  0  0  0  0  0  0  0  0
    2.4768   -7.7353    1.3219 O   0  0  0  0  0  0  0  0  0  0  0  0
    1.4035   -7.4727    2.2425 C   0  0  0  0  0  0  0  0  0  0  0  0
    0.1467   -6.8188    1.6285 C   0  0  0  0  0  0  0  0  0  0  0  0
    0.1475   -6.3503    0.4804 O   0  0  0  0  0  0  0  0  0  0  0  0
   -0.8279   -6.7095    2.4058 O   0  0  0  0  0  0  0  0  0  0  0  0
    2.7480   -5.4948    0.7642 O   0  0  0  0  0  0  0  0  0  0  0  0
    3.6078   -4.4089    0.7626 C   0  0  1  0  0  0  0  0  0  0  0  0
    3.1162   -3.2836    0.1406 O   0  0  0  0  0  0  0  0  0  0  0  0
    3.8632   -2.1091    0.4523 C   0  0  1  0  0  0  0  0  0  0  0  0
    4.0210   -1.3073   -0.8345 C   0  0  0  0  0  0  0  0  0  0  0  0
    3.0007   -1.3011    1.4306 C   0  0  0  0  0  0  0  0  0  0  0  0
    2.3206   -2.1774    2.4708 C   0  0  0  0  0  0  0  0  0  0  0  0
    3.3805   -3.0563    3.1573 C   0  0  2  0  0  0  0  0  0  0  0  0
    4.1375   -4.0897    2.2117 C   0  0  1  0  0  0  0  0  0  0  0  0
    5.3875   -3.4913    1.9444 O   0  0  0  0  0  0  0  0  0  0  0  0
    5.2235   -2.3283    0.9245 O   0  0  0  0  0  0  0  0  0  0  0  0
    3.2895   -1.6959    5.5914 H   0  0  0  0  0  0  0  0  0  0  0  0
    2.3365   -2.8478    6.5384 H   0  0  0  0  0  0  0  0  0  0  0  0
    1.5889   -1.9908    5.2179 H   0  0  0  0  0  0  0  0  0  0  0  0
    2.1135   -4.2559    4.4597 H   0  0  0  0  0  0  0  0  0  0  0  0
    4.8985   -3.6464    5.5821 H   0  0  0  0  0  0  0  0  0  0  0  0
    3.7826   -4.8856    6.1073 H   0  0  0  0  0  0  0  0  0  0  0  0
    5.9621   -5.1047    4.1930 H   0  0  0  0  0  0  0  0  0  0  0  0
    4.8607   -6.3306    4.8006 H   0  0  0  0  0  0  0  0  0  0  0  0
    3.1821   -5.6567    3.2446 H   0  0  0  0  0  0  0  0  0  0  0  0
    5.4716   -6.4101    1.4734 H   0  0  0  0  0  0  0  0  0  0  0  0
    3.8558   -8.2217    3.3669 H   0  0  0  0  0  0  0  0  0  0  0  0
    5.5943   -8.0099    3.3770 H   0  0  0  0  0  0  0  0  0  0  0  0
    4.8074   -8.8158    2.0226 H   0  0  0  0  0  0  0  0  0  0  0  0
    3.8252   -7.0291    0.0099 H   0  0  0  0  0  0  0  0  0  0  0  0
    1.1334   -8.4203    2.7147 H   0  0  0  0  0  0  0  0  0  0  0  0
    1.6847   -6.8427    3.0739 H   0  0  0  0  0  0  0  0  0  0  0  0
    4.4517   -4.6735    0.1050 H   0  0  0  0  0  0  0  0  0  0  0  0
    4.5936   -1.8645   -1.5744 H   0  0  0  0  0  0  0  0  0  0  0  0
    4.5428   -0.3745   -0.6217 H   0  0  0  0  0  0  0  0  0  0  0  0
    3.0511   -1.0640   -1.2694 H   0  0  0  0  0  0  0  0  0  0  0  0
    3.6097   -0.5347    1.9095 H   0  0  0  0  0  0  0  0  0  0  0  0
    2.2117   -0.7728    0.9021 H   0  0  0  0  0  0  0  0  0  0  0  0
    1.8361   -1.4704    3.1434 H   0  0  0  0  0  0  0  0  0  0  0  0
    1.5170   -2.7903    2.0588 H   0  0  0  0  0  0  0  0  0  0  0  0
    4.1624   -2.3475    3.4374 H   0  0  0  0  0  0  0  0  0  0  0  0
  1  2  1  0
  1 25  1  0
  1 26  1  0
  1 27  1  0
  2 21  1  0
  2  3  1  0
  2 28  1  6
  3  4  1  0
  3 29  1  0
  3 30  1  0
  4  5  1  0
  4 31  1  0
  4 32  1  0
  5 22  1  0
  5  6  1  0
  5 33  1  1
  6  7  1  0
  6  8  1  0
  6 34  1  6
  7 35  1  0
  7 36  1  0
  7 37  1  0
  8  9  1  0
  8 14  1  0
  8 38  1  6
  9 10  1  0
 10 11  1  0
 10 39  1  0
 10 40  1  0
 11 12  2  0
 11 13  1  0
 14 15  1  0
 15 22  1  0
 15 16  1  0
 15 41  1  6
 16 17  1  0
 17 24  1  0
 17 18  1  6
 17 19  1  0
 18 42  1  0
 18 43  1  0
 18 44  1  0
 19 20  1  0
 19 45  1  0
 19 46  1  0
 20 21  1  0
 20 47  1  0
 20 48  1  0
 21 22  1  0
 21 49  1  1
 22 23  1  6
 23 24  1  0
M  CHG  1  13  -1
M  END
>  <i_m_ct_stereo_status>  (65) 
1

>  <s_m_source_file>  (65) 
/var/tmp/pbs.5076255.sched01/tmpu5rzjxe4/0gixxd53k.sdf

>  <i_m_source_file_index>  (65) 
27

>  <i_lp_mmshare_version>  (65) 
48012

>  <i_f3d_flags>  (65) 
0

>  <s_epik_input>  (65) 
W0NAXTEyM1tDQEBIXTRbQ0gyXVtDSDJdW0NAQEhdKFtDSDNdKVtDQEBIXTJbQ0gyXVtDSDJdW0NAQF0oW0NIM10pKE9PMylPW0NAQEhdMU9bQ0BASF0oW0NAQEhdNFtDSDNdKU9bQ0gyXUMoPU8pW09IXQ==

>  <s_epik_cmdline>  (65) 
J2VwaWtfcHl0aG9uJywgJy1waHQnLCAnMi4wJywgJy1waCcsICc3LjAnLCAnLXRuJywgJzgnLCAnLW1hJywgJzIwMCcsICctaW1hZScsICc8aW5maWxlLm1hZT4nLCAnLW9tYWUnLCAnPG91dGZpbGUubWFlPic=

>  <r_epik_Ionization_Penalty>  (65) 
0.00059125

>  <r_epik_Ionization_Penalty_Charging>  (65) 
0.00059125

>  <r_epik_Ionization_Penalty_Neutral>  (65) 
9.69834e-12

>  <r_epik_State_Penalty>  (65) 
0.000372018

>  <r_epik_Charging_Adjusted_Penalty>  (65) 
0.000963268

>  <i_epik_Tot_Q>  (65) 
-1

>  <i_epik_Tot_abs_Q>  (65) 
1

>  <s_epik_Chemistry_Notes>  (65) 
This compound contains an acetal/aminal-like group ( X-CH(R)-Y where X, Y are N, S, or O) that may be acid/base labile, releasing an aldehyde.

>  <s_lp_Force_Field>  (65) 
OPLS3e

>  <r_lp_Energy>  (65) 
66.3675

>  <b_lp_Chiralities_Consistent>  (65) 
1

>  <s_lp_Variant>  (65) 
20:0-1

>  <s_i_glide_gridfile>  (65) 
pfpi4k_grid

>  <i_i_glide_lignum>  (65) 
27

>  <i_i_glide_rotatable_bonds>  (65) 
3

>  <r_i_docking_score>  (65) 
-3.27263

>  <r_i_glide_ligand_efficiency>  (65) 
-0.13636

>  <r_i_glide_ligand_efficiency_sa>  (65) 
-0.393329

>  <r_i_glide_ligand_efficiency_ln>  (65) 
-0.78329

>  <r_i_glide_gscore>  (65) 
-3.27263

>  <r_i_glide_lipo>  (65) 
-0.032066

>  <r_i_glide_hbond>  (65) 
-0.43526

>  <r_i_glide_metal>  (65) 
-0

>  <r_i_glide_rewards>  (65) 
-1.14381

>  <r_i_glide_evdw>  (65) 
-13.9557

>  <r_i_glide_ecoul>  (65) 
-7.76231

>  <r_i_glide_erotb>  (65) 
0.325203

>  <r_i_glide_esite>  (65) 
-0.124561

>  <r_i_glide_emodel>  (65) 
-26.2318

>  <r_i_glide_energy>  (65) 
-21.718

>  <r_i_glide_einternal>  (65) 
4.83417

>  <r_i_glide_intrahb_reward>  (65) 
-0

>  <i_i_glide_confnum>  (65) 
6

>  <i_i_glide_posenum>  (65) 
35

>  <r_i_glide_eff_state_penalty>  (65) 
0

>  <ligand_id>  (65) 
20

>  <original_smiles>  (65) 
CC1CCC2C(C)C(OCC(=O)O)OC3OC4(C)CCC1C32OO4

>  <smiles>  (65) 
[H]C([H])(OC1([H])OC2([H])OC3(C([H])([H])[H])OOC24C([H])(C([H])([H])C([H])([H])C([H])(C([H])([H])[H])C4([H])C([H])([H])C3([H])[H])C1([H])C([H])([H])[H])C(=O)[O-]

$$$$
20:0:1
     RDKit          3D

 49 52  0  0  1  0  0  0  0  0999 V2000
    3.7878   -3.4307    6.5417 C   0  0  0  0  0  0  0  0  0  0  0  0
    3.9406   -4.2370    5.2313 C   0  0  2  0  0  0  0  0  0  0  0  0
    5.2576   -5.0617    5.3121 C   0  0  0  0  0  0  0  0  0  0  0  0
    5.6668   -5.7769    4.0046 C   0  0  0  0  0  0  0  0  0  0  0  0
    4.5633   -5.6151    2.9325 C   0  0  2  0  0  0  0  0  0  0  0  0
    4.6640   -6.4571    1.6530 C   0  0  1  0  0  0  0  0  0  0  0  0
    5.0418   -7.9304    1.9109 C   0  0  0  0  0  0  0  0  0  0  0  0
    3.2521   -6.3557    0.9667 C   0  0  1  0  0  0  0  0  0  0  0  0
    2.4475   -7.4658    1.2986 O   0  0  0  0  0  0  0  0  0  0  0  0
    1.4499   -7.2859    2.2962 C   0  0  0  0  0  0  0  0  0  0  0  0
    0.1395   -6.7238    1.7291 C   0  0  0  0  0  0  0  0  0  0  0  0
   -0.8524   -6.6584    2.4823 O   0  0  0  0  0  0  0  0  0  0  0  0
    0.1278   -6.2664    0.5496 O   0  0  0  0  0  0  0  0  0  0  0  0
    2.6000   -5.1378    1.2868 O   0  0  0  0  0  0  0  0  0  0  0  0
    3.4503   -4.0462    1.3322 C   0  0  1  0  0  0  0  0  0  0  0  0
    2.8216   -2.8407    1.1588 O   0  0  0  0  0  0  0  0  0  0  0  0
    3.6352   -1.7455    1.5543 C   0  0  1  0  0  0  0  0  0  0  0  0
    3.4342   -0.6368    0.5189 C   0  0  0  0  0  0  0  0  0  0  0  0
    3.0743   -1.2571    2.9014 C   0  0  0  0  0  0  0  0  0  0  0  0
    2.7191   -2.4066    3.8395 C   0  0  0  0  0  0  0  0  0  0  0  0
    3.9204   -3.3484    3.9525 C   0  0  2  0  0  0  0  0  0  0  0  0
    4.3366   -4.0958    2.6155 C   0  0  1  0  0  0  0  0  0  0  0  0
    5.4847   -3.3816    2.1774 O   0  0  0  0  0  0  0  0  0  0  0  0
    5.0692   -2.0020    1.5833 O   0  0  0  0  0  0  0  0  0  0  0  0
    4.5400   -2.6462    6.6026 H   0  0  0  0  0  0  0  0  0  0  0  0
    3.9283   -4.0561    7.4259 H   0  0  0  0  0  0  0  0  0  0  0  0
    2.8140   -2.9482    6.6349 H   0  0  0  0  0  0  0  0  0  0  0  0
    3.0905   -4.9193    5.1973 H   0  0  0  0  0  0  0  0  0  0  0  0
    6.0815   -4.4136    5.6180 H   0  0  0  0  0  0  0  0  0  0  0  0
    5.1515   -5.8135    6.1005 H   0  0  0  0  0  0  0  0  0  0  0  0
    6.6406   -5.4143    3.6498 H   0  0  0  0  0  0  0  0  0  0  0  0
    5.8085   -6.8313    4.2417 H   0  0  0  0  0  0  0  0  0  0  0  0
    3.6506   -6.0218    3.3955 H   0  0  0  0  0  0  0  0  0  0  0  0
    5.4033   -6.0200    0.9839 H   0  0  0  0  0  0  0  0  0  0  0  0
    4.4006   -8.3772    2.6776 H   0  0  0  0  0  0  0  0  0  0  0  0
    6.0672   -8.0605    2.2589 H   0  0  0  0  0  0  0  0  0  0  0  0
    4.9281   -8.5489    1.0235 H   0  0  0  0  0  0  0  0  0  0  0  0
    3.4125   -6.3971   -0.1102 H   0  0  0  0  0  0  0  0  0  0  0  0
    1.2673   -8.2599    2.7394 H   0  0  0  0  0  0  0  0  0  0  0  0
    1.7724   -6.6316    3.0898 H   0  0  0  0  0  0  0  0  0  0  0  0
    4.0732   -4.0914    0.4295 H   0  0  0  0  0  0  0  0  0  0  0  0
    3.7380   -0.9569   -0.4764 H   0  0  0  0  0  0  0  0  0  0  0  0
    4.0072    0.2527    0.7835 H   0  0  0  0  0  0  0  0  0  0  0  0
    2.3859   -0.3312    0.4838 H   0  0  0  0  0  0  0  0  0  0  0  0
    3.8003   -0.5913    3.3738 H   0  0  0  0  0  0  0  0  0  0  0  0
    2.1625   -0.6703    2.7611 H   0  0  0  0  0  0  0  0  0  0  0  0
    2.4546   -1.9436    4.7919 H   0  0  0  0  0  0  0  0  0  0  0  0
    1.8315   -2.9453    3.4938 H   0  0  0  0  0  0  0  0  0  0  0  0
    4.7516   -2.6792    4.1667 H   0  0  0  0  0  0  0  0  0  0  0  0
  1  2  1  0
  1 25  1  0
  1 26  1  0
  1 27  1  0
  2 21  1  0
  2  3  1  0
  2 28  1  6
  3  4  1  0
  3 29  1  0
  3 30  1  0
  4  5  1  0
  4 31  1  0
  4 32  1  0
  5 22  1  0
  5  6  1  0
  5 33  1  1
  6  7  1  0
  6  8  1  0
  6 34  1  6
  7 35  1  0
  7 36  1  0
  7 37  1  0
  8  9  1  0
  8 14  1  0
  8 38  1  6
  9 10  1  0
 10 11  1  0
 10 39  1  0
 10 40  1  0
 11 12  2  0
 11 13  1  0
 14 15  1  0
 15 22  1  0
 15 16  1  0
 15 41  1  6
 16 17  1  0
 17 24  1  0
 17 18  1  6
 17 19  1  0
 18 42  1  0
 18 43  1  0
 18 44  1  0
 19 20  1  0
 19 45  1  0
 19 46  1  0
 20 21  1  0
 20 47  1  0
 20 48  1  0
 21 22  1  0
 21 49  1  1
 22 23  1  6
 23 24  1  0
M  CHG  1  13  -1
M  END
>  <i_m_ct_stereo_status>  (66) 
1

>  <s_m_source_file>  (66) 
/var/tmp/pbs.5076255.sched01/tmpu5rzjxe4/0gixxd53k.sdf

>  <i_m_source_file_index>  (66) 
27

>  <i_lp_mmshare_version>  (66) 
48012

>  <i_f3d_flags>  (66) 
0

>  <s_epik_input>  (66) 
W0NAXTEyM1tDQEBIXTRbQ0gyXVtDSDJdW0NAQEhdKFtDSDNdKVtDQEBIXTJbQ0gyXVtDSDJdW0NAQF0oW0NIM10pKE9PMylPW0NAQEhdMU9bQ0BASF0oW0NAQEhdNFtDSDNdKU9bQ0gyXUMoPU8pW09IXQ==

>  <s_epik_cmdline>  (66) 
J2VwaWtfcHl0aG9uJywgJy1waHQnLCAnMi4wJywgJy1waCcsICc3LjAnLCAnLXRuJywgJzgnLCAnLW1hJywgJzIwMCcsICctaW1hZScsICc8aW5maWxlLm1hZT4nLCAnLW9tYWUnLCAnPG91dGZpbGUubWFlPic=

>  <r_epik_Ionization_Penalty>  (66) 
0.00059125

>  <r_epik_Ionization_Penalty_Charging>  (66) 
0.00059125

>  <r_epik_Ionization_Penalty_Neutral>  (66) 
9.69834e-12

>  <r_epik_State_Penalty>  (66) 
0.000372018

>  <r_epik_Charging_Adjusted_Penalty>  (66) 
0.000963268

>  <i_epik_Tot_Q>  (66) 
-1

>  <i_epik_Tot_abs_Q>  (66) 
1

>  <s_epik_Chemistry_Notes>  (66) 
This compound contains an acetal/aminal-like group ( X-CH(R)-Y where X, Y are N, S, or O) that may be acid/base labile, releasing an aldehyde.

>  <s_lp_Force_Field>  (66) 
OPLS3e

>  <r_lp_Energy>  (66) 
66.3675

>  <b_lp_Chiralities_Consistent>  (66) 
1

>  <s_lp_Variant>  (66) 
20:0-1

>  <s_i_glide_gridfile>  (66) 
pfpi4k_grid

>  <i_i_glide_lignum>  (66) 
27

>  <i_i_glide_rotatable_bonds>  (66) 
3

>  <r_i_docking_score>  (66) 
-3.25945

>  <r_i_glide_ligand_efficiency>  (66) 
-0.135811

>  <r_i_glide_ligand_efficiency_sa>  (66) 
-0.391746

>  <r_i_glide_ligand_efficiency_ln>  (66) 
-0.780137

>  <r_i_glide_gscore>  (66) 
-3.25945

>  <r_i_glide_lipo>  (66) 
-0.0986552

>  <r_i_glide_hbond>  (66) 
-0.418757

>  <r_i_glide_metal>  (66) 
-0

>  <r_i_glide_rewards>  (66) 
-1.11547

>  <r_i_glide_evdw>  (66) 
-12.4987

>  <r_i_glide_ecoul>  (66) 
-8.09304

>  <r_i_glide_erotb>  (66) 
0.325203

>  <r_i_glide_esite>  (66) 
-0.112879

>  <r_i_glide_emodel>  (66) 
-24.8329

>  <r_i_glide_energy>  (66) 
-20.5918

>  <r_i_glide_einternal>  (66) 
6.20235

>  <r_i_glide_intrahb_reward>  (66) 
-0

>  <i_i_glide_confnum>  (66) 
2

>  <i_i_glide_posenum>  (66) 
37

>  <r_i_glide_eff_state_penalty>  (66) 
0

>  <ligand_id>  (66) 
20

>  <original_smiles>  (66) 
CC1CCC2C(C)C(OCC(=O)O)OC3OC4(C)CCC1C32OO4

>  <smiles>  (66) 
[H]C([H])(OC1([H])OC2([H])OC3(C([H])([H])[H])OOC24C([H])(C([H])([H])C([H])([H])C([H])(C([H])([H])[H])C4([H])C([H])([H])C3([H])[H])C1([H])C([H])([H])[H])C(=O)[O-]

$$$$
20:0:2
     RDKit          3D

 49 52  0  0  1  0  0  0  0  0999 V2000
    6.4168   -7.9466    2.5864 C   0  0  0  0  0  0  0  0  0  0  0  0
    5.6868   -6.6104    2.3456 C   0  0  2  0  0  0  0  0  0  0  0  0
    6.1926   -5.5714    3.3828 C   0  0  0  0  0  0  0  0  0  0  0  0
    5.4048   -4.2424    3.4112 C   0  0  0  0  0  0  0  0  0  0  0  0
    4.3614   -4.1979    2.2891 C   0  0  2  0  0  0  0  0  0  0  0  0
    3.6962   -2.8474    1.9716 C   0  0  1  0  0  0  0  0  0  0  0  0
    4.6532   -1.6331    1.9856 C   0  0  0  0  0  0  0  0  0  0  0  0
    3.0116   -3.0072    0.5671 C   0  0  1  0  0  0  0  0  0  0  0  0
    3.8140   -2.4867   -0.4527 O   0  0  0  0  0  0  0  0  0  0  0  0
    4.8969   -3.3044   -0.9009 C   0  0  0  0  0  0  0  0  0  0  0  0
    5.6990   -2.5981   -1.9618 C   0  0  0  0  0  0  0  0  0  0  0  0
    5.4150   -2.8045   -3.1561 O   0  0  0  0  0  0  0  0  0  0  0  0
    6.6169   -1.8615   -1.5514 O   0  0  0  0  0  0  0  0  0  0  0  0
    2.6621   -4.3570    0.2929 O   0  0  0  0  0  0  0  0  0  0  0  0
    2.2007   -5.0531    1.4061 C   0  0  1  0  0  0  0  0  0  0  0  0
    1.4011   -6.1402    1.1267 O   0  0  0  0  0  0  0  0  0  0  0  0
    1.2434   -7.0005    2.2428 C   0  0  1  0  0  0  0  0  0  0  0  0
   -0.2070   -7.4871    2.2178 C   0  0  0  0  0  0  0  0  0  0  0  0
    2.1650   -8.2126    2.0298 C   0  0  0  0  0  0  0  0  0  0  0  0
    3.5420   -7.8177    1.5129 C   0  0  0  0  0  0  0  0  0  0  0  0
    4.1349   -6.7401    2.4169 C   0  0  2  0  0  0  0  0  0  0  0  0
    3.3438   -5.3633    2.4273 C   0  0  1  0  0  0  0  0  0  0  0  0
    2.6176   -5.3918    3.6481 O   0  0  0  0  0  0  0  0  0  0  0  0
    1.4090   -6.3656    3.5416 O   0  0  0  0  0  0  0  0  0  0  0  0
    6.0914   -8.3921    3.5263 H   0  0  0  0  0  0  0  0  0  0  0  0
    7.4991   -7.8144    2.6451 H   0  0  0  0  0  0  0  0  0  0  0  0
    6.2350   -8.6744    1.7959 H   0  0  0  0  0  0  0  0  0  0  0  0
    5.9746   -6.2845    1.3437 H   0  0  0  0  0  0  0  0  0  0  0  0
    6.1574   -6.0039    4.3822 H   0  0  0  0  0  0  0  0  0  0  0  0
    7.2449   -5.3710    3.1799 H   0  0  0  0  0  0  0  0  0  0  0  0
    4.9534   -4.0755    4.3959 H   0  0  0  0  0  0  0  0  0  0  0  0
    6.0998   -3.4260    3.2555 H   0  0  0  0  0  0  0  0  0  0  0  0
    4.9181   -4.4151    1.4030 H   0  0  0  0  0  0  0  0  0  0  0  0
    2.9099   -2.6619    2.6976 H   0  0  0  0  0  0  0  0  0  0  0  0
    5.5390   -1.8011    1.3698 H   0  0  0  0  0  0  0  0  0  0  0  0
    5.0184   -1.4003    2.9880 H   0  0  0  0  0  0  0  0  0  0  0  0
    4.1711   -0.7329    1.6043 H   0  0  0  0  0  0  0  0  0  0  0  0
    2.1011   -2.4039    0.5527 H   0  0  0  0  0  0  0  0  0  0  0  0
    5.6060   -3.4923   -0.1166 H   0  0  0  0  0  0  0  0  0  0  0  0
    4.5432   -4.2625   -1.2818 H   0  0  0  0  0  0  0  0  0  0  0  0
    1.4840   -4.3823    1.8964 H   0  0  0  0  0  0  0  0  0  0  0  0
   -0.9016   -6.6576    2.3282 H   0  0  0  0  0  0  0  0  0  0  0  0
   -0.3796   -8.1906    3.0322 H   0  0  0  0  0  0  0  0  0  0  0  0
   -0.4348   -7.9968    1.2803 H   0  0  0  0  0  0  0  0  0  0  0  0
    2.2598   -8.7717    2.9599 H   0  0  0  0  0  0  0  0  0  0  0  0
    1.7458   -8.9044    1.2971 H   0  0  0  0  0  0  0  0  0  0  0  0
    4.1236   -8.7404    1.5009 H   0  0  0  0  0  0  0  0  0  0  0  0
    3.5075   -7.4541    0.4839 H   0  0  0  0  0  0  0  0  0  0  0  0
    4.0110   -7.1390    3.4229 H   0  0  0  0  0  0  0  0  0  0  0  0
  1  2  1  0
  1 25  1  0
  1 26  1  0
  1 27  1  0
  2 21  1  0
  2  3  1  0
  2 28  1  6
  3  4  1  0
  3 29  1  0
  3 30  1  0
  4  5  1  0
  4 31  1  0
  4 32  1  0
  5 22  1  0
  5  6  1  0
  5 33  1  6
  6  7  1  0
  6  8  1  0
  6 34  1  1
  7 35  1  0
  7 36  1  0
  7 37  1  0
  8  9  1  0
  8 14  1  0
  8 38  1  1
  9 10  1  0
 10 11  1  0
 10 39  1  0
 10 40  1  0
 11 12  2  0
 11 13  1  0
 14 15  1  0
 15 22  1  0
 15 16  1  0
 15 41  1  1
 16 17  1  0
 17 24  1  0
 17 18  1  1
 17 19  1  0
 18 42  1  0
 18 43  1  0
 18 44  1  0
 19 20  1  0
 19 45  1  0
 19 46  1  0
 20 21  1  0
 20 47  1  0
 20 48  1  0
 21 22  1  0
 21 49  1  1
 22 23  1  1
 23 24  1  0
M  CHG  1  13  -1
M  END
>  <i_m_ct_stereo_status>  (67) 
1

>  <s_m_source_file>  (67) 
/var/tmp/pbs.5076255.sched01/tmpu5rzjxe4/0gixxd53k.sdf

>  <i_m_source_file_index>  (67) 
27

>  <i_lp_mmshare_version>  (67) 
48012

>  <i_f3d_flags>  (67) 
0

>  <s_epik_input>  (67) 
W0NAXTEyM1tDQEBIXTRbQ0gyXVtDSDJdW0NAQEhdKFtDSDNdKVtDQEBIXTJbQ0gyXVtDSDJdW0NAQF0oW0NIM10pKE9PMylPW0NAQEhdMU9bQ0BASF0oW0NAQEhdNFtDSDNdKU9bQ0gyXUMoPU8pW09IXQ==

>  <s_epik_cmdline>  (67) 
J2VwaWtfcHl0aG9uJywgJy1waHQnLCAnMi4wJywgJy1waCcsICc3LjAnLCAnLXRuJywgJzgnLCAnLW1hJywgJzIwMCcsICctaW1hZScsICc8aW5maWxlLm1hZT4nLCAnLW9tYWUnLCAnPG91dGZpbGUubWFlPic=

>  <r_epik_Ionization_Penalty>  (67) 
0.00059125

>  <r_epik_Ionization_Penalty_Charging>  (67) 
0.00059125

>  <r_epik_Ionization_Penalty_Neutral>  (67) 
9.69834e-12

>  <r_epik_State_Penalty>  (67) 
0.000372018

>  <r_epik_Charging_Adjusted_Penalty>  (67) 
0.000963268

>  <i_epik_Tot_Q>  (67) 
-1

>  <i_epik_Tot_abs_Q>  (67) 
1

>  <s_epik_Chemistry_Notes>  (67) 
This compound contains an acetal/aminal-like group ( X-CH(R)-Y where X, Y are N, S, or O) that may be acid/base labile, releasing an aldehyde.

>  <s_lp_Force_Field>  (67) 
OPLS3e

>  <r_lp_Energy>  (67) 
66.3675

>  <b_lp_Chiralities_Consistent>  (67) 
1

>  <s_lp_Variant>  (67) 
20:0-1

>  <s_i_glide_gridfile>  (67) 
pfpi4k_grid

>  <i_i_glide_lignum>  (67) 
27

>  <i_i_glide_rotatable_bonds>  (67) 
3

>  <r_i_docking_score>  (67) 
-2.81191

>  <r_i_glide_ligand_efficiency>  (67) 
-0.117163

>  <r_i_glide_ligand_efficiency_sa>  (67) 
-0.337956

>  <r_i_glide_ligand_efficiency_ln>  (67) 
-0.673019

>  <r_i_glide_gscore>  (67) 
-2.81191

>  <r_i_glide_lipo>  (67) 
-0.17257

>  <r_i_glide_hbond>  (67) 
-0.318688

>  <r_i_glide_metal>  (67) 
-0

>  <r_i_glide_rewards>  (67) 
-1.08153

>  <r_i_glide_evdw>  (67) 
-15.8601

>  <r_i_glide_ecoul>  (67) 
-4.47825

>  <r_i_glide_erotb>  (67) 
0.325203

>  <r_i_glide_esite>  (67) 
-0.0995856

>  <r_i_glide_emodel>  (67) 
-24.4785

>  <r_i_glide_energy>  (67) 
-20.3384

>  <r_i_glide_einternal>  (67) 
3.8394

>  <r_i_glide_intrahb_reward>  (67) 
-0

>  <i_i_glide_confnum>  (67) 
2

>  <i_i_glide_posenum>  (67) 
12

>  <r_i_glide_eff_state_penalty>  (67) 
0

>  <ligand_id>  (67) 
20

>  <original_smiles>  (67) 
CC1CCC2C(C)C(OCC(=O)O)OC3OC4(C)CCC1C32OO4

>  <smiles>  (67) 
[H]C([H])(OC1([H])OC2([H])OC3(C([H])([H])[H])OOC24C([H])(C([H])([H])C([H])([H])C([H])(C([H])([H])[H])C4([H])C([H])([H])C3([H])[H])C1([H])C([H])([H])[H])C(=O)[O-]

$$$$
22:0:0
     RDKit          3D

 26 27  0  0  1  0  0  0  0  0999 V2000
    3.6958   -0.2252   -4.0438 C   0  0  0  0  0  0  0  0  0  0  0  0
    3.8865   -1.1931   -2.8667 C   0  0  2  0  0  0  0  0  0  0  0  0
    4.9718   -0.7650   -1.8656 C   0  0  0  0  0  0  0  0  0  0  0  0
    5.8289   -2.0058   -1.5369 C   0  0  1  0  0  0  0  0  0  0  0  0
    6.1783   -2.1147   -0.1172 C   0  0  0  0  0  0  0  0  0  0  0  0
    6.4677   -2.2025    1.0082 N   0  0  0  0  0  0  0  0  0  0  0  0
    5.0466   -3.1916   -2.1053 C   0  0  1  0  0  0  0  0  0  0  0  0
    4.2250   -3.8380   -1.0919 N   0  0  0  0  0  0  0  0  0  0  0  0
    3.1017   -3.2970   -0.6324 N   0  0  0  0  0  0  0  0  0  0  0  0
    2.6903   -4.1668    0.3505 N   0  0  0  0  0  0  0  0  0  0  0  0
    3.5926   -5.1995    0.4409 N   0  0  0  0  0  0  0  0  0  0  0  0
    4.6173   -4.9441   -0.4496 N   0  0  0  0  0  0  0  0  0  0  0  0
    4.2722   -2.6122   -3.3095 C   0  0  1  0  0  0  0  0  0  0  0  0
    3.1006   -3.4439   -3.8565 C   0  0  0  0  0  0  0  0  0  0  0  0
    4.5857   -0.1108   -4.6549 H   0  0  0  0  0  0  0  0  0  0  0  0
    3.4314    0.7678   -3.6777 H   0  0  0  0  0  0  0  0  0  0  0  0
    2.8851   -0.5352   -4.7030 H   0  0  0  0  0  0  0  0  0  0  0  0
    2.9379   -1.2435   -2.3283 H   0  0  0  0  0  0  0  0  0  0  0  0
    5.5979    0.0210   -2.2711 H   0  0  0  0  0  0  0  0  0  0  0  0
    4.4979   -0.3672   -0.9708 H   0  0  0  0  0  0  0  0  0  0  0  0
    6.7567   -1.9248   -2.0802 H   0  0  0  0  0  0  0  0  0  0  0  0
    5.7453   -3.9439   -2.4654 H   0  0  0  0  0  0  0  0  0  0  0  0
    5.0015   -2.5012   -4.1114 H   0  0  0  0  0  0  0  0  0  0  0  0
    2.3200   -3.6125   -3.1072 H   0  0  0  0  0  0  0  0  0  0  0  0
    3.4596   -4.4082   -4.2107 H   0  0  0  0  0  0  0  0  0  0  0  0
    2.6318   -2.9799   -4.7266 H   0  0  0  0  0  0  0  0  0  0  0  0
  1  2  1  0
  1 15  1  0
  1 16  1  0
  1 17  1  0
  2 13  1  0
  2  3  1  0
  2 18  1  1
  3  4  1  0
  3 19  1  0
  3 20  1  0
  4  5  1  0
  4  7  1  0
  4 21  1  6
  5  6  3  0
  7  8  1  0
  7 13  1  0
  7 22  1  6
  8 12  1  0
  8  9  1  0
  9 10  2  0
 10 11  1  0
 11 12  2  0
 13 14  1  0
 13 23  1  6
 14 24  1  0
 14 25  1  0
 14 26  1  0
M  END
>  <i_m_ct_stereo_status>  (68) 
1

>  <s_m_source_file>  (68) 
/var/tmp/pbs.5076255.sched01/tmpu5rzjxe4/0gixxd53k.sdf

>  <i_m_source_file_index>  (68) 
30

>  <i_lp_mmshare_version>  (68) 
48012

>  <i_f3d_flags>  (68) 
0

>  <s_epik_input>  (68) 
W0NIM11bQ0BASF0xW0NIMl1bQ0BASF0oQyNOKVtDQEhdKFtDQEhdMVtDSDNdKW4ybm5ubjI=

>  <s_epik_cmdline>  (68) 
J2VwaWtfcHl0aG9uJywgJy1waHQnLCAnMi4wJywgJy1waCcsICc3LjAnLCAnLXRuJywgJzgnLCAnLW1hJywgJzIwMCcsICctaW1hZScsICc8aW5maWxlLm1hZT4nLCAnLW9tYWUnLCAnPG91dGZpbGUubWFlPic=

>  <r_epik_Ionization_Penalty>  (68) 
4.119e-05

>  <r_epik_Ionization_Penalty_Charging>  (68) 
0

>  <r_epik_Ionization_Penalty_Neutral>  (68) 
4.119e-05

>  <r_epik_State_Penalty>  (68) 
0.113039

>  <r_epik_Charging_Adjusted_Penalty>  (68) 
0.113039

>  <i_epik_Tot_Q>  (68) 
0

>  <i_epik_Tot_abs_Q>  (68) 
0

>  <s_lp_Force_Field>  (68) 
OPLS3e

>  <r_lp_Energy>  (68) 
8.97274

>  <b_lp_Chiralities_Consistent>  (68) 
1

>  <s_lp_Variant>  (68) 
22:0-1

>  <s_i_glide_gridfile>  (68) 
pfpi4k_grid

>  <i_i_glide_lignum>  (68) 
30

>  <i_i_glide_rotatable_bonds>  (68) 
2

>  <r_i_docking_score>  (68) 
-3.36767

>  <r_i_glide_ligand_efficiency>  (68) 
-0.240548

>  <r_i_glide_ligand_efficiency_sa>  (68) 
-0.579755

>  <r_i_glide_ligand_efficiency_ln>  (68) 
-0.925425

>  <r_i_glide_gscore>  (68) 
-3.36767

>  <r_i_glide_lipo>  (68) 
-0.624805

>  <r_i_glide_hbond>  (68) 
0

>  <r_i_glide_metal>  (68) 
-0

>  <r_i_glide_rewards>  (68) 
-2.09849

>  <r_i_glide_evdw>  (68) 
-22.5229

>  <r_i_glide_ecoul>  (68) 
0.901777

>  <r_i_glide_erotb>  (68) 
0.436168

>  <r_i_glide_esite>  (68) 
-0.0896628

>  <r_i_glide_emodel>  (68) 
-24.6185

>  <r_i_glide_energy>  (68) 
-21.6212

>  <r_i_glide_einternal>  (68) 
1.86956

>  <r_i_glide_intrahb_reward>  (68) 
-0

>  <i_i_glide_confnum>  (68) 
6

>  <i_i_glide_posenum>  (68) 
27

>  <r_i_glide_eff_state_penalty>  (68) 
0

>  <ligand_id>  (68) 
22

>  <original_smiles>  (68) 
CC1CC(C#N)C(n2nnnn2)C1C

>  <smiles>  (68) 
[H]C([H])([H])C1([H])C([H])([H])C([H])(C#N)C([H])(n2nnnn2)C1([H])C([H])([H])[H]

$$$$
22:0:1
     RDKit          3D

 26 27  0  0  1  0  0  0  0  0999 V2000
    3.7126   -0.3462   -3.6411 C   0  0  0  0  0  0  0  0  0  0  0  0
    3.8213   -1.2551   -2.4011 C   0  0  2  0  0  0  0  0  0  0  0  0
    5.1589   -1.1386   -1.6600 C   0  0  0  0  0  0  0  0  0  0  0  0
    5.6510   -2.5591   -1.3214 C   0  0  1  0  0  0  0  0  0  0  0  0
    6.2535   -2.6869    0.0220 C   0  0  0  0  0  0  0  0  0  0  0  0
    6.7291   -2.7822    1.0762 N   0  0  0  0  0  0  0  0  0  0  0  0
    4.4377   -3.4652   -1.5804 C   0  0  1  0  0  0  0  0  0  0  0  0
    3.6565   -3.6927   -0.3716 N   0  0  0  0  0  0  0  0  0  0  0  0
    3.1958   -2.7150    0.4022 N   0  0  0  0  0  0  0  0  0  0  0  0
    2.6192   -3.3530    1.4682 N   0  0  0  0  0  0  0  0  0  0  0  0
    2.7489   -4.7115    1.2811 N   0  0  0  0  0  0  0  0  0  0  0  0
    3.4353   -4.9177    0.1063 N   0  0  0  0  0  0  0  0  0  0  0  0
    3.6584   -2.7459   -2.7074 C   0  0  1  0  0  0  0  0  0  0  0  0
    2.1829   -3.1503   -2.8672 C   0  0  0  0  0  0  0  0  0  0  0  0
    4.4565   -0.5820   -4.3998 H   0  0  0  0  0  0  0  0  0  0  0  0
    3.8434    0.7019   -3.3752 H   0  0  0  0  0  0  0  0  0  0  0  0
    2.7341   -0.4238   -4.1123 H   0  0  0  0  0  0  0  0  0  0  0  0
    3.0377   -0.9616   -1.6998 H   0  0  0  0  0  0  0  0  0  0  0  0
    5.8689   -0.6444   -2.3020 H   0  0  0  0  0  0  0  0  0  0  0  0
    5.0360   -0.5185   -0.7652 H   0  0  0  0  0  0  0  0  0  0  0  0
    6.4321   -2.8167   -2.0345 H   0  0  0  0  0  0  0  0  0  0  0  0
    4.7811   -4.4339   -1.9437 H   0  0  0  0  0  0  0  0  0  0  0  0
    4.1804   -2.9562   -3.6408 H   0  0  0  0  0  0  0  0  0  0  0  0
    1.5956   -2.9803   -1.9660 H   0  0  0  0  0  0  0  0  0  0  0  0
    2.0947   -4.2070   -3.0999 H   0  0  0  0  0  0  0  0  0  0  0  0
    1.6780   -2.6193   -3.6743 H   0  0  0  0  0  0  0  0  0  0  0  0
  1  2  1  0
  1 15  1  0
  1 16  1  0
  1 17  1  0
  2 13  1  0
  2  3  1  0
  2 18  1  1
  3  4  1  0
  3 19  1  0
  3 20  1  0
  4  5  1  0
  4  7  1  0
  4 21  1  6
  5  6  3  0
  7  8  1  0
  7 13  1  0
  7 22  1  6
  8 12  1  0
  8  9  1  0
  9 10  2  0
 10 11  1  0
 11 12  2  0
 13 14  1  0
 13 23  1  6
 14 24  1  0
 14 25  1  0
 14 26  1  0
M  END
>  <i_m_ct_stereo_status>  (69) 
1

>  <s_m_source_file>  (69) 
/var/tmp/pbs.5076255.sched01/tmpu5rzjxe4/0gixxd53k.sdf

>  <i_m_source_file_index>  (69) 
30

>  <i_lp_mmshare_version>  (69) 
48012

>  <i_f3d_flags>  (69) 
0

>  <s_epik_input>  (69) 
W0NIM11bQ0BASF0xW0NIMl1bQ0BASF0oQyNOKVtDQEhdKFtDQEhdMVtDSDNdKW4ybm5ubjI=

>  <s_epik_cmdline>  (69) 
J2VwaWtfcHl0aG9uJywgJy1waHQnLCAnMi4wJywgJy1waCcsICc3LjAnLCAnLXRuJywgJzgnLCAnLW1hJywgJzIwMCcsICctaW1hZScsICc8aW5maWxlLm1hZT4nLCAnLW9tYWUnLCAnPG91dGZpbGUubWFlPic=

>  <r_epik_Ionization_Penalty>  (69) 
4.119e-05

>  <r_epik_Ionization_Penalty_Charging>  (69) 
0

>  <r_epik_Ionization_Penalty_Neutral>  (69) 
4.119e-05

>  <r_epik_State_Penalty>  (69) 
0.113039

>  <r_epik_Charging_Adjusted_Penalty>  (69) 
0.113039

>  <i_epik_Tot_Q>  (69) 
0

>  <i_epik_Tot_abs_Q>  (69) 
0

>  <s_lp_Force_Field>  (69) 
OPLS3e

>  <r_lp_Energy>  (69) 
8.97274

>  <b_lp_Chiralities_Consistent>  (69) 
1

>  <s_lp_Variant>  (69) 
22:0-1

>  <s_i_glide_gridfile>  (69) 
pfpi4k_grid

>  <i_i_glide_lignum>  (69) 
30

>  <i_i_glide_rotatable_bonds>  (69) 
2

>  <r_i_docking_score>  (69) 
-3.30625

>  <r_i_glide_ligand_efficiency>  (69) 
-0.236161

>  <r_i_glide_ligand_efficiency_sa>  (69) 
-0.569181

>  <r_i_glide_ligand_efficiency_ln>  (69) 
-0.908545

>  <r_i_glide_gscore>  (69) 
-3.30625

>  <r_i_glide_lipo>  (69) 
-0.446813

>  <r_i_glide_hbond>  (69) 
0

>  <r_i_glide_metal>  (69) 
-0

>  <r_i_glide_rewards>  (69) 
-2.14864

>  <r_i_glide_evdw>  (69) 
-20.3739

>  <r_i_glide_ecoul>  (69) 
-0.314349

>  <r_i_glide_erotb>  (69) 
0.436168

>  <r_i_glide_esite>  (69) 
-0.0811199

>  <r_i_glide_emodel>  (69) 
-23.8969

>  <r_i_glide_energy>  (69) 
-20.6882

>  <r_i_glide_einternal>  (69) 
1.47438

>  <r_i_glide_intrahb_reward>  (69) 
-0

>  <i_i_glide_confnum>  (69) 
2

>  <i_i_glide_posenum>  (69) 
26

>  <r_i_glide_eff_state_penalty>  (69) 
0

>  <ligand_id>  (69) 
22

>  <original_smiles>  (69) 
CC1CC(C#N)C(n2nnnn2)C1C

>  <smiles>  (69) 
[H]C([H])([H])C1([H])C([H])([H])C([H])(C#N)C([H])(n2nnnn2)C1([H])C([H])([H])[H]

$$$$
22:0:2
     RDKit          3D

 26 27  0  0  1  0  0  0  0  0999 V2000
    3.6594   -0.5590   -3.8208 C   0  0  0  0  0  0  0  0  0  0  0  0
    3.8142   -1.5345   -2.6343 C   0  0  2  0  0  0  0  0  0  0  0  0
    4.3164   -0.8646   -1.3460 C   0  0  0  0  0  0  0  0  0  0  0  0
    5.3796   -1.7645   -0.7047 C   0  0  1  0  0  0  0  0  0  0  0  0
    5.3077   -1.8804    0.7726 C   0  0  0  0  0  0  0  0  0  0  0  0
    5.2498   -1.9790    1.9334 N   0  0  0  0  0  0  0  0  0  0  0  0
    5.3056   -3.0931   -1.4860 C   0  0  1  0  0  0  0  0  0  0  0  0
    4.4688   -4.0773   -0.7989 N   0  0  0  0  0  0  0  0  0  0  0  0
    3.1961   -3.8660   -0.5123 N   0  0  0  0  0  0  0  0  0  0  0  0
    2.8023   -4.9792    0.1787 N   0  0  0  0  0  0  0  0  0  0  0  0
    3.8909   -5.7895    0.3309 N   0  0  0  0  0  0  0  0  0  0  0  0
    4.9652   -5.1886   -0.2868 N   0  0  0  0  0  0  0  0  0  0  0  0
    4.7908   -2.6860   -2.8943 C   0  0  1  0  0  0  0  0  0  0  0  0
    4.2183   -3.8047   -3.7927 C   0  0  0  0  0  0  0  0  0  0  0  0
    4.5962   -0.0913   -4.0941 H   0  0  0  0  0  0  0  0  0  0  0  0
    2.9383    0.2150   -3.5696 H   0  0  0  0  0  0  0  0  0  0  0  0
    3.2474   -1.0485   -4.7060 H   0  0  0  0  0  0  0  0  0  0  0  0
    2.8306   -1.9496   -2.4132 H   0  0  0  0  0  0  0  0  0  0  0  0
    4.7045    0.1247   -1.5592 H   0  0  0  0  0  0  0  0  0  0  0  0
    3.4722   -0.7305   -0.6619 H   0  0  0  0  0  0  0  0  0  0  0  0
    6.3488   -1.3108   -0.9018 H   0  0  0  0  0  0  0  0  0  0  0  0
    6.3019   -3.5209   -1.5774 H   0  0  0  0  0  0  0  0  0  0  0  0
    5.6697   -2.2906   -3.4176 H   0  0  0  0  0  0  0  0  0  0  0  0
    3.3257   -4.2286   -3.3668 H   0  0  0  0  0  0  0  0  0  0  0  0
    4.9325   -4.6171   -3.9422 H   0  0  0  0  0  0  0  0  0  0  0  0
    3.9291   -3.4512   -4.7694 H   0  0  0  0  0  0  0  0  0  0  0  0
  1  2  1  0
  1 15  1  0
  1 16  1  0
  1 17  1  0
  2 13  1  0
  2  3  1  0
  2 18  1  1
  3  4  1  0
  3 19  1  0
  3 20  1  0
  4  5  1  0
  4  7  1  0
  4 21  1  1
  5  6  3  0
  7  8  1  0
  7 13  1  0
  7 22  1  6
  8 12  1  0
  8  9  1  0
  9 10  2  0
 10 11  1  0
 11 12  2  0
 13 14  1  0
 13 23  1  6
 14 24  1  0
 14 25  1  0
 14 26  1  0
M  END
>  <i_m_ct_stereo_status>  (70) 
1

>  <s_m_source_file>  (70) 
/var/tmp/pbs.5076255.sched01/tmpu5rzjxe4/0gixxd53k.sdf

>  <i_m_source_file_index>  (70) 
30

>  <i_lp_mmshare_version>  (70) 
48012

>  <i_f3d_flags>  (70) 
0

>  <s_epik_input>  (70) 
W0NIM11bQ0BASF0xW0NIMl1bQ0BASF0oQyNOKVtDQEhdKFtDQEhdMVtDSDNdKW4ybm5ubjI=

>  <s_epik_cmdline>  (70) 
J2VwaWtfcHl0aG9uJywgJy1waHQnLCAnMi4wJywgJy1waCcsICc3LjAnLCAnLXRuJywgJzgnLCAnLW1hJywgJzIwMCcsICctaW1hZScsICc8aW5maWxlLm1hZT4nLCAnLW9tYWUnLCAnPG91dGZpbGUubWFlPic=

>  <r_epik_Ionization_Penalty>  (70) 
4.119e-05

>  <r_epik_Ionization_Penalty_Charging>  (70) 
0

>  <r_epik_Ionization_Penalty_Neutral>  (70) 
4.119e-05

>  <r_epik_State_Penalty>  (70) 
0.113039

>  <r_epik_Charging_Adjusted_Penalty>  (70) 
0.113039

>  <i_epik_Tot_Q>  (70) 
0

>  <i_epik_Tot_abs_Q>  (70) 
0

>  <s_lp_Force_Field>  (70) 
OPLS3e

>  <r_lp_Energy>  (70) 
8.97274

>  <b_lp_Chiralities_Consistent>  (70) 
1

>  <s_lp_Variant>  (70) 
22:0-1

>  <s_i_glide_gridfile>  (70) 
pfpi4k_grid

>  <i_i_glide_lignum>  (70) 
30

>  <i_i_glide_rotatable_bonds>  (70) 
2

>  <r_i_docking_score>  (70) 
-3.19797

>  <r_i_glide_ligand_efficiency>  (70) 
-0.228426

>  <r_i_glide_ligand_efficiency_sa>  (70) 
-0.55054

>  <r_i_glide_ligand_efficiency_ln>  (70) 
-0.87879

>  <r_i_glide_gscore>  (70) 
-3.19797

>  <r_i_glide_lipo>  (70) 
-0.43198

>  <r_i_glide_hbond>  (70) 
0

>  <r_i_glide_metal>  (70) 
-0

>  <r_i_glide_rewards>  (70) 
-2.18552

>  <r_i_glide_evdw>  (70) 
-19.9421

>  <r_i_glide_ecoul>  (70) 
0.380244

>  <r_i_glide_erotb>  (70) 
0.436168

>  <r_i_glide_esite>  (70) 
-0.0765643

>  <r_i_glide_emodel>  (70) 
-22.7348

>  <r_i_glide_energy>  (70) 
-19.5618

>  <r_i_glide_einternal>  (70) 
1.30695

>  <r_i_glide_intrahb_reward>  (70) 
-0

>  <i_i_glide_confnum>  (70) 
6

>  <i_i_glide_posenum>  (70) 
30

>  <r_i_glide_eff_state_penalty>  (70) 
0

>  <ligand_id>  (70) 
22

>  <original_smiles>  (70) 
CC1CC(C#N)C(n2nnnn2)C1C

>  <smiles>  (70) 
[H]C([H])([H])C1([H])C([H])([H])C([H])(C#N)C([H])(n2nnnn2)C1([H])C([H])([H])[H]

$$$$
22:1:0
     RDKit          3D

 27 28  0  0  1  0  0  0  0  0999 V2000
    3.6562   -0.2056   -4.0754 C   0  0  0  0  0  0  0  0  0  0  0  0
    3.8595   -1.2005   -2.9195 C   0  0  2  0  0  0  0  0  0  0  0  0
    4.9354   -0.7683   -1.9074 C   0  0  0  0  0  0  0  0  0  0  0  0
    5.8135   -1.9893   -1.5944 C   0  0  1  0  0  0  0  0  0  0  0  0
    6.1524   -2.1401   -0.1674 C   0  0  0  0  0  0  0  0  0  0  0  0
    6.4067   -2.2693    0.9530 N   0  0  0  0  0  0  0  0  0  0  0  0
    5.0700   -3.1876   -2.1892 C   0  0  1  0  0  0  0  0  0  0  0  0
    4.2377   -3.8331   -1.1673 N   0  0  0  0  0  0  0  0  0  0  0  0
    3.0964   -3.3189   -0.6728 N   0  0  0  0  0  0  0  0  0  0  0  0
    2.7003   -4.2517    0.2493 N   0  0  0  0  0  0  0  0  0  0  0  0
    3.6004   -5.2013    0.2904 N   0  0  0  0  0  0  0  0  0  0  0  0
    4.5836   -4.9530   -0.5318 N   0  0  0  0  0  0  0  0  0  0  0  0
    4.2807   -2.5938   -3.3828 C   0  0  1  0  0  0  0  0  0  0  0  0
    3.1202   -3.4457   -3.9381 C   0  0  0  0  0  0  0  0  0  0  0  0
    4.5491   -0.0825   -4.6837 H   0  0  0  0  0  0  0  0  0  0  0  0
    3.4133    0.7770   -3.6711 H   0  0  0  0  0  0  0  0  0  0  0  0
    2.8404   -0.5132   -4.7255 H   0  0  0  0  0  0  0  0  0  0  0  0
    2.9148   -1.2604   -2.3801 H   0  0  0  0  0  0  0  0  0  0  0  0
    5.5346    0.0481   -2.3065 H   0  0  0  0  0  0  0  0  0  0  0  0
    4.4581   -0.3824   -1.0086 H   0  0  0  0  0  0  0  0  0  0  0  0
    6.7623   -1.8643   -2.1253 H   0  0  0  0  0  0  0  0  0  0  0  0
    5.7723   -3.9104   -2.5573 H   0  0  0  0  0  0  0  0  0  0  0  0
    5.0008   -2.4485   -4.1987 H   0  0  0  0  0  0  0  0  0  0  0  0
    2.3179   -3.6390   -3.2239 H   0  0  0  0  0  0  0  0  0  0  0  0
    3.4988   -4.4082   -4.2972 H   0  0  0  0  0  0  0  0  0  0  0  0
    2.6314   -2.9746   -4.7845 H   0  0  0  0  0  0  0  0  0  0  0  0
    3.5635   -6.0391    0.8834 H   0  0  0  0  0  0  0  0  0  0  0  0
  1  2  1  0
  1 15  1  0
  1 16  1  0
  1 17  1  0
  2 13  1  0
  2  3  1  0
  2 18  1  1
  3  4  1  0
  3 19  1  0
  3 20  1  0
  4  5  1  0
  4  7  1  0
  4 21  1  6
  5  6  3  0
  7  8  1  0
  7 13  1  0
  7 22  1  6
  8 12  1  0
  8  9  1  0
  9 10  2  0
 10 11  1  0
 11 12  2  0
 11 27  1  0
 13 14  1  0
 13 23  1  6
 14 24  1  0
 14 25  1  0
 14 26  1  0
M  CHG  1  11   1
M  END
>  <i_m_ct_stereo_status>  (71) 
1

>  <s_m_source_file>  (71) 
/var/tmp/pbs.5076255.sched01/tmpu5rzjxe4/0gixxd53k.sdf

>  <i_m_source_file_index>  (71) 
31

>  <i_lp_mmshare_version>  (71) 
48012

>  <i_f3d_flags>  (71) 
0

>  <s_epik_input>  (71) 
W0NIM11bQ0BASF0xW0NIMl1bQ0BASF0oQyNOKVtDQEhdKFtDQEhdMVtDSDNdKW4ybm5ubjI=

>  <s_epik_cmdline>  (71) 
J2VwaWtfcHl0aG9uJywgJy1waHQnLCAnMi4wJywgJy1waCcsICc3LjAnLCAnLXRuJywgJzgnLCAnLW1hJywgJzIwMCcsICctaW1hZScsICc8aW5maWxlLm1hZT4nLCAnLW9tYWUnLCAnPG91dGZpbGUubWFlPic=

>  <r_epik_Ionization_Penalty>  (71) 
0.989546

>  <r_epik_Ionization_Penalty_Charging>  (71) 
0.989546

>  <r_epik_Ionization_Penalty_Neutral>  (71) 
1.10055e-08

>  <r_epik_State_Penalty>  (71) 
1.03713

>  <r_epik_Charging_Adjusted_Penalty>  (71) 
2.02668

>  <i_epik_Tot_Q>  (71) 
1

>  <i_epik_Tot_abs_Q>  (71) 
1

>  <s_lp_Force_Field>  (71) 
OPLS3e

>  <r_lp_Energy>  (71) 
13.7466

>  <b_lp_Chiralities_Consistent>  (71) 
1

>  <s_lp_Variant>  (71) 
22:0-2

>  <s_i_glide_gridfile>  (71) 
pfpi4k_grid

>  <i_i_glide_lignum>  (71) 
31

>  <i_i_glide_rotatable_bonds>  (71) 
2

>  <r_i_docking_score>  (71) 
-3.72972

>  <r_i_glide_ligand_efficiency>  (71) 
-0.266408

>  <r_i_glide_ligand_efficiency_sa>  (71) 
-0.642082

>  <r_i_glide_ligand_efficiency_ln>  (71) 
-1.02491

>  <r_i_glide_gscore>  (71) 
-3.72972

>  <r_i_glide_lipo>  (71) 
-0.60899

>  <r_i_glide_hbond>  (71) 
0

>  <r_i_glide_metal>  (71) 
-0

>  <r_i_glide_rewards>  (71) 
-2.09162

>  <r_i_glide_evdw>  (71) 
-20.942

>  <r_i_glide_ecoul>  (71) 
-2.23105

>  <r_i_glide_erotb>  (71) 
0.432401

>  <r_i_glide_esite>  (71) 
-0.0797542

>  <r_i_glide_emodel>  (71) 
-29.0182

>  <r_i_glide_energy>  (71) 
-23.173

>  <r_i_glide_einternal>  (71) 
1.8666

>  <r_i_glide_intrahb_reward>  (71) 
-0

>  <i_i_glide_confnum>  (71) 
5

>  <i_i_glide_posenum>  (71) 
25

>  <r_i_glide_eff_state_penalty>  (71) 
0

>  <ligand_id>  (71) 
22

>  <original_smiles>  (71) 
CC1CC(C#N)C(n2nnnn2)C1C

>  <smiles>  (71) 
[H][n+]1nnn(C2([H])C([H])(C#N)C([H])([H])C([H])(C([H])([H])[H])C2([H])C([H])([H])[H])n1

$$$$
22:1:1
     RDKit          3D

 27 28  0  0  1  0  0  0  0  0999 V2000
    3.4592   -0.5815   -3.9921 C   0  0  0  0  0  0  0  0  0  0  0  0
    3.6609   -1.5251   -2.7962 C   0  0  2  0  0  0  0  0  0  0  0  0
    4.2123   -0.8520   -1.5406 C   0  0  0  0  0  0  0  0  0  0  0  0
    5.3090   -1.7438   -0.9396 C   0  0  1  0  0  0  0  0  0  0  0  0
    5.2690   -1.8330    0.5444 C   0  0  0  0  0  0  0  0  0  0  0  0
    5.2395   -1.9265    1.6885 N   0  0  0  0  0  0  0  0  0  0  0  0
    5.1328   -3.0979   -1.6542 C   0  0  1  0  0  0  0  0  0  0  0  0
    4.2769   -3.9924   -0.8897 N   0  0  0  0  0  0  0  0  0  0  0  0
    2.9928   -3.7570   -0.5652 N   0  0  0  0  0  0  0  0  0  0  0  0
    2.6433   -4.8486    0.2152 N   0  0  0  0  0  0  0  0  0  0  0  0
    3.6980   -5.6196    0.3394 N   0  0  0  0  0  0  0  0  0  0  0  0
    4.6999   -5.1047   -0.3164 N   0  0  0  0  0  0  0  0  0  0  0  0
    4.6037   -2.6936   -3.0613 C   0  0  1  0  0  0  0  0  0  0  0  0
    3.9541   -3.8327   -3.8988 C   0  0  0  0  0  0  0  0  0  0  0  0
    4.3896   -0.1375   -4.3317 H   0  0  0  0  0  0  0  0  0  0  0  0
    2.7790    0.2364   -3.7334 H   0  0  0  0  0  0  0  0  0  0  0  0
    3.0110   -1.0914   -4.8417 H   0  0  0  0  0  0  0  0  0  0  0  0
    2.6711   -1.8980   -2.5349 H   0  0  0  0  0  0  0  0  0  0  0  0
    4.6148    0.1328   -1.7852 H   0  0  0  0  0  0  0  0  0  0  0  0
    3.4118   -0.6904   -0.8297 H   0  0  0  0  0  0  0  0  0  0  0  0
    6.2745   -1.3069   -1.1956 H   0  0  0  0  0  0  0  0  0  0  0  0
    6.1058   -3.5689   -1.7704 H   0  0  0  0  0  0  0  0  0  0  0  0
    5.4352   -2.2975   -3.6241 H   0  0  0  0  0  0  0  0  0  0  0  0
    3.0509   -4.1845   -3.4176 H   0  0  0  0  0  0  0  0  0  0  0  0
    4.6249   -4.6685   -4.0653 H   0  0  0  0  0  0  0  0  0  0  0  0
    3.6004   -3.4365   -4.8526 H   0  0  0  0  0  0  0  0  0  0  0  0
    3.7193   -6.5204    0.8265 H   0  0  0  0  0  0  0  0  0  0  0  0
  1  2  1  0
  1 15  1  0
  1 16  1  0
  1 17  1  0
  2 13  1  0
  2  3  1  0
  2 18  1  1
  3  4  1  0
  3 19  1  0
  3 20  1  0
  4  5  1  0
  4  7  1  0
  4 21  1  1
  5  6  3  0
  7  8  1  0
  7 13  1  0
  7 22  1  6
  8 12  1  0
  8  9  1  0
  9 10  2  0
 10 11  1  0
 11 12  2  0
 11 27  1  0
 13 14  1  0
 13 23  1  6
 14 24  1  0
 14 25  1  0
 14 26  1  0
M  CHG  1  11   1
M  END
>  <i_m_ct_stereo_status>  (72) 
1

>  <s_m_source_file>  (72) 
/var/tmp/pbs.5076255.sched01/tmpu5rzjxe4/0gixxd53k.sdf

>  <i_m_source_file_index>  (72) 
31

>  <i_lp_mmshare_version>  (72) 
48012

>  <i_f3d_flags>  (72) 
0

>  <s_epik_input>  (72) 
W0NIM11bQ0BASF0xW0NIMl1bQ0BASF0oQyNOKVtDQEhdKFtDQEhdMVtDSDNdKW4ybm5ubjI=

>  <s_epik_cmdline>  (72) 
J2VwaWtfcHl0aG9uJywgJy1waHQnLCAnMi4wJywgJy1waCcsICc3LjAnLCAnLXRuJywgJzgnLCAnLW1hJywgJzIwMCcsICctaW1hZScsICc8aW5maWxlLm1hZT4nLCAnLW9tYWUnLCAnPG91dGZpbGUubWFlPic=

>  <r_epik_Ionization_Penalty>  (72) 
0.989546

>  <r_epik_Ionization_Penalty_Charging>  (72) 
0.989546

>  <r_epik_Ionization_Penalty_Neutral>  (72) 
1.10055e-08

>  <r_epik_State_Penalty>  (72) 
1.03713

>  <r_epik_Charging_Adjusted_Penalty>  (72) 
2.02668

>  <i_epik_Tot_Q>  (72) 
1

>  <i_epik_Tot_abs_Q>  (72) 
1

>  <s_lp_Force_Field>  (72) 
OPLS3e

>  <r_lp_Energy>  (72) 
13.7466

>  <b_lp_Chiralities_Consistent>  (72) 
1

>  <s_lp_Variant>  (72) 
22:0-2

>  <s_i_glide_gridfile>  (72) 
pfpi4k_grid

>  <i_i_glide_lignum>  (72) 
31

>  <i_i_glide_rotatable_bonds>  (72) 
2

>  <r_i_docking_score>  (72) 
-3.5956

>  <r_i_glide_ligand_efficiency>  (72) 
-0.256829

>  <r_i_glide_ligand_efficiency_sa>  (72) 
-0.618994

>  <r_i_glide_ligand_efficiency_ln>  (72) 
-0.988059

>  <r_i_glide_gscore>  (72) 
-3.5956

>  <r_i_glide_lipo>  (72) 
-0.420641

>  <r_i_glide_hbond>  (72) 
0

>  <r_i_glide_metal>  (72) 
-0

>  <r_i_glide_rewards>  (72) 
-2.16884

>  <r_i_glide_evdw>  (72) 
-19.5344

>  <r_i_glide_ecoul>  (72) 
-2.55507

>  <r_i_glide_erotb>  (72) 
0.432401

>  <r_i_glide_esite>  (72) 
-0.0785403

>  <r_i_glide_emodel>  (72) 
-27.9336

>  <r_i_glide_energy>  (72) 
-22.0895

>  <r_i_glide_einternal>  (72) 
1.44221

>  <r_i_glide_intrahb_reward>  (72) 
-0

>  <i_i_glide_confnum>  (72) 
2

>  <i_i_glide_posenum>  (72) 
15

>  <r_i_glide_eff_state_penalty>  (72) 
0

>  <ligand_id>  (72) 
22

>  <original_smiles>  (72) 
CC1CC(C#N)C(n2nnnn2)C1C

>  <smiles>  (72) 
[H][n+]1nnn(C2([H])C([H])(C#N)C([H])([H])C([H])(C([H])([H])[H])C2([H])C([H])([H])[H])n1

$$$$
22:1:2
     RDKit          3D

 27 28  0  0  1  0  0  0  0  0999 V2000
    3.1926   -0.6746   -4.0181 C   0  0  0  0  0  0  0  0  0  0  0  0
    3.4087   -1.3316   -2.6409 C   0  0  2  0  0  0  0  0  0  0  0  0
    4.7790   -1.0292   -2.0251 C   0  0  0  0  0  0  0  0  0  0  0  0
    5.3785   -2.3387   -1.4786 C   0  0  1  0  0  0  0  0  0  0  0  0
    6.0640   -2.1720   -0.1777 C   0  0  0  0  0  0  0  0  0  0  0  0
    6.5884   -2.0346    0.8462 N   0  0  0  0  0  0  0  0  0  0  0  0
    4.1849   -3.3248   -1.4523 C   0  0  1  0  0  0  0  0  0  0  0  0
    3.4884   -3.3198   -0.1561 N   0  0  0  0  0  0  0  0  0  0  0  0
    3.0749   -2.2192    0.4959 N   0  0  0  0  0  0  0  0  0  0  0  0
    2.5632   -2.7207    1.6804 N   0  0  0  0  0  0  0  0  0  0  0  0
    2.6796   -4.0232    1.6683 N   0  0  0  0  0  0  0  0  0  0  0  0
    3.2419   -4.4067    0.5553 N   0  0  0  0  0  0  0  0  0  0  0  0
    3.2828   -2.8585   -2.6259 C   0  0  1  0  0  0  0  0  0  0  0  0
    1.8227   -3.3126   -2.5361 C   0  0  0  0  0  0  0  0  0  0  0  0
    3.9121   -1.0121   -4.7656 H   0  0  0  0  0  0  0  0  0  0  0  0
    3.2290    0.4190   -3.9489 H   0  0  0  0  0  0  0  0  0  0  0  0
    2.2249   -0.9369   -4.4245 H   0  0  0  0  0  0  0  0  0  0  0  0
    2.6481   -0.9319   -1.9645 H   0  0  0  0  0  0  0  0  0  0  0  0
    5.4116   -0.6252   -2.7813 H   0  0  0  0  0  0  0  0  0  0  0  0
    4.6584   -0.2587   -1.2612 H   0  0  0  0  0  0  0  0  0  0  0  0
    6.1177   -2.6865   -2.2093 H   0  0  0  0  0  0  0  0  0  0  0  0
    4.5438   -4.3350   -1.6588 H   0  0  0  0  0  0  0  0  0  0  0  0
    3.7180   -3.2348   -3.5620 H   0  0  0  0  0  0  0  0  0  0  0  0
    1.2712   -3.0331   -1.6309 H   0  0  0  0  0  0  0  0  0  0  0  0
    1.7754   -4.3862   -2.5416 H   0  0  0  0  0  0  0  0  0  0  0  0
    1.2266   -2.9880   -3.3994 H   0  0  0  0  0  0  0  0  0  0  0  0
    2.3951   -4.6545    2.4082 H   0  0  0  0  0  0  0  0  0  0  0  0
  1  2  1  0
  1 15  1  0
  1 16  1  0
  1 17  1  0
  2 13  1  0
  2  3  1  0
  2 18  1  1
  3  4  1  0
  3 19  1  0
  3 20  1  0
  4  5  1  0
  4  7  1  0
  4 21  1  6
  5  6  3  0
  7  8  1  0
  7 13  1  0
  7 22  1  6
  8 12  1  0
  8  9  1  0
  9 10  2  0
 10 11  1  0
 11 12  2  0
 11 27  1  0
 13 14  1  0
 13 23  1  6
 14 24  1  0
 14 25  1  0
 14 26  1  0
M  CHG  1  11   1
M  END
>  <i_m_ct_stereo_status>  (73) 
1

>  <s_m_source_file>  (73) 
/var/tmp/pbs.5076255.sched01/tmpu5rzjxe4/0gixxd53k.sdf

>  <i_m_source_file_index>  (73) 
31

>  <i_lp_mmshare_version>  (73) 
48012

>  <i_f3d_flags>  (73) 
0

>  <s_epik_input>  (73) 
W0NIM11bQ0BASF0xW0NIMl1bQ0BASF0oQyNOKVtDQEhdKFtDQEhdMVtDSDNdKW4ybm5ubjI=

>  <s_epik_cmdline>  (73) 
J2VwaWtfcHl0aG9uJywgJy1waHQnLCAnMi4wJywgJy1waCcsICc3LjAnLCAnLXRuJywgJzgnLCAnLW1hJywgJzIwMCcsICctaW1hZScsICc8aW5maWxlLm1hZT4nLCAnLW9tYWUnLCAnPG91dGZpbGUubWFlPic=

>  <r_epik_Ionization_Penalty>  (73) 
0.989546

>  <r_epik_Ionization_Penalty_Charging>  (73) 
0.989546

>  <r_epik_Ionization_Penalty_Neutral>  (73) 
1.10055e-08

>  <r_epik_State_Penalty>  (73) 
1.03713

>  <r_epik_Charging_Adjusted_Penalty>  (73) 
2.02668

>  <i_epik_Tot_Q>  (73) 
1

>  <i_epik_Tot_abs_Q>  (73) 
1

>  <s_lp_Force_Field>  (73) 
OPLS3e

>  <r_lp_Energy>  (73) 
13.7466

>  <b_lp_Chiralities_Consistent>  (73) 
1

>  <s_lp_Variant>  (73) 
22:0-2

>  <s_i_glide_gridfile>  (73) 
pfpi4k_grid

>  <i_i_glide_lignum>  (73) 
31

>  <i_i_glide_rotatable_bonds>  (73) 
2

>  <r_i_docking_score>  (73) 
-3.51008

>  <r_i_glide_ligand_efficiency>  (73) 
-0.25072

>  <r_i_glide_ligand_efficiency_sa>  (73) 
-0.604271

>  <r_i_glide_ligand_efficiency_ln>  (73) 
-0.964558

>  <r_i_glide_gscore>  (73) 
-3.51008

>  <r_i_glide_lipo>  (73) 
-0.396725

>  <r_i_glide_hbond>  (73) 
0

>  <r_i_glide_metal>  (73) 
-0

>  <r_i_glide_rewards>  (73) 
-2.12436

>  <r_i_glide_evdw>  (73) 
-16.8152

>  <r_i_glide_ecoul>  (73) 
-3.25117

>  <r_i_glide_erotb>  (73) 
0.432401

>  <r_i_glide_esite>  (73) 
-0.0929621

>  <r_i_glide_emodel>  (73) 
-25.5937

>  <r_i_glide_energy>  (73) 
-20.0663

>  <r_i_glide_einternal>  (73) 
1.6187

>  <r_i_glide_intrahb_reward>  (73) 
-0

>  <i_i_glide_confnum>  (73) 
2

>  <i_i_glide_posenum>  (73) 
28

>  <r_i_glide_eff_state_penalty>  (73) 
0

>  <ligand_id>  (73) 
22

>  <original_smiles>  (73) 
CC1CC(C#N)C(n2nnnn2)C1C

>  <smiles>  (73) 
[H][n+]1nnn(C2([H])C([H])(C#N)C([H])([H])C([H])(C([H])([H])[H])C2([H])C([H])([H])[H])n1

$$$$
23:0:0
     RDKit          3D

 65 72  0  0  1  0  0  0  0  0999 V2000
    4.5688   -4.7406   -0.9603 C   0  0  0  0  0  0  0  0  0  0  0  0
    4.6877   -5.8417   -0.0688 O   0  0  0  0  0  0  0  0  0  0  0  0
    4.2160   -5.8120    1.3067 C   0  0  1  0  0  0  0  0  0  0  0  0
    4.1630   -4.3031    1.8146 C   0  0  2  0  0  0  0  0  0  0  0  0
    5.4472   -3.6125    2.0947 N   0  0  0  0  0  0  0  0  0  0  0  0
    5.7755   -2.4119    1.3246 C   0  0  0  0  0  0  0  0  0  0  0  0
    5.6542   -1.1858    2.2214 C   0  0  0  0  0  0  0  0  0  0  0  0
    4.6734   -1.6464    3.2676 C   0  0  0  0  0  0  0  0  0  0  0  0
    4.9778   -3.1149    3.3811 C   0  0  1  0  0  0  0  0  0  0  0  0
    3.7183   -3.9120    3.2527 C   0  0  1  0  0  0  0  0  0  0  0  0
    2.4212   -3.9466    3.9944 C   0  0  0  0  0  0  0  0  0  0  0  0
    3.5130   -4.7383    4.3625 O   0  0  0  0  0  0  0  0  0  0  0  0
    2.7008   -6.4818    1.2612 C   0  0  0  0  0  0  0  0  0  0  0  0
    1.8087   -5.7327    0.8371 O   0  0  0  0  0  0  0  0  0  0  0  0
    2.2952   -7.9083    1.8416 C   0  0  0  0  0  0  0  0  0  0  0  0
    1.0682   -7.9925    2.6896 C   0  0  0  0  0  0  0  0  0  0  0  0
    1.1333   -8.1367    4.1020 C   0  0  0  0  0  0  0  0  0  0  0  0
   -0.0383   -8.2726    4.8679 C   0  0  0  0  0  0  0  0  0  0  0  0
   -1.2972   -8.2420    4.2492 C   0  0  0  0  0  0  0  0  0  0  0  0
   -1.3877   -8.0672    2.8453 C   0  0  0  0  0  0  0  0  0  0  0  0
   -0.2049   -7.9412    2.0746 C   0  0  0  0  0  0  0  0  0  0  0  0
    3.2167   -8.9469    1.8271 C   0  0  0  0  0  0  0  0  0  0  0  0
    3.6819   -9.9651    3.0265 C   0  0  0  0  0  0  0  0  0  0  0  0
    5.2483   -9.8604    3.7206 C   0  0  2  0  0  0  0  0  0  0  0  0
    5.3407  -10.9861    4.7724 C   0  0  0  0  0  0  0  0  0  0  0  0
    5.9667   -8.4887    4.3968 C   0  0  0  0  0  0  0  0  0  0  0  0
    5.7732   -7.0487    3.6181 C   0  0  2  0  0  0  0  0  0  0  0  0
    4.4851   -7.3839    3.3593 C   0  0  0  0  0  0  0  0  0  0  0  0
    5.1895   -8.0259    1.9573 C   0  0  2  0  0  0  0  0  0  0  0  0
    4.3540   -8.7351    0.9212 C   0  0  0  0  0  0  0  0  0  0  0  0
    6.3700   -8.8950    1.8947 O   0  0  0  0  0  0  0  0  0  0  0  0
    6.2963  -10.0270    2.6263 C   0  0  0  0  0  0  0  0  0  0  0  0
    7.0157  -11.0142    2.4960 O   0  0  0  0  0  0  0  0  0  0  0  0
    5.5030   -6.6227    2.0008 C   0  0  1  0  0  0  0  0  0  0  0  0
    4.9568   -4.9942   -1.9502 H   0  0  0  0  0  0  0  0  0  0  0  0
    5.2318   -3.9389   -0.6595 H   0  0  0  0  0  0  0  0  0  0  0  0
    3.5551   -4.3492   -1.0769 H   0  0  0  0  0  0  0  0  0  0  0  0
    3.5461   -3.6968    1.1719 H   0  0  0  0  0  0  0  0  0  0  0  0
    6.7931   -2.4945    0.9369 H   0  0  0  0  0  0  0  0  0  0  0  0
    5.1023   -2.2595    0.4965 H   0  0  0  0  0  0  0  0  0  0  0  0
    6.6093   -0.9633    2.6821 H   0  0  0  0  0  0  0  0  0  0  0  0
    5.3133   -0.3042    1.6687 H   0  0  0  0  0  0  0  0  0  0  0  0
    4.7378   -1.1136    4.2109 H   0  0  0  0  0  0  0  0  0  0  0  0
    3.6601   -1.5203    2.8748 H   0  0  0  0  0  0  0  0  0  0  0  0
    5.7002   -3.4341    4.1525 H   0  0  0  0  0  0  0  0  0  0  0  0
    2.1157   -3.1517    4.6998 H   0  0  0  0  0  0  0  0  0  0  0  0
    1.6183   -4.4407    3.4624 H   0  0  0  0  0  0  0  0  0  0  0  0
    2.0461   -8.1623    4.6615 H   0  0  0  0  0  0  0  0  0  0  0  0
    0.0608   -8.4237    5.9293 H   0  0  0  0  0  0  0  0  0  0  0  0
   -2.1870   -8.3752    4.8487 H   0  0  0  0  0  0  0  0  0  0  0  0
   -2.3551   -8.0646    2.3667 H   0  0  0  0  0  0  0  0  0  0  0  0
   -0.2792   -7.8434    0.9959 H   0  0  0  0  0  0  0  0  0  0  0  0
    2.9629   -9.9452    3.8421 H   0  0  0  0  0  0  0  0  0  0  0  0
    3.5512  -10.9654    2.6196 H   0  0  0  0  0  0  0  0  0  0  0  0
    4.7636  -10.7370    5.6699 H   0  0  0  0  0  0  0  0  0  0  0  0
    6.3730  -11.1520    5.0843 H   0  0  0  0  0  0  0  0  0  0  0  0
    4.9453  -11.9242    4.3780 H   0  0  0  0  0  0  0  0  0  0  0  0
    5.5255   -8.3671    5.3949 H   0  0  0  0  0  0  0  0  0  0  0  0
    7.0233   -8.6750    4.6615 H   0  0  0  0  0  0  0  0  0  0  0  0
    5.8611   -6.1780    4.2501 H   0  0  0  0  0  0  0  0  0  0  0  0
    3.9372   -7.9216    4.1318 H   0  0  0  0  0  0  0  0  0  0  0  0
    3.7510   -6.6165    3.4366 H   0  0  0  0  0  0  0  0  0  0  0  0
    4.7098   -9.7034    0.5739 H   0  0  0  0  0  0  0  0  0  0  0  0
    4.1672   -8.1618    0.0141 H   0  0  0  0  0  0  0  0  0  0  0  0
    6.4507   -6.3942    1.5110 H   0  0  0  0  0  0  0  0  0  0  0  0
  1  2  1  0
  1 35  1  0
  1 36  1  0
  1 37  1  0
  3  2  1  6
  3 34  1  0
  3  4  1  0
  3 13  1  0
  4 10  1  0
  4  5  1  0
  4 38  1  6
  5  9  1  0
  5  6  1  0
  6  7  1  0
  6 39  1  0
  6 40  1  0
  7  8  1  0
  7 41  1  0
  7 42  1  0
  8  9  1  0
  8 43  1  0
  8 44  1  0
  9 10  1  0
  9 45  1  1
 10 12  1  1
 10 11  1  0
 11 12  1  0
 11 46  1  0
 11 47  1  0
 13 14  2  0
 13 15  1  0
 15 16  1  0
 15 22  2  0
 16 21  1  0
 16 17  2  0
 17 18  1  0
 17 48  1  0
 18 19  2  0
 18 49  1  0
 19 20  1  0
 19 50  1  0
 20 21  2  0
 20 51  1  0
 21 52  1  0
 22 30  1  0
 22 23  1  0
 23 24  1  0
 23 53  1  0
 23 54  1  0
 24 32  1  0
 24 25  1  1
 24 26  1  0
 25 55  1  0
 25 56  1  0
 25 57  1  0
 26 27  1  0
 26 58  1  0
 26 59  1  0
 27 34  1  0
 27 28  1  0
 27 60  1  1
 29 28  1  1
 28 61  1  0
 28 62  1  0
 29 30  1  0
 29 31  1  0
 29 34  1  0
 30 63  1  0
 30 64  1  0
 31 32  1  0
 32 33  2  0
 34 65  1  6
M  END
>  <i_m_ct_stereo_status>  (74) 
1

>  <s_m_source_file>  (74) 
/var/tmp/pbs.5076255.sched01/tmpu5rzjxe4/0gixxd53k.sdf

>  <i_m_source_file_index>  (74) 
32

>  <i_lp_mmshare_version>  (74) 
48012

>  <i_f3d_flags>  (74) 
0

>  <s_epik_input>  (74) 
TzFbQ0gyXVtDQEBdMTJbQ0BIXTNOKFtDSDJdW0NIMl1bQ0gyXTMpW0NASF0yW0NAXTQoT1tDSDNdKUMoPU8pQyhjNVtjSF1bY0hdW2NIXVtjSF1bY0hdNSk9QyhbQ0gyXTYpW0NIMl1bQ0BAXShbQ0gzXSkoQyhPNyk9TylbQ0gyXVtDQEhdKFtDSDJdOClbQ0BASF00W0NAQF02Nzg=

>  <s_epik_cmdline>  (74) 
J2VwaWtfcHl0aG9uJywgJy1waHQnLCAnMi4wJywgJy1waCcsICc3LjAnLCAnLXRuJywgJzgnLCAnLW1hJywgJzIwMCcsICctaW1hZScsICc8aW5maWxlLm1hZT4nLCAnLW9tYWUnLCAnPG91dGZpbGUubWFlPic=

>  <r_epik_Ionization_Penalty>  (74) 
0.106654

>  <r_epik_Ionization_Penalty_Charging>  (74) 
0

>  <r_epik_Ionization_Penalty_Neutral>  (74) 
0.106654

>  <r_epik_State_Penalty>  (74) 
0.0964964

>  <r_epik_Charging_Adjusted_Penalty>  (74) 
0.0964964

>  <i_epik_Tot_Q>  (74) 
0

>  <i_epik_Tot_abs_Q>  (74) 
0

>  <s_epik_Chemistry_Notes>  (74) 
This compound has an ester and may undergo hydrolysis at high or low pH.

>  <s_lp_Force_Field>  (74) 
OPLS3e

>  <r_lp_Energy>  (74) 
331.296

>  <b_lp_Chiralities_Consistent>  (74) 
1

>  <s_lp_Variant>  (74) 
23:0-1

>  <s_i_glide_gridfile>  (74) 
pfpi4k_grid

>  <i_i_glide_lignum>  (74) 
32

>  <i_i_glide_rotatable_bonds>  (74) 
3

>  <r_i_docking_score>  (74) 
-2.56724

>  <r_i_glide_ligand_efficiency>  (74) 
-0.0755069

>  <r_i_glide_ligand_efficiency_sa>  (74) 
-0.244613

>  <r_i_glide_ligand_efficiency_ln>  (74) 
-0.567174

>  <r_i_glide_gscore>  (74) 
-2.56724

>  <r_i_glide_lipo>  (74) 
-0.440275

>  <r_i_glide_hbond>  (74) 
-0.08348

>  <r_i_glide_metal>  (74) 
-0

>  <r_i_glide_rewards>  (74) 
-0.262163

>  <r_i_glide_evdw>  (74) 
-29.292

>  <r_i_glide_ecoul>  (74) 
-3.25352

>  <r_i_glide_erotb>  (74) 
0.189056

>  <r_i_glide_esite>  (74) 
-0.0177433

>  <r_i_glide_emodel>  (74) 
-28.8081

>  <r_i_glide_energy>  (74) 
-32.5456

>  <r_i_glide_einternal>  (74) 
12.6417

>  <r_i_glide_intrahb_reward>  (74) 
-0

>  <i_i_glide_confnum>  (74) 
4

>  <i_i_glide_posenum>  (74) 
37

>  <r_i_glide_eff_state_penalty>  (74) 
0

>  <ligand_id>  (74) 
23

>  <original_smiles>  (74) 
COC1(C2N3CCCC3C23CO3)C(=O)C(c2ccccc2)=C2CC3(C)CC4CC(C2)(OC3=O)C41

>  <smiles>  (74) 
[H]c1c([H])c([H])c(C2=C3C([H])([H])C45OC(=O)C(C([H])([H])[H])(C3([H])[H])C([H])([H])C([H])(C4([H])[H])C5([H])C(OC([H])([H])[H])(C3([H])N4C([H])([H])C([H])([H])C([H])([H])C4([H])C34OC4([H])[H])C2=O)c([H])c1[H]

$$$$
23:0:1
     RDKit          3D

 65 72  0  0  1  0  0  0  0  0999 V2000
    4.7944   -9.6019    5.0233 C   0  0  0  0  0  0  0  0  0  0  0  0
    4.5435   -8.1917    5.0357 O   0  0  0  0  0  0  0  0  0  0  0  0
    3.6760   -7.5457    4.0921 C   0  0  1  0  0  0  0  0  0  0  0  0
    2.3520   -8.4045    3.9175 C   0  0  2  0  0  0  0  0  0  0  0  0
    2.4198   -9.6720    3.1394 N   0  0  0  0  0  0  0  0  0  0  0  0
    2.1409  -10.9424    3.8015 C   0  0  0  0  0  0  0  0  0  0  0  0
    0.7981  -11.4864    3.3320 C   0  0  0  0  0  0  0  0  0  0  0  0
    0.0927  -10.2278    2.8857 C   0  0  0  0  0  0  0  0  0  0  0  0
    1.2191   -9.3595    2.3771 C   0  0  1  0  0  0  0  0  0  0  0  0
    1.1766   -8.0414    3.0182 C   0  0  1  0  0  0  0  0  0  0  0  0
    0.1053   -6.9308    3.0833 C   0  0  0  0  0  0  0  0  0  0  0  0
    1.0979   -6.9729    2.0510 O   0  0  0  0  0  0  0  0  0  0  0  0
    3.3300   -6.1264    4.8850 C   0  0  0  0  0  0  0  0  0  0  0  0
    2.5469   -6.2480    5.8156 O   0  0  0  0  0  0  0  0  0  0  0  0
    3.8062   -4.6641    4.4441 C   0  0  0  0  0  0  0  0  0  0  0  0
    2.7827   -3.5665    4.4584 C   0  0  0  0  0  0  0  0  0  0  0  0
    2.1559   -3.1134    3.2687 C   0  0  0  0  0  0  0  0  0  0  0  0
    1.2326   -2.0552    3.2951 C   0  0  0  0  0  0  0  0  0  0  0  0
    0.9014   -1.4434    4.5113 C   0  0  0  0  0  0  0  0  0  0  0  0
    1.5018   -1.8883    5.7054 C   0  0  0  0  0  0  0  0  0  0  0  0
    2.4433   -2.9488    5.6835 C   0  0  0  0  0  0  0  0  0  0  0  0
    5.0030   -4.4978    3.7679 C   0  0  0  0  0  0  0  0  0  0  0  0
    5.3112   -3.6870    2.3821 C   0  0  0  0  0  0  0  0  0  0  0  0
    5.7264   -4.5128    0.9349 C   0  0  2  0  0  0  0  0  0  0  0  0
    6.0165   -3.4440   -0.1284 C   0  0  0  0  0  0  0  0  0  0  0  0
    4.8372   -5.7331    0.1851 C   0  0  0  0  0  0  0  0  0  0  0  0
    4.1643   -6.9032    1.1475 C   0  0  2  0  0  0  0  0  0  0  0  0
    3.8303   -5.9291    2.0305 C   0  0  0  0  0  0  0  0  0  0  0  0
    5.3622   -6.3452    2.6652 C   0  0  2  0  0  0  0  0  0  0  0  0
    5.9042   -5.6432    3.8838 C   0  0  0  0  0  0  0  0  0  0  0  0
    6.5966   -6.4759    1.9135 O   0  0  0  0  0  0  0  0  0  0  0  0
    6.9488   -5.3933    1.2020 C   0  0  0  0  0  0  0  0  0  0  0  0
    8.0653   -5.1689    0.7529 O   0  0  0  0  0  0  0  0  0  0  0  0
    4.5473   -7.5376    2.6728 C   0  0  1  0  0  0  0  0  0  0  0  0
    5.5896   -9.9133    5.7075 H   0  0  0  0  0  0  0  0  0  0  0  0
    5.0152  -10.0256    4.0406 H   0  0  0  0  0  0  0  0  0  0  0  0
    3.9249  -10.0951    5.4453 H   0  0  0  0  0  0  0  0  0  0  0  0
    1.9267   -8.6229    4.8961 H   0  0  0  0  0  0  0  0  0  0  0  0
    2.9249  -11.6681    3.5905 H   0  0  0  0  0  0  0  0  0  0  0  0
    2.0673  -10.8448    4.8811 H   0  0  0  0  0  0  0  0  0  0  0  0
    0.9460  -12.1433    2.4816 H   0  0  0  0  0  0  0  0  0  0  0  0
    0.2668  -12.0329    4.1138 H   0  0  0  0  0  0  0  0  0  0  0  0
   -0.6863  -10.3840    2.1426 H   0  0  0  0  0  0  0  0  0  0  0  0
   -0.3628   -9.7573    3.7704 H   0  0  0  0  0  0  0  0  0  0  0  0
    1.4760   -9.4264    1.3118 H   0  0  0  0  0  0  0  0  0  0  0  0
   -0.9138   -7.1079    2.7580 H   0  0  0  0  0  0  0  0  0  0  0  0
    0.3040   -6.2169    3.8450 H   0  0  0  0  0  0  0  0  0  0  0  0
    2.3368   -3.5309    2.2898 H   0  0  0  0  0  0  0  0  0  0  0  0
    0.7979   -1.7299    2.3543 H   0  0  0  0  0  0  0  0  0  0  0  0
    0.1805   -0.6248    4.5122 H   0  0  0  0  0  0  0  0  0  0  0  0
    1.2518   -1.4139    6.6448 H   0  0  0  0  0  0  0  0  0  0  0  0
    2.9169   -3.2799    6.6081 H   0  0  0  0  0  0  0  0  0  0  0  0
    4.4864   -3.0277    2.1488 H   0  0  0  0  0  0  0  0  0  0  0  0
    6.1029   -2.9877    2.6164 H   0  0  0  0  0  0  0  0  0  0  0  0
    5.0950   -2.9891   -0.4880 H   0  0  0  0  0  0  0  0  0  0  0  0
    6.5240   -3.8693   -0.9942 H   0  0  0  0  0  0  0  0  0  0  0  0
    6.6463   -2.6478    0.2714 H   0  0  0  0  0  0  0  0  0  0  0  0
    4.0087   -5.2399   -0.3401 H   0  0  0  0  0  0  0  0  0  0  0  0
    5.3828   -6.1833   -0.6536 H   0  0  0  0  0  0  0  0  0  0  0  0
    3.3036   -7.3848    0.7150 H   0  0  0  0  0  0  0  0  0  0  0  0
    3.5141   -4.9783    1.6503 H   0  0  0  0  0  0  0  0  0  0  0  0
    2.8720   -6.0017    2.5323 H   0  0  0  0  0  0  0  0  0  0  0  0
    6.9378   -5.2886    3.8125 H   0  0  0  0  0  0  0  0  0  0  0  0
    5.8679   -6.1865    4.8366 H   0  0  0  0  0  0  0  0  0  0  0  0
    5.1559   -8.4368    2.5111 H   0  0  0  0  0  0  0  0  0  0  0  0
  1  2  1  0
  1 35  1  0
  1 36  1  0
  1 37  1  0
  3  2  1  1
  3 34  1  0
  3  4  1  0
  3 13  1  0
  4 10  1  0
  4  5  1  0
  4 38  1  1
  5  9  1  0
  5  6  1  0
  6  7  1  0
  6 39  1  0
  6 40  1  0
  7  8  1  0
  7 41  1  0
  7 42  1  0
  8  9  1  0
  8 43  1  0
  8 44  1  0
  9 10  1  0
  9 45  1  6
 10 12  1  6
 10 11  1  0
 11 12  1  0
 11 46  1  0
 11 47  1  0
 13 14  2  0
 13 15  1  0
 15 16  1  0
 15 22  2  0
 16 21  1  0
 16 17  2  0
 17 18  1  0
 17 48  1  0
 18 19  2  0
 18 49  1  0
 19 20  1  0
 19 50  1  0
 20 21  2  0
 20 51  1  0
 21 52  1  0
 22 30  1  0
 22 23  1  0
 23 24  1  0
 23 53  1  0
 23 54  1  0
 24 32  1  0
 24 25  1  6
 24 26  1  0
 25 55  1  0
 25 56  1  0
 25 57  1  0
 26 27  1  0
 26 58  1  0
 26 59  1  0
 27 34  1  0
 27 28  1  0
 27 60  1  6
 29 28  1  6
 28 61  1  0
 28 62  1  0
 29 30  1  0
 29 31  1  0
 29 34  1  0
 30 63  1  0
 30 64  1  0
 31 32  1  0
 32 33  2  0
 34 65  1  6
M  END
>  <i_m_ct_stereo_status>  (75) 
1

>  <s_m_source_file>  (75) 
/var/tmp/pbs.5076255.sched01/tmpu5rzjxe4/0gixxd53k.sdf

>  <i_m_source_file_index>  (75) 
32

>  <i_lp_mmshare_version>  (75) 
48012

>  <i_f3d_flags>  (75) 
0

>  <s_epik_input>  (75) 
TzFbQ0gyXVtDQEBdMTJbQ0BIXTNOKFtDSDJdW0NIMl1bQ0gyXTMpW0NASF0yW0NAXTQoT1tDSDNdKUMoPU8pQyhjNVtjSF1bY0hdW2NIXVtjSF1bY0hdNSk9QyhbQ0gyXTYpW0NIMl1bQ0BAXShbQ0gzXSkoQyhPNyk9TylbQ0gyXVtDQEhdKFtDSDJdOClbQ0BASF00W0NAQF02Nzg=

>  <s_epik_cmdline>  (75) 
J2VwaWtfcHl0aG9uJywgJy1waHQnLCAnMi4wJywgJy1waCcsICc3LjAnLCAnLXRuJywgJzgnLCAnLW1hJywgJzIwMCcsICctaW1hZScsICc8aW5maWxlLm1hZT4nLCAnLW9tYWUnLCAnPG91dGZpbGUubWFlPic=

>  <r_epik_Ionization_Penalty>  (75) 
0.106654

>  <r_epik_Ionization_Penalty_Charging>  (75) 
0

>  <r_epik_Ionization_Penalty_Neutral>  (75) 
0.106654

>  <r_epik_State_Penalty>  (75) 
0.0964964

>  <r_epik_Charging_Adjusted_Penalty>  (75) 
0.0964964

>  <i_epik_Tot_Q>  (75) 
0

>  <i_epik_Tot_abs_Q>  (75) 
0

>  <s_epik_Chemistry_Notes>  (75) 
This compound has an ester and may undergo hydrolysis at high or low pH.

>  <s_lp_Force_Field>  (75) 
OPLS3e

>  <r_lp_Energy>  (75) 
331.296

>  <b_lp_Chiralities_Consistent>  (75) 
1

>  <s_lp_Variant>  (75) 
23:0-1

>  <s_i_glide_gridfile>  (75) 
pfpi4k_grid

>  <i_i_glide_lignum>  (75) 
32

>  <i_i_glide_rotatable_bonds>  (75) 
3

>  <r_i_docking_score>  (75) 
-2.39632

>  <r_i_glide_ligand_efficiency>  (75) 
-0.07048

>  <r_i_glide_ligand_efficiency_sa>  (75) 
-0.228328

>  <r_i_glide_ligand_efficiency_ln>  (75) 
-0.529414

>  <r_i_glide_gscore>  (75) 
-2.39632

>  <r_i_glide_lipo>  (75) 
-0.681627

>  <r_i_glide_hbond>  (75) 
0

>  <r_i_glide_metal>  (75) 
-0

>  <r_i_glide_rewards>  (75) 
-0.396293

>  <r_i_glide_evdw>  (75) 
-23.9827

>  <r_i_glide_ecoul>  (75) 
-2.05546

>  <r_i_glide_erotb>  (75) 
0.189056

>  <r_i_glide_esite>  (75) 
0

>  <r_i_glide_emodel>  (75) 
-21.5856

>  <r_i_glide_energy>  (75) 
-26.0382

>  <r_i_glide_einternal>  (75) 
12.3689

>  <r_i_glide_intrahb_reward>  (75) 
-0

>  <i_i_glide_confnum>  (75) 
4

>  <i_i_glide_posenum>  (75) 
2

>  <r_i_glide_eff_state_penalty>  (75) 
0

>  <ligand_id>  (75) 
23

>  <original_smiles>  (75) 
COC1(C2N3CCCC3C23CO3)C(=O)C(c2ccccc2)=C2CC3(C)CC4CC(C2)(OC3=O)C41

>  <smiles>  (75) 
[H]c1c([H])c([H])c(C2=C3C([H])([H])C45OC(=O)C(C([H])([H])[H])(C3([H])[H])C([H])([H])C([H])(C4([H])[H])C5([H])C(OC([H])([H])[H])(C3([H])N4C([H])([H])C([H])([H])C([H])([H])C4([H])C34OC4([H])[H])C2=O)c([H])c1[H]

$$$$
23:0:2
     RDKit          3D

 65 72  0  0  1  0  0  0  0  0999 V2000
    5.6271   -7.2343    1.9658 C   0  0  0  0  0  0  0  0  0  0  0  0
    5.5398   -5.8168    2.1142 O   0  0  0  0  0  0  0  0  0  0  0  0
    4.2959   -5.1139    1.9401 C   0  0  1  0  0  0  0  0  0  0  0  0
    3.2002   -5.9216    2.7659 C   0  0  2  0  0  0  0  0  0  0  0  0
    2.3664   -6.8688    1.9936 N   0  0  0  0  0  0  0  0  0  0  0  0
    2.4384   -8.2902    2.3332 C   0  0  0  0  0  0  0  0  0  0  0  0
    1.1487   -8.7058    3.0367 C   0  0  0  0  0  0  0  0  0  0  0  0
    0.6436   -7.4026    3.6029 C   0  0  0  0  0  0  0  0  0  0  0  0
    1.1336   -6.3752    2.6027 C   0  0  1  0  0  0  0  0  0  0  0  0
    1.8980   -5.2872    3.2884 C   0  0  1  0  0  0  0  0  0  0  0  0
    1.5532   -4.3412    4.3894 C   0  0  0  0  0  0  0  0  0  0  0  0
    1.4468   -3.9810    3.0232 O   0  0  0  0  0  0  0  0  0  0  0  0
    4.6283   -3.6776    2.6803 C   0  0  0  0  0  0  0  0  0  0  0  0
    4.8258   -3.7791    3.8940 O   0  0  0  0  0  0  0  0  0  0  0  0
    4.7121   -2.2525    2.0106 C   0  0  0  0  0  0  0  0  0  0  0  0
    4.0309   -1.0929    2.6506 C   0  0  0  0  0  0  0  0  0  0  0  0
    2.7913   -0.5866    2.1879 C   0  0  0  0  0  0  0  0  0  0  0  0
    2.1866    0.5216    2.7878 C   0  0  0  0  0  0  0  0  0  0  0  0
    2.7917    1.1400    3.8937 C   0  0  0  0  0  0  0  0  0  0  0  0
    4.0153    0.6406    4.3859 C   0  0  0  0  0  0  0  0  0  0  0  0
    4.6372   -0.4653    3.7691 C   0  0  0  0  0  0  0  0  0  0  0  0
    5.1580   -2.1609    0.6924 C   0  0  0  0  0  0  0  0  0  0  0  0
    4.5240   -1.3698   -0.5705 C   0  0  0  0  0  0  0  0  0  0  0  0
    3.8352   -2.2260   -1.8856 C   0  0  2  0  0  0  0  0  0  0  0  0
    3.3855   -1.1764   -2.9080 C   0  0  0  0  0  0  0  0  0  0  0  0
    2.6275   -3.3900   -1.8120 C   0  0  0  0  0  0  0  0  0  0  0  0
    2.7124   -4.5080   -0.6117 C   0  0  2  0  0  0  0  0  0  0  0  0
    3.0657   -3.5331    0.2681 C   0  0  0  0  0  0  0  0  0  0  0  0
    4.6306   -4.0175   -0.2502 C   0  0  2  0  0  0  0  0  0  0  0  0
    5.8865   -3.3446    0.2306 C   0  0  0  0  0  0  0  0  0  0  0  0
    5.0223   -4.2171   -1.6169 O   0  0  0  0  0  0  0  0  0  0  0  0
    4.8689   -3.1798   -2.4465 C   0  0  0  0  0  0  0  0  0  0  0  0
    5.4246   -3.0393   -3.5103 O   0  0  0  0  0  0  0  0  0  0  0  0
    3.9856   -5.1722    0.2825 C   0  0  1  0  0  0  0  0  0  0  0  0
    6.6648   -7.5645    1.9523 H   0  0  0  0  0  0  0  0  0  0  0  0
    5.1458   -7.6251    1.0694 H   0  0  0  0  0  0  0  0  0  0  0  0
    5.2042   -7.7219    2.8368 H   0  0  0  0  0  0  0  0  0  0  0  0
    3.6558   -6.4103    3.6382 H   0  0  0  0  0  0  0  0  0  0  0  0
    2.5791   -8.8893    1.4345 H   0  0  0  0  0  0  0  0  0  0  0  0
    3.2714   -8.5005    2.9973 H   0  0  0  0  0  0  0  0  0  0  0  0
    0.4371   -9.0800    2.3046 H   0  0  0  0  0  0  0  0  0  0  0  0
    1.3069   -9.4766    3.7945 H   0  0  0  0  0  0  0  0  0  0  0  0
   -0.4271   -7.3773    3.7784 H   0  0  0  0  0  0  0  0  0  0  0  0
    1.1454   -7.2293    4.5566 H   0  0  0  0  0  0  0  0  0  0  0  0
    0.4625   -6.0909    1.7788 H   0  0  0  0  0  0  0  0  0  0  0  0
    0.5925   -4.3897    4.9190 H   0  0  0  0  0  0  0  0  0  0  0  0
    2.3680   -3.8611    4.9278 H   0  0  0  0  0  0  0  0  0  0  0  0
    2.2446   -1.0076    1.3562 H   0  0  0  0  0  0  0  0  0  0  0  0
    1.2527    0.8771    2.3722 H   0  0  0  0  0  0  0  0  0  0  0  0
    2.3022    1.9989    4.3473 H   0  0  0  0  0  0  0  0  0  0  0  0
    4.4799    1.1297    5.2440 H   0  0  0  0  0  0  0  0  0  0  0  0
    5.5917   -0.8276    4.1502 H   0  0  0  0  0  0  0  0  0  0  0  0
    3.7910   -0.6363   -0.2313 H   0  0  0  0  0  0  0  0  0  0  0  0
    5.3257   -0.7420   -0.9678 H   0  0  0  0  0  0  0  0  0  0  0  0
    2.4854   -0.6588   -2.5634 H   0  0  0  0  0  0  0  0  0  0  0  0
    3.1445   -1.6322   -3.8726 H   0  0  0  0  0  0  0  0  0  0  0  0
    4.1503   -0.4107   -3.0654 H   0  0  0  0  0  0  0  0  0  0  0  0
    1.6777   -2.8703   -1.6977 H   0  0  0  0  0  0  0  0  0  0  0  0
    2.4678   -3.8514   -2.7945 H   0  0  0  0  0  0  0  0  0  0  0  0
    1.7737   -4.9528   -0.3358 H   0  0  0  0  0  0  0  0  0  0  0  0
    2.6305   -2.5490    0.1586 H   0  0  0  0  0  0  0  0  0  0  0  0
    2.5906   -3.7291    1.2028 H   0  0  0  0  0  0  0  0  0  0  0  0
    6.6147   -3.0428   -0.5392 H   0  0  0  0  0  0  0  0  0  0  0  0
    6.4831   -3.8892    0.9586 H   0  0  0  0  0  0  0  0  0  0  0  0
    4.3135   -6.0810   -0.2192 H   0  0  0  0  0  0  0  0  0  0  0  0
  1  2  1  0
  1 35  1  0
  1 36  1  0
  1 37  1  0
  3  2  1  6
  3 34  1  0
  3  4  1  0
  3 13  1  0
  4 10  1  0
  4  5  1  0
  4 38  1  1
  5  9  1  0
  5  6  1  0
  6  7  1  0
  6 39  1  0
  6 40  1  0
  7  8  1  0
  7 41  1  0
  7 42  1  0
  8  9  1  0
  8 43  1  0
  8 44  1  0
  9 10  1  0
  9 45  1  6
 10 12  1  6
 10 11  1  0
 11 12  1  0
 11 46  1  0
 11 47  1  0
 13 14  2  0
 13 15  1  0
 15 16  1  0
 15 22  2  0
 16 21  1  0
 16 17  2  0
 17 18  1  0
 17 48  1  0
 18 19  2  0
 18 49  1  0
 19 20  1  0
 19 50  1  0
 20 21  2  0
 20 51  1  0
 21 52  1  0
 22 30  1  0
 22 23  1  0
 23 24  1  0
 23 53  1  0
 23 54  1  0
 24 32  1  0
 24 25  1  6
 24 26  1  0
 25 55  1  0
 25 56  1  0
 25 57  1  0
 26 27  1  0
 26 58  1  0
 26 59  1  0
 27 34  1  0
 27 28  1  0
 27 60  1  1
 29 28  1  6
 28 61  1  0
 28 62  1  0
 29 30  1  0
 29 31  1  0
 29 34  1  0
 30 63  1  0
 30 64  1  0
 31 32  1  0
 32 33  2  0
 34 65  1  6
M  END
>  <i_m_ct_stereo_status>  (76) 
1

>  <s_m_source_file>  (76) 
/var/tmp/pbs.5076255.sched01/tmpu5rzjxe4/0gixxd53k.sdf

>  <i_m_source_file_index>  (76) 
32

>  <i_lp_mmshare_version>  (76) 
48012

>  <i_f3d_flags>  (76) 
0

>  <s_epik_input>  (76) 
TzFbQ0gyXVtDQEBdMTJbQ0BIXTNOKFtDSDJdW0NIMl1bQ0gyXTMpW0NASF0yW0NAXTQoT1tDSDNdKUMoPU8pQyhjNVtjSF1bY0hdW2NIXVtjSF1bY0hdNSk9QyhbQ0gyXTYpW0NIMl1bQ0BAXShbQ0gzXSkoQyhPNyk9TylbQ0gyXVtDQEhdKFtDSDJdOClbQ0BASF00W0NAQF02Nzg=

>  <s_epik_cmdline>  (76) 
J2VwaWtfcHl0aG9uJywgJy1waHQnLCAnMi4wJywgJy1waCcsICc3LjAnLCAnLXRuJywgJzgnLCAnLW1hJywgJzIwMCcsICctaW1hZScsICc8aW5maWxlLm1hZT4nLCAnLW9tYWUnLCAnPG91dGZpbGUubWFlPic=

>  <r_epik_Ionization_Penalty>  (76) 
0.106654

>  <r_epik_Ionization_Penalty_Charging>  (76) 
0

>  <r_epik_Ionization_Penalty_Neutral>  (76) 
0.106654

>  <r_epik_State_Penalty>  (76) 
0.0964964

>  <r_epik_Charging_Adjusted_Penalty>  (76) 
0.0964964

>  <i_epik_Tot_Q>  (76) 
0

>  <i_epik_Tot_abs_Q>  (76) 
0

>  <s_epik_Chemistry_Notes>  (76) 
This compound has an ester and may undergo hydrolysis at high or low pH.

>  <s_lp_Force_Field>  (76) 
OPLS3e

>  <r_lp_Energy>  (76) 
331.296

>  <b_lp_Chiralities_Consistent>  (76) 
1

>  <s_lp_Variant>  (76) 
23:0-1

>  <s_i_glide_gridfile>  (76) 
pfpi4k_grid

>  <i_i_glide_lignum>  (76) 
32

>  <i_i_glide_rotatable_bonds>  (76) 
3

>  <r_i_docking_score>  (76) 
-2.21617

>  <r_i_glide_ligand_efficiency>  (76) 
-0.0651814

>  <r_i_glide_ligand_efficiency_sa>  (76) 
-0.211162

>  <r_i_glide_ligand_efficiency_ln>  (76) 
-0.489613

>  <r_i_glide_gscore>  (76) 
-2.21617

>  <r_i_glide_lipo>  (76) 
-0.45131

>  <r_i_glide_hbond>  (76) 
0

>  <r_i_glide_metal>  (76) 
-0

>  <r_i_glide_rewards>  (76) 
-0.448365

>  <r_i_glide_evdw>  (76) 
-29.7832

>  <r_i_glide_ecoul>  (76) 
-0.109232

>  <r_i_glide_erotb>  (76) 
0.189056

>  <r_i_glide_esite>  (76) 
0

>  <r_i_glide_emodel>  (76) 
-26.0825

>  <r_i_glide_energy>  (76) 
-29.8925

>  <r_i_glide_einternal>  (76) 
13.6

>  <r_i_glide_intrahb_reward>  (76) 
-0

>  <i_i_glide_confnum>  (76) 
4

>  <i_i_glide_posenum>  (76) 
16

>  <r_i_glide_eff_state_penalty>  (76) 
0

>  <ligand_id>  (76) 
23

>  <original_smiles>  (76) 
COC1(C2N3CCCC3C23CO3)C(=O)C(c2ccccc2)=C2CC3(C)CC4CC(C2)(OC3=O)C41

>  <smiles>  (76) 
[H]c1c([H])c([H])c(C2=C3C([H])([H])C45OC(=O)C(C([H])([H])[H])(C3([H])[H])C([H])([H])C([H])(C4([H])[H])C5([H])C(OC([H])([H])[H])(C3([H])N4C([H])([H])C([H])([H])C([H])([H])C4([H])C34OC4([H])[H])C2=O)c([H])c1[H]

$$$$
23:1:0
     RDKit          3D

 66 73  0  0  1  0  0  0  0  0999 V2000
    4.6228   -3.7874   -1.2072 C   0  0  0  0  0  0  0  0  0  0  0  0
    5.2657   -4.1788    0.0174 O   0  0  0  0  0  0  0  0  0  0  0  0
    4.5767   -4.2265    1.2907 C   0  0  1  0  0  0  0  0  0  0  0  0
    4.3006   -2.7424    1.7954 C   0  0  2  0  0  0  0  0  0  0  0  0
    2.9556   -2.1682    1.5181 N   0  0  1  0  0  0  0  0  0  0  0  0
    2.1489   -1.6589    2.6415 C   0  0  0  0  0  0  0  0  0  0  0  0
    1.8505   -0.1910    2.3143 C   0  0  0  0  0  0  0  0  0  0  0  0
    3.0884    0.2356    1.5254 C   0  0  0  0  0  0  0  0  0  0  0  0
    3.4840   -1.0215    0.7583 C   0  0  1  0  0  0  0  0  0  0  0  0
    4.8395   -1.5397    1.0588 C   0  0  1  0  0  0  0  0  0  0  0  0
    6.1638   -0.8140    1.1691 C   0  0  0  0  0  0  0  0  0  0  0  0
    5.8427   -1.5827    0.0183 O   0  0  0  0  0  0  0  0  0  0  0  0
    3.1882   -5.1360    1.0833 C   0  0  0  0  0  0  0  0  0  0  0  0
    2.2608   -4.6062    0.4605 O   0  0  0  0  0  0  0  0  0  0  0  0
    2.9095   -6.5547    1.6843 C   0  0  0  0  0  0  0  0  0  0  0  0
    1.6082   -6.8318    2.2997 C   0  0  0  0  0  0  0  0  0  0  0  0
    1.3100   -6.4487    3.6280 C   0  0  0  0  0  0  0  0  0  0  0  0
    0.0563   -6.7276    4.1849 C   0  0  0  0  0  0  0  0  0  0  0  0
   -0.9336   -7.3650    3.4192 C   0  0  0  0  0  0  0  0  0  0  0  0
   -0.6530   -7.7238    2.0770 C   0  0  0  0  0  0  0  0  0  0  0  0
    0.6041   -7.4515    1.5269 C   0  0  0  0  0  0  0  0  0  0  0  0
    3.9608   -7.4335    1.8744 C   0  0  0  0  0  0  0  0  0  0  0  0
    4.3168   -8.3201    3.1805 C   0  0  0  0  0  0  0  0  0  0  0  0
    5.7056   -7.9931    4.1118 C   0  0  2  0  0  0  0  0  0  0  0  0
    5.7924   -9.0832    5.2133 C   0  0  0  0  0  0  0  0  0  0  0  0
    6.0980   -6.5299    4.8135 C   0  0  0  0  0  0  0  0  0  0  0  0
    5.8681   -5.1498    3.9449 C   0  0  2  0  0  0  0  0  0  0  0  0
    4.6503   -5.5864    3.5262 C   0  0  0  0  0  0  0  0  0  0  0  0
    5.6803   -6.2175    2.2767 C   0  0  2  0  0  0  0  0  0  0  0  0
    5.1764   -7.0882    1.1531 C   0  0  0  0  0  0  0  0  0  0  0  0
    6.9577   -6.9091    2.4655 O   0  0  0  0  0  0  0  0  0  0  0  0
    6.9365   -8.0263    3.2238 C   0  0  0  0  0  0  0  0  0  0  0  0
    7.7992   -8.9064    3.2640 O   0  0  0  0  0  0  0  0  0  0  0  0
    5.8118   -4.8036    2.2639 C   0  0  1  0  0  0  0  0  0  0  0  0
    5.4081   -3.7215   -1.9656 H   0  0  0  0  0  0  0  0  0  0  0  0
    4.1678   -2.8015   -1.1510 H   0  0  0  0  0  0  0  0  0  0  0  0
    3.8707   -4.4796   -1.5615 H   0  0  0  0  0  0  0  0  0  0  0  0
    4.5351   -2.6196    2.8593 H   0  0  0  0  0  0  0  0  0  0  0  0
    1.2349   -2.2363    2.7444 H   0  0  0  0  0  0  0  0  0  0  0  0
    2.7042   -1.7140    3.5771 H   0  0  0  0  0  0  0  0  0  0  0  0
    0.9718   -0.1241    1.6655 H   0  0  0  0  0  0  0  0  0  0  0  0
    1.6782    0.4168    3.2006 H   0  0  0  0  0  0  0  0  0  0  0  0
    2.8884    1.0919    0.8921 H   0  0  0  0  0  0  0  0  0  0  0  0
    3.8695    0.5180    2.2295 H   0  0  0  0  0  0  0  0  0  0  0  0
    3.1036   -1.1187   -0.2583 H   0  0  0  0  0  0  0  0  0  0  0  0
    6.1956    0.2486    0.9829 H   0  0  0  0  0  0  0  0  0  0  0  0
    6.9698   -1.2236    1.7640 H   0  0  0  0  0  0  0  0  0  0  0  0
    2.0354   -5.9468    4.2398 H   0  0  0  0  0  0  0  0  0  0  0  0
   -0.1360   -6.4526    5.2118 H   0  0  0  0  0  0  0  0  0  0  0  0
   -1.8959   -7.5890    3.8550 H   0  0  0  0  0  0  0  0  0  0  0  0
   -1.4076   -8.2263    1.4881 H   0  0  0  0  0  0  0  0  0  0  0  0
    0.8074   -7.7382    0.5035 H   0  0  0  0  0  0  0  0  0  0  0  0
    3.4485   -8.3212    3.8451 H   0  0  0  0  0  0  0  0  0  0  0  0
    4.3966   -9.3551    2.8321 H   0  0  0  0  0  0  0  0  0  0  0  0
    5.0553   -8.9009    6.0022 H   0  0  0  0  0  0  0  0  0  0  0  0
    6.7777   -9.1056    5.6915 H   0  0  0  0  0  0  0  0  0  0  0  0
    5.6009  -10.0801    4.8070 H   0  0  0  0  0  0  0  0  0  0  0  0
    5.5119   -6.4617    5.7349 H   0  0  0  0  0  0  0  0  0  0  0  0
    7.1197   -6.5624    5.2222 H   0  0  0  0  0  0  0  0  0  0  0  0
    5.8039   -4.2515    4.5573 H   0  0  0  0  0  0  0  0  0  0  0  0
    4.0373   -6.1834    4.2006 H   0  0  0  0  0  0  0  0  0  0  0  0
    3.9701   -4.7264    3.4981 H   0  0  0  0  0  0  0  0  0  0  0  0
    5.7441   -7.9969    0.9404 H   0  0  0  0  0  0  0  0  0  0  0  0
    5.0660   -6.6057    0.1832 H   0  0  0  0  0  0  0  0  0  0  0  0
    6.8008   -4.4811    1.9234 H   0  0  0  0  0  0  0  0  0  0  0  0
    2.4452   -2.7856    0.8679 H   0  0  0  0  0  0  0  0  0  0  0  0
  1  2  1  0
  1 35  1  0
  1 36  1  0
  1 37  1  0
  3  2  1  6
  3 34  1  0
  3  4  1  0
  3 13  1  0
  4 10  1  0
  4  5  1  0
  4 38  1  1
  5  9  1  0
  5  6  1  0
  5 66  1  6
  6  7  1  0
  6 39  1  0
  6 40  1  0
  7  8  1  0
  7 41  1  0
  7 42  1  0
  8  9  1  0
  8 43  1  0
  8 44  1  0
  9 10  1  0
  9 45  1  6
 10 12  1  6
 10 11  1  0
 11 12  1  0
 11 46  1  0
 11 47  1  0
 13 14  2  0
 13 15  1  0
 15 16  1  0
 15 22  2  0
 16 21  1  0
 16 17  2  0
 17 18  1  0
 17 48  1  0
 18 19  2  0
 18 49  1  0
 19 20  1  0
 19 50  1  0
 20 21  2  0
 20 51  1  0
 21 52  1  0
 22 30  1  0
 22 23  1  0
 23 24  1  0
 23 53  1  0
 23 54  1  0
 24 32  1  0
 24 25  1  1
 24 26  1  0
 25 55  1  0
 25 56  1  0
 25 57  1  0
 26 27  1  0
 26 58  1  0
 26 59  1  0
 27 34  1  0
 27 28  1  0
 27 60  1  1
 29 28  1  1
 28 61  1  0
 28 62  1  0
 29 30  1  0
 29 31  1  0
 29 34  1  0
 30 63  1  0
 30 64  1  0
 31 32  1  0
 32 33  2  0
 34 65  1  6
M  CHG  1   5   1
M  END
>  <i_m_ct_stereo_status>  (77) 
1

>  <s_m_source_file>  (77) 
/var/tmp/pbs.5076255.sched01/tmpu5rzjxe4/0gixxd53k.sdf

>  <i_m_source_file_index>  (77) 
33

>  <i_lp_mmshare_version>  (77) 
48012

>  <i_f3d_flags>  (77) 
0

>  <s_epik_input>  (77) 
TzFbQ0gyXVtDQEBdMTJbQ0BIXTNOKFtDSDJdW0NIMl1bQ0gyXTMpW0NASF0yW0NAXTQoT1tDSDNdKUMoPU8pQyhjNVtjSF1bY0hdW2NIXVtjSF1bY0hdNSk9QyhbQ0gyXTYpW0NIMl1bQ0BAXShbQ0gzXSkoQyhPNyk9TylbQ0gyXVtDQEhdKFtDSDJdOClbQ0BASF00W0NAQF02Nzg=

>  <s_epik_cmdline>  (77) 
J2VwaWtfcHl0aG9uJywgJy1waHQnLCAnMi4wJywgJy1waCcsICc3LjAnLCAnLXRuJywgJzgnLCAnLW1hJywgJzIwMCcsICctaW1hZScsICc8aW5maWxlLm1hZT4nLCAnLW9tYWUnLCAnPG91dGZpbGUubWFlPic=

>  <r_epik_Ionization_Penalty>  (77) 
1.06849

>  <r_epik_Ionization_Penalty_Charging>  (77) 
1.06849

>  <r_epik_Ionization_Penalty_Neutral>  (77) 
1.31558e-16

>  <r_epik_State_Penalty>  (77) 
1.12285

>  <r_epik_Charging_Adjusted_Penalty>  (77) 
2.19134

>  <i_epik_Tot_Q>  (77) 
1

>  <i_epik_Tot_abs_Q>  (77) 
1

>  <s_epik_Chemistry_Notes>  (77) 
This compound has an ester and may undergo hydrolysis at high or low pH.

>  <s_lp_Force_Field>  (77) 
OPLS3e

>  <r_lp_Energy>  (77) 
327.503

>  <b_lp_Chiralities_Consistent>  (77) 
1

>  <s_lp_Variant>  (77) 
23:0-2

>  <s_i_glide_gridfile>  (77) 
pfpi4k_grid

>  <i_i_glide_lignum>  (77) 
33

>  <i_i_glide_rotatable_bonds>  (77) 
3

>  <r_i_docking_score>  (77) 
-3.18276

>  <r_i_glide_ligand_efficiency>  (77) 
-0.0936105

>  <r_i_glide_ligand_efficiency_sa>  (77) 
-0.303262

>  <r_i_glide_ligand_efficiency_ln>  (77) 
-0.70316

>  <r_i_glide_gscore>  (77) 
-3.18276

>  <r_i_glide_lipo>  (77) 
-0.409667

>  <r_i_glide_hbond>  (77) 
-0.00879624

>  <r_i_glide_metal>  (77) 
-0

>  <r_i_glide_rewards>  (77) 
-0.785739

>  <r_i_glide_evdw>  (77) 
-26.6869

>  <r_i_glide_ecoul>  (77) 
-5.36299

>  <r_i_glide_erotb>  (77) 
0.188306

>  <r_i_glide_esite>  (77) 
-0.0280633

>  <r_i_glide_emodel>  (77) 
-42.0801

>  <r_i_glide_energy>  (77) 
-32.0499

>  <r_i_glide_einternal>  (77) 
4.36669

>  <r_i_glide_intrahb_reward>  (77) 
-0.5

>  <i_i_glide_confnum>  (77) 
4

>  <i_i_glide_posenum>  (77) 
2

>  <r_i_glide_eff_state_penalty>  (77) 
0

>  <ligand_id>  (77) 
23

>  <original_smiles>  (77) 
COC1(C2N3CCCC3C23CO3)C(=O)C(c2ccccc2)=C2CC3(C)CC4CC(C2)(OC3=O)C41

>  <smiles>  (77) 
[H]c1c([H])c([H])c(C2=C3C([H])([H])C45OC(=O)C(C([H])([H])[H])(C3([H])[H])C([H])([H])C([H])(C4([H])[H])C5([H])C(OC([H])([H])[H])(C3([H])C4(OC4([H])[H])C4([H])C([H])([H])C([H])([H])C([H])([H])[N+]43[H])C2=O)c([H])c1[H]

$$$$
23:1:1
     RDKit          3D

 66 73  0  0  1  0  0  0  0  0999 V2000
    4.5483   -4.3985   -1.5625 C   0  0  0  0  0  0  0  0  0  0  0  0
    4.9570   -5.2427   -0.4797 O   0  0  0  0  0  0  0  0  0  0  0  0
    4.4544   -5.1582    0.8821 C   0  0  1  0  0  0  0  0  0  0  0  0
    4.4945   -3.6571    1.4066 C   0  0  2  0  0  0  0  0  0  0  0  0
    3.4007   -2.7353    0.9418 N   0  0  1  0  0  0  0  0  0  0  0  0
    2.6232   -1.9864    1.9863 C   0  0  0  0  0  0  0  0  0  0  0  0
    2.8091   -0.5062    1.6449 C   0  0  0  0  0  0  0  0  0  0  0  0
    4.2130   -0.4638    1.0576 C   0  0  0  0  0  0  0  0  0  0  0  0
    4.3258   -1.7731    0.3146 C   0  0  1  0  0  0  0  0  0  0  0  0
    5.4478   -2.6800    0.7410 C   0  0  1  0  0  0  0  0  0  0  0  0
    6.8740   -2.3817    1.0578 C   0  0  0  0  0  0  0  0  0  0  0  0
    6.5225   -3.0329   -0.1466 O   0  0  0  0  0  0  0  0  0  0  0  0
    2.8992   -5.7712    0.9447 C   0  0  0  0  0  0  0  0  0  0  0  0
    2.0118   -5.0467    0.4933 O   0  0  0  0  0  0  0  0  0  0  0  0
    2.4525   -7.1196    1.6241 C   0  0  0  0  0  0  0  0  0  0  0  0
    1.2293   -7.1513    2.4539 C   0  0  0  0  0  0  0  0  0  0  0  0
    1.2496   -6.7620    3.8095 C   0  0  0  0  0  0  0  0  0  0  0  0
    0.0793   -6.7866    4.5802 C   0  0  0  0  0  0  0  0  0  0  0  0
   -1.1398   -7.1949    4.0038 C   0  0  0  0  0  0  0  0  0  0  0  0
   -1.1759   -7.5709    2.6470 C   0  0  0  0  0  0  0  0  0  0  0  0
   -0.0013   -7.5320    1.8738 C   0  0  0  0  0  0  0  0  0  0  0  0
    3.3194   -8.2165    1.6835 C   0  0  0  0  0  0  0  0  0  0  0  0
    3.7160   -9.1348    2.9416 C   0  0  0  0  0  0  0  0  0  0  0  0
    5.2772   -9.0875    3.6301 C   0  0  2  0  0  0  0  0  0  0  0  0
    5.3458  -10.1682    4.7382 C   0  0  0  0  0  0  0  0  0  0  0  0
    6.0505   -7.7216    4.2038 C   0  0  0  0  0  0  0  0  0  0  0  0
    5.9547   -6.3244    3.3348 C   0  0  2  0  0  0  0  0  0  0  0  0
    4.6198   -6.5283    3.1251 C   0  0  0  0  0  0  0  0  0  0  0  0
    5.2944   -7.3450    1.7514 C   0  0  2  0  0  0  0  0  0  0  0  0
    4.4440   -8.0931    0.7557 C   0  0  0  0  0  0  0  0  0  0  0  0
    6.4301   -8.2703    1.7456 O   0  0  0  0  0  0  0  0  0  0  0  0
    6.3007   -9.3515    2.5363 C   0  0  0  0  0  0  0  0  0  0  0  0
    6.9773  -10.3813    2.4549 O   0  0  0  0  0  0  0  0  0  0  0  0
    5.6872   -5.9771    1.6789 C   0  0  1  0  0  0  0  0  0  0  0  0
    5.0605   -4.7249   -2.4747 H   0  0  0  0  0  0  0  0  0  0  0  0
    4.8326   -3.3745   -1.4601 H   0  0  0  0  0  0  0  0  0  0  0  0
    3.4762   -4.4376   -1.7113 H   0  0  0  0  0  0  0  0  0  0  0  0
    4.6103   -3.5869    2.4762 H   0  0  0  0  0  0  0  0  0  0  0  0
    1.5774   -2.3007    1.9515 H   0  0  0  0  0  0  0  0  0  0  0  0
    3.0129   -2.2107    2.9749 H   0  0  0  0  0  0  0  0  0  0  0  0
    2.0816   -0.2130    0.8879 H   0  0  0  0  0  0  0  0  0  0  0  0
    2.6803    0.1349    2.5142 H   0  0  0  0  0  0  0  0  0  0  0  0
    4.3482    0.4008    0.4111 H   0  0  0  0  0  0  0  0  0  0  0  0
    4.9424   -0.4009    1.8699 H   0  0  0  0  0  0  0  0  0  0  0  0
    4.0489   -1.7178   -0.7533 H   0  0  0  0  0  0  0  0  0  0  0  0
    7.3116   -1.3865    0.8959 H   0  0  0  0  0  0  0  0  0  0  0  0
    7.3989   -3.0120    1.7544 H   0  0  0  0  0  0  0  0  0  0  0  0
    2.1562   -6.4290    4.2858 H   0  0  0  0  0  0  0  0  0  0  0  0
    0.1221   -6.4959    5.6198 H   0  0  0  0  0  0  0  0  0  0  0  0
   -2.0374   -7.2179    4.6020 H   0  0  0  0  0  0  0  0  0  0  0  0
   -2.1122   -7.8898    2.2030 H   0  0  0  0  0  0  0  0  0  0  0  0
   -0.0404   -7.7947    0.8230 H   0  0  0  0  0  0  0  0  0  0  0  0
    2.9945   -8.9653    3.7427 H   0  0  0  0  0  0  0  0  0  0  0  0
    3.5236  -10.1684    2.6419 H   0  0  0  0  0  0  0  0  0  0  0  0
    4.8053   -9.8423    5.6286 H   0  0  0  0  0  0  0  0  0  0  0  0
    6.3740  -10.3788    5.0444 H   0  0  0  0  0  0  0  0  0  0  0  0
    4.9006  -11.1103    4.4107 H   0  0  0  0  0  0  0  0  0  0  0  0
    5.6380   -7.5309    5.1966 H   0  0  0  0  0  0  0  0  0  0  0  0
    7.0983   -7.9378    4.4488 H   0  0  0  0  0  0  0  0  0  0  0  0
    6.1581   -5.4269    3.9227 H   0  0  0  0  0  0  0  0  0  0  0  0
    4.0295   -7.0024    3.9125 H   0  0  0  0  0  0  0  0  0  0  0  0
    4.0957   -5.5599    3.1793 H   0  0  0  0  0  0  0  0  0  0  0  0
    4.7693   -9.1002    0.4899 H   0  0  0  0  0  0  0  0  0  0  0  0
    4.2537   -7.6006   -0.1936 H   0  0  0  0  0  0  0  0  0  0  0  0
    6.6423   -5.8479    1.1694 H   0  0  0  0  0  0  0  0  0  0  0  0
    2.8282   -3.1810    0.2652 H   0  0  0  0  0  0  0  0  0  0  0  0
  1  2  1  0
  1 35  1  0
  1 36  1  0
  1 37  1  0
  3  2  1  6
  3 34  1  0
  3  4  1  0
  3 13  1  0
  4 10  1  0
  4  5  1  0
  4 38  1  1
  5  9  1  0
  5  6  1  0
  5 66  1  6
  6  7  1  0
  6 39  1  0
  6 40  1  0
  7  8  1  0
  7 41  1  0
  7 42  1  0
  8  9  1  0
  8 43  1  0
  8 44  1  0
  9 10  1  0
  9 45  1  6
 10 12  1  6
 10 11  1  0
 11 12  1  0
 11 46  1  0
 11 47  1  0
 13 14  2  0
 13 15  1  0
 15 16  1  0
 15 22  2  0
 16 21  1  0
 16 17  2  0
 17 18  1  0
 17 48  1  0
 18 19  2  0
 18 49  1  0
 19 20  1  0
 19 50  1  0
 20 21  2  0
 20 51  1  0
 21 52  1  0
 22 30  1  0
 22 23  1  0
 23 24  1  0
 23 53  1  0
 23 54  1  0
 24 32  1  0
 24 25  1  1
 24 26  1  0
 25 55  1  0
 25 56  1  0
 25 57  1  0
 26 27  1  0
 26 58  1  0
 26 59  1  0
 27 34  1  0
 27 28  1  0
 27 60  1  1
 29 28  1  1
 28 61  1  0
 28 62  1  0
 29 30  1  0
 29 31  1  0
 29 34  1  0
 30 63  1  0
 30 64  1  0
 31 32  1  0
 32 33  2  0
 34 65  1  6
M  CHG  1   5   1
M  END
>  <i_m_ct_stereo_status>  (78) 
1

>  <s_m_source_file>  (78) 
/var/tmp/pbs.5076255.sched01/tmpu5rzjxe4/0gixxd53k.sdf

>  <i_m_source_file_index>  (78) 
33

>  <i_lp_mmshare_version>  (78) 
48012

>  <i_f3d_flags>  (78) 
0

>  <s_epik_input>  (78) 
TzFbQ0gyXVtDQEBdMTJbQ0BIXTNOKFtDSDJdW0NIMl1bQ0gyXTMpW0NASF0yW0NAXTQoT1tDSDNdKUMoPU8pQyhjNVtjSF1bY0hdW2NIXVtjSF1bY0hdNSk9QyhbQ0gyXTYpW0NIMl1bQ0BAXShbQ0gzXSkoQyhPNyk9TylbQ0gyXVtDQEhdKFtDSDJdOClbQ0BASF00W0NAQF02Nzg=

>  <s_epik_cmdline>  (78) 
J2VwaWtfcHl0aG9uJywgJy1waHQnLCAnMi4wJywgJy1waCcsICc3LjAnLCAnLXRuJywgJzgnLCAnLW1hJywgJzIwMCcsICctaW1hZScsICc8aW5maWxlLm1hZT4nLCAnLW9tYWUnLCAnPG91dGZpbGUubWFlPic=

>  <r_epik_Ionization_Penalty>  (78) 
1.06849

>  <r_epik_Ionization_Penalty_Charging>  (78) 
1.06849

>  <r_epik_Ionization_Penalty_Neutral>  (78) 
1.31558e-16

>  <r_epik_State_Penalty>  (78) 
1.12285

>  <r_epik_Charging_Adjusted_Penalty>  (78) 
2.19134

>  <i_epik_Tot_Q>  (78) 
1

>  <i_epik_Tot_abs_Q>  (78) 
1

>  <s_epik_Chemistry_Notes>  (78) 
This compound has an ester and may undergo hydrolysis at high or low pH.

>  <s_lp_Force_Field>  (78) 
OPLS3e

>  <r_lp_Energy>  (78) 
327.503

>  <b_lp_Chiralities_Consistent>  (78) 
1

>  <s_lp_Variant>  (78) 
23:0-2

>  <s_i_glide_gridfile>  (78) 
pfpi4k_grid

>  <i_i_glide_lignum>  (78) 
33

>  <i_i_glide_rotatable_bonds>  (78) 
3

>  <r_i_docking_score>  (78) 
-3.14846

>  <r_i_glide_ligand_efficiency>  (78) 
-0.0926019

>  <r_i_glide_ligand_efficiency_sa>  (78) 
-0.299994

>  <r_i_glide_ligand_efficiency_ln>  (78) 
-0.695584

>  <r_i_glide_gscore>  (78) 
-3.14846

>  <r_i_glide_lipo>  (78) 
-0.405334

>  <r_i_glide_hbond>  (78) 
-0.0542326

>  <r_i_glide_metal>  (78) 
-0

>  <r_i_glide_rewards>  (78) 
-0.757306

>  <r_i_glide_evdw>  (78) 
-23.2922

>  <r_i_glide_ecoul>  (78) 
-6.17586

>  <r_i_glide_erotb>  (78) 
0.188306

>  <r_i_glide_esite>  (78) 
-0.0289111

>  <r_i_glide_emodel>  (78) 
-37.9595

>  <r_i_glide_energy>  (78) 
-29.468

>  <r_i_glide_einternal>  (78) 
4.91549

>  <r_i_glide_intrahb_reward>  (78) 
-0.5

>  <i_i_glide_confnum>  (78) 
4

>  <i_i_glide_posenum>  (78) 
34

>  <r_i_glide_eff_state_penalty>  (78) 
0

>  <ligand_id>  (78) 
23

>  <original_smiles>  (78) 
COC1(C2N3CCCC3C23CO3)C(=O)C(c2ccccc2)=C2CC3(C)CC4CC(C2)(OC3=O)C41

>  <smiles>  (78) 
[H]c1c([H])c([H])c(C2=C3C([H])([H])C45OC(=O)C(C([H])([H])[H])(C3([H])[H])C([H])([H])C([H])(C4([H])[H])C5([H])C(OC([H])([H])[H])(C3([H])C4(OC4([H])[H])C4([H])C([H])([H])C([H])([H])C([H])([H])[N+]43[H])C2=O)c([H])c1[H]

$$$$
23:1:2
     RDKit          3D

 66 73  0  0  1  0  0  0  0  0999 V2000
    5.0806   -5.1519   -0.6300 C   0  0  0  0  0  0  0  0  0  0  0  0
    4.8215   -4.1361    0.3430 O   0  0  0  0  0  0  0  0  0  0  0  0
    4.3589   -4.4114    1.7018 C   0  0  1  0  0  0  0  0  0  0  0  0
    3.9059   -2.9542    2.1994 C   0  0  2  0  0  0  0  0  0  0  0  0
    2.6246   -2.3845    1.6631 N   0  0  1  0  0  0  0  0  0  0  0  0
    1.5817   -1.9250    2.6271 C   0  0  0  0  0  0  0  0  0  0  0  0
    1.3307   -0.4572    2.3203 C   0  0  0  0  0  0  0  0  0  0  0  0
    2.6888    0.0091    1.8385 C   0  0  0  0  0  0  0  0  0  0  0  0
    3.2684   -1.1902    1.0853 C   0  0  1  0  0  0  0  0  0  0  0  0
    4.5496   -1.7208    1.6238 C   0  0  1  0  0  0  0  0  0  0  0  0
    5.7999   -1.0003    2.0277 C   0  0  0  0  0  0  0  0  0  0  0  0
    5.7124   -1.7340    0.7923 O   0  0  0  0  0  0  0  0  0  0  0  0
    3.0643   -5.4711    1.6517 C   0  0  0  0  0  0  0  0  0  0  0  0
    2.0414   -5.0393    1.1388 O   0  0  0  0  0  0  0  0  0  0  0  0
    2.9943   -6.9066    2.3417 C   0  0  0  0  0  0  0  0  0  0  0  0
    1.7263   -7.2965    2.9940 C   0  0  0  0  0  0  0  0  0  0  0  0
    1.5902   -7.1061    4.3824 C   0  0  0  0  0  0  0  0  0  0  0  0
    0.4171   -7.5117    5.0285 C   0  0  0  0  0  0  0  0  0  0  0  0
   -0.6261   -8.0827    4.2848 C   0  0  0  0  0  0  0  0  0  0  0  0
   -0.5087   -8.2447    2.8900 C   0  0  0  0  0  0  0  0  0  0  0  0
    0.6747   -7.8491    2.2274 C   0  0  0  0  0  0  0  0  0  0  0  0
    4.1263   -7.6749    2.5052 C   0  0  0  0  0  0  0  0  0  0  0  0
    4.6847   -8.4625    3.7889 C   0  0  0  0  0  0  0  0  0  0  0  0
    6.1005   -7.9366    4.5649 C   0  0  2  0  0  0  0  0  0  0  0  0
    6.3880   -8.9814    5.6502 C   0  0  0  0  0  0  0  0  0  0  0  0
    6.3621   -6.4132    5.1911 C   0  0  0  0  0  0  0  0  0  0  0  0
    5.9330   -5.0861    4.2915 C   0  0  2  0  0  0  0  0  0  0  0  0
    4.7383   -5.6663    3.9741 C   0  0  0  0  0  0  0  0  0  0  0  0
    5.7257   -6.2369    2.6656 C   0  0  2  0  0  0  0  0  0  0  0  0
    5.2277   -7.2719    1.6695 C   0  0  0  0  0  0  0  0  0  0  0  0
    7.0924   -6.7391    2.7885 O   0  0  0  0  0  0  0  0  0  0  0  0
    7.2498   -7.8442    3.5626 C   0  0  0  0  0  0  0  0  0  0  0  0
    8.2043   -8.6168    3.5151 O   0  0  0  0  0  0  0  0  0  0  0  0
    5.6972   -4.8165    2.6045 C   0  0  1  0  0  0  0  0  0  0  0  0
    5.3240   -4.7495   -1.6244 H   0  0  0  0  0  0  0  0  0  0  0  0
    4.1967   -5.7484   -0.7561 H   0  0  0  0  0  0  0  0  0  0  0  0
    5.8978   -5.8126   -0.3591 H   0  0  0  0  0  0  0  0  0  0  0  0
    3.9138   -2.8635    3.2876 H   0  0  0  0  0  0  0  0  0  0  0  0
    0.6810   -2.5163    2.5359 H   0  0  0  0  0  0  0  0  0  0  0  0
    1.9157   -2.0444    3.6568 H   0  0  0  0  0  0  0  0  0  0  0  0
    0.6082   -0.3586    1.5175 H   0  0  0  0  0  0  0  0  0  0  0  0
    0.9437    0.0999    3.1652 H   0  0  0  0  0  0  0  0  0  0  0  0
    2.6243    0.9090    1.2304 H   0  0  0  0  0  0  0  0  0  0  0  0
    3.2971    0.2519    2.7093 H   0  0  0  0  0  0  0  0  0  0  0  0
    3.0931   -1.2268    0.0047 H   0  0  0  0  0  0  0  0  0  0  0  0
    5.8353    0.0771    1.9110 H   0  0  0  0  0  0  0  0  0  0  0  0
    6.4199   -1.4570    2.7872 H   0  0  0  0  0  0  0  0  0  0  0  0
    2.3626   -6.6665    4.9891 H   0  0  0  0  0  0  0  0  0  0  0  0
    0.3655   -7.3811    6.0980 H   0  0  0  0  0  0  0  0  0  0  0  0
   -1.5180   -8.4083    4.8050 H   0  0  0  0  0  0  0  0  0  0  0  0
   -1.3045   -8.6954    2.3277 H   0  0  0  0  0  0  0  0  0  0  0  0
    0.7836   -7.9919    1.1527 H   0  0  0  0  0  0  0  0  0  0  0  0
    3.8553   -8.5410    4.4959 H   0  0  0  0  0  0  0  0  0  0  0  0
    4.8326   -9.4770    3.4037 H   0  0  0  0  0  0  0  0  0  0  0  0
    5.6916   -8.8544    6.4678 H   0  0  0  0  0  0  0  0  0  0  0  0
    7.3912   -8.8757    6.0386 H   0  0  0  0  0  0  0  0  0  0  0  0
    6.2728   -9.9914    5.2678 H   0  0  0  0  0  0  0  0  0  0  0  0
    5.8085   -6.3853    6.1334 H   0  0  0  0  0  0  0  0  0  0  0  0
    7.3955   -6.3069    5.5321 H   0  0  0  0  0  0  0  0  0  0  0  0
    5.7802   -4.1887    4.8983 H   0  0  0  0  0  0  0  0  0  0  0  0
    4.2783   -6.3256    4.7151 H   0  0  0  0  0  0  0  0  0  0  0  0
    3.9403   -4.8984    3.9670 H   0  0  0  0  0  0  0  0  0  0  0  0
    5.9279   -8.0639    1.4286 H   0  0  0  0  0  0  0  0  0  0  0  0
    4.7382   -7.0643    0.7404 H   0  0  0  0  0  0  0  0  0  0  0  0
    6.6037   -4.3748    2.2109 H   0  0  0  0  0  0  0  0  0  0  0  0
    2.2482   -2.9820    0.9238 H   0  0  0  0  0  0  0  0  0  0  0  0
  1  2  1  0
  1 35  1  0
  1 36  1  0
  1 37  1  0
  3  2  1  6
  3 34  1  0
  3  4  1  0
  3 13  1  0
  4 10  1  0
  4  5  1  0
  4 38  1  1
  5  9  1  0
  5  6  1  0
  5 66  1  6
  6  7  1  0
  6 39  1  0
  6 40  1  0
  7  8  1  0
  7 41  1  0
  7 42  1  0
  8  9  1  0
  8 43  1  0
  8 44  1  0
  9 10  1  0
  9 45  1  6
 10 12  1  6
 10 11  1  0
 11 12  1  0
 11 46  1  0
 11 47  1  0
 13 14  2  0
 13 15  1  0
 15 16  1  0
 15 22  2  0
 16 21  1  0
 16 17  2  0
 17 18  1  0
 17 48  1  0
 18 19  2  0
 18 49  1  0
 19 20  1  0
 19 50  1  0
 20 21  2  0
 20 51  1  0
 21 52  1  0
 22 30  1  0
 22 23  1  0
 23 24  1  0
 23 53  1  0
 23 54  1  0
 24 32  1  0
 24 25  1  1
 24 26  1  0
 25 55  1  0
 25 56  1  0
 25 57  1  0
 26 27  1  0
 26 58  1  0
 26 59  1  0
 27 34  1  0
 27 28  1  0
 27 60  1  1
 29 28  1  1
 28 61  1  0
 28 62  1  0
 29 30  1  0
 29 31  1  0
 29 34  1  0
 30 63  1  0
 30 64  1  0
 31 32  1  0
 32 33  2  0
 34 65  1  6
M  CHG  1   5   1
M  END
>  <i_m_ct_stereo_status>  (79) 
1

>  <s_m_source_file>  (79) 
/var/tmp/pbs.5076255.sched01/tmpu5rzjxe4/0gixxd53k.sdf

>  <i_m_source_file_index>  (79) 
33

>  <i_lp_mmshare_version>  (79) 
48012

>  <i_f3d_flags>  (79) 
0

>  <s_epik_input>  (79) 
TzFbQ0gyXVtDQEBdMTJbQ0BIXTNOKFtDSDJdW0NIMl1bQ0gyXTMpW0NASF0yW0NAXTQoT1tDSDNdKUMoPU8pQyhjNVtjSF1bY0hdW2NIXVtjSF1bY0hdNSk9QyhbQ0gyXTYpW0NIMl1bQ0BAXShbQ0gzXSkoQyhPNyk9TylbQ0gyXVtDQEhdKFtDSDJdOClbQ0BASF00W0NAQF02Nzg=

>  <s_epik_cmdline>  (79) 
J2VwaWtfcHl0aG9uJywgJy1waHQnLCAnMi4wJywgJy1waCcsICc3LjAnLCAnLXRuJywgJzgnLCAnLW1hJywgJzIwMCcsICctaW1hZScsICc8aW5maWxlLm1hZT4nLCAnLW9tYWUnLCAnPG91dGZpbGUubWFlPic=

>  <r_epik_Ionization_Penalty>  (79) 
1.06849

>  <r_epik_Ionization_Penalty_Charging>  (79) 
1.06849

>  <r_epik_Ionization_Penalty_Neutral>  (79) 
1.31558e-16

>  <r_epik_State_Penalty>  (79) 
1.12285

>  <r_epik_Charging_Adjusted_Penalty>  (79) 
2.19134

>  <i_epik_Tot_Q>  (79) 
1

>  <i_epik_Tot_abs_Q>  (79) 
1

>  <s_epik_Chemistry_Notes>  (79) 
This compound has an ester and may undergo hydrolysis at high or low pH.

>  <s_lp_Force_Field>  (79) 
OPLS3e

>  <r_lp_Energy>  (79) 
327.503

>  <b_lp_Chiralities_Consistent>  (79) 
1

>  <s_lp_Variant>  (79) 
23:0-2

>  <s_i_glide_gridfile>  (79) 
pfpi4k_grid

>  <i_i_glide_lignum>  (79) 
33

>  <i_i_glide_rotatable_bonds>  (79) 
3

>  <r_i_docking_score>  (79) 
-2.89696

>  <r_i_glide_ligand_efficiency>  (79) 
-0.0852047

>  <r_i_glide_ligand_efficiency_sa>  (79) 
-0.27603

>  <r_i_glide_ligand_efficiency_ln>  (79) 
-0.64002

>  <r_i_glide_gscore>  (79) 
-2.89696

>  <r_i_glide_lipo>  (79) 
-0.245865

>  <r_i_glide_hbond>  (79) 
-0.0415216

>  <r_i_glide_metal>  (79) 
-0

>  <r_i_glide_rewards>  (79) 
-0.763

>  <r_i_glide_evdw>  (79) 
-24.1757

>  <r_i_glide_ecoul>  (79) 
-5.34334

>  <r_i_glide_erotb>  (79) 
0.188306

>  <r_i_glide_esite>  (79) 
-0.0245917

>  <r_i_glide_emodel>  (79) 
-37.2482

>  <r_i_glide_energy>  (79) 
-29.5191

>  <r_i_glide_einternal>  (79) 
5.09188

>  <r_i_glide_intrahb_reward>  (79) 
-0.5

>  <i_i_glide_confnum>  (79) 
4

>  <i_i_glide_posenum>  (79) 
35

>  <r_i_glide_eff_state_penalty>  (79) 
0

>  <ligand_id>  (79) 
23

>  <original_smiles>  (79) 
COC1(C2N3CCCC3C23CO3)C(=O)C(c2ccccc2)=C2CC3(C)CC4CC(C2)(OC3=O)C41

>  <smiles>  (79) 
[H]c1c([H])c([H])c(C2=C3C([H])([H])C45OC(=O)C(C([H])([H])[H])(C3([H])[H])C([H])([H])C([H])(C4([H])[H])C5([H])C(OC([H])([H])[H])(C3([H])C4(OC4([H])[H])C4([H])C([H])([H])C([H])([H])C([H])([H])[N+]43[H])C2=O)c([H])c1[H]

$$$$
24:0:0
     RDKit          3D

 33 36  0  0  1  0  0  0  0  0999 V2000
    7.3147   -5.7254    1.0606 C   0  0  0  0  0  0  0  0  0  0  0  0
    7.1103   -4.5571    0.2639 O   0  0  0  0  0  0  0  0  0  0  0  0
    6.5396   -3.5028    0.9355 C   0  0  0  0  0  0  0  0  0  0  0  0
    6.9365   -2.2048    0.5411 C   0  0  0  0  0  0  0  0  0  0  0  0
    6.1684   -1.0367    0.7393 C   0  0  0  0  0  0  0  0  0  0  0  0
    4.8696   -1.1564    1.2575 C   0  0  0  0  0  0  0  0  0  0  0  0
    3.9834   -1.4260    0.1819 C   0  0  0  0  0  0  0  0  0  0  0  0
    3.3792   -2.6606   -0.2202 C   0  0  0  0  0  0  0  0  0  0  0  0
    3.4768   -3.9869    0.3167 C   0  0  0  0  0  0  0  0  0  0  0  0
    2.5196   -5.0359    0.0416 C   0  0  0  0  0  0  0  0  0  0  0  0
    2.7200   -6.0261    1.1283 C   0  0  0  0  0  0  0  0  0  0  0  0
    3.7665   -5.4503    1.9578 C   0  0  0  0  0  0  0  0  0  0  0  0
    3.9828   -5.7794    3.2570 N   0  0  0  0  0  0  0  0  0  0  0  0
    4.4605   -4.8871    4.1559 C   0  0  0  0  0  0  0  0  0  0  0  0
    4.7162   -3.5534    4.0541 N   0  0  0  0  0  0  0  0  0  0  0  0
    5.0136   -2.8909    2.8882 C   0  0  0  0  0  0  0  0  0  0  0  0
    5.4238   -3.6629    1.8100 C   0  0  0  0  0  0  0  0  0  0  0  0
    4.3592   -4.3943    1.3068 C   0  0  0  0  0  0  0  0  0  0  0  0
    4.7053   -1.6268    2.5308 N   0  0  0  0  0  0  0  0  0  0  0  0
    3.9029   -0.8127    3.4292 C   0  0  0  0  0  0  0  0  0  0  0  0
    7.6865   -6.5554    0.4613 H   0  0  0  0  0  0  0  0  0  0  0  0
    6.4337   -6.1007    1.5847 H   0  0  0  0  0  0  0  0  0  0  0  0
    8.0589   -5.4852    1.8190 H   0  0  0  0  0  0  0  0  0  0  0  0
    7.7467   -2.1515   -0.1804 H   0  0  0  0  0  0  0  0  0  0  0  0
    6.3566   -0.2390    0.0312 H   0  0  0  0  0  0  0  0  0  0  0  0
    3.9391   -0.6651   -0.5868 H   0  0  0  0  0  0  0  0  0  0  0  0
    2.7124   -2.5533   -1.0637 H   0  0  0  0  0  0  0  0  0  0  0  0
    1.7677   -5.0231   -0.7515 H   0  0  0  0  0  0  0  0  0  0  0  0
    2.1209   -6.9169    1.3239 H   0  0  0  0  0  0  0  0  0  0  0  0
    4.4140   -5.2502    5.1753 H   0  0  0  0  0  0  0  0  0  0  0  0
    3.9940   -1.1549    4.4598 H   0  0  0  0  0  0  0  0  0  0  0  0
    2.8466   -0.8622    3.1521 H   0  0  0  0  0  0  0  0  0  0  0  0
    4.2246    0.2327    3.4119 H   0  0  0  0  0  0  0  0  0  0  0  0
  1  2  1  0
  1 21  1  0
  1 22  1  0
  1 23  1  0
  2  3  1  0
  3 17  1  0
  3  4  2  0
  4  5  1  0
  4 24  1  0
  5  6  2  0
  5 25  1  0
  6 19  1  0
  6  7  1  0
  7  8  2  0
  7 26  1  0
  8  9  1  0
  8 27  1  0
  9 18  2  0
  9 10  1  0
 10 11  2  0
 10 28  1  0
 11 12  1  0
 11 29  1  0
 12 18  1  0
 12 13  2  0
 13 14  1  0
 14 15  2  0
 14 30  1  0
 15 16  1  0
 16 17  2  0
 16 19  1  0
 17 18  1  0
 19 20  1  0
 20 31  1  0
 20 32  1  0
 20 33  1  0
M  END
>  <i_m_ct_stereo_status>  (80) 
1

>  <s_m_source_file>  (80) 
/var/tmp/pbs.5076255.sched01/tmpu5rzjxe4/0gixxd53k.sdf

>  <i_m_source_file_index>  (80) 
34

>  <i_lp_mmshare_version>  (80) 
48012

>  <i_f3d_flags>  (80) 
0

>  <s_epik_input>  (80) 
YzEyW2NIXVtjSF1jKE9bQ0gzXSljM2MobjJbQ0gzXSluW2NIXW5jNGMzYyhbY0hdW2NIXTEpW2NIXVtjSF00

>  <s_epik_cmdline>  (80) 
J2VwaWtfcHl0aG9uJywgJy1waHQnLCAnMi4wJywgJy1waCcsICc3LjAnLCAnLXRuJywgJzgnLCAnLW1hJywgJzIwMCcsICctaW1hZScsICc8aW5maWxlLm1hZT4nLCAnLW9tYWUnLCAnPG91dGZpbGUubWFlPic=

>  <r_lp_tautomer_probability>  (80) 
1

>  <r_epik_Ionization_Penalty>  (80) 
0

>  <r_epik_Ionization_Penalty_Charging>  (80) 
0

>  <r_epik_Ionization_Penalty_Neutral>  (80) 
0

>  <r_epik_State_Penalty>  (80) 
-0

>  <r_epik_Charging_Adjusted_Penalty>  (80) 
0

>  <i_epik_Tot_Q>  (80) 
0

>  <i_epik_Tot_abs_Q>  (80) 
0

>  <s_lp_Force_Field>  (80) 
OPLS3e

>  <r_lp_Energy>  (80) 
211.131

>  <b_lp_Chiralities_Consistent>  (80) 
1

>  <s_lp_Variant>  (80) 
24:0-1

>  <s_i_glide_gridfile>  (80) 
pfpi4k_grid

>  <i_i_glide_lignum>  (80) 
34

>  <i_i_glide_rotatable_bonds>  (80) 
1

>  <r_i_docking_score>  (80) 
-3.21668

>  <r_i_glide_ligand_efficiency>  (80) 
-0.160834

>  <r_i_glide_ligand_efficiency_sa>  (80) 
-0.436571

>  <r_i_glide_ligand_efficiency_ln>  (80) 
-0.80503

>  <r_i_glide_gscore>  (80) 
-3.21668

>  <r_i_glide_lipo>  (80) 
-0.508376

>  <r_i_glide_hbond>  (80) 
0

>  <r_i_glide_metal>  (80) 
-0

>  <r_i_glide_rewards>  (80) 
-1.75782

>  <r_i_glide_evdw>  (80) 
-18.0062

>  <r_i_glide_ecoul>  (80) 
-0.334492

>  <r_i_glide_erotb>  (80) 
0

>  <r_i_glide_esite>  (80) 
0

>  <r_i_glide_emodel>  (80) 
-19.1341

>  <r_i_glide_energy>  (80) 
-18.3407

>  <r_i_glide_einternal>  (80) 
4.87965

>  <r_i_glide_intrahb_reward>  (80) 
-0

>  <i_i_glide_confnum>  (80) 
1

>  <i_i_glide_posenum>  (80) 
3

>  <r_i_glide_eff_state_penalty>  (80) 
0

>  <ligand_id>  (80) 
24

>  <original_smiles>  (80) 
COC1=CC=c2ccc3ccc4ncnc(c1c3-4)n2C

>  <smiles>  (80) 
[H]C1=C(OC([H])([H])[H])c2c3c4c([H])c([H])c-3nc([H])nc2n(C([H])([H])[H])c(c([H])c4[H])=C1[H]

$$$$
24:0:1
     RDKit          3D

 33 36  0  0  1  0  0  0  0  0999 V2000
   -1.0844   -2.2526    5.5814 C   0  0  0  0  0  0  0  0  0  0  0  0
   -0.9387   -0.8424    5.6561 O   0  0  0  0  0  0  0  0  0  0  0  0
    0.2738   -0.2618    5.3155 C   0  0  0  0  0  0  0  0  0  0  0  0
    1.3882   -0.9824    4.7996 C   0  0  0  0  0  0  0  0  0  0  0  0
    2.3705   -0.4097    3.9656 C   0  0  0  0  0  0  0  0  0  0  0  0
    2.2311    0.9301    3.5612 C   0  0  0  0  0  0  0  0  0  0  0  0
    1.3977    0.9703    2.4031 C   0  0  0  0  0  0  0  0  0  0  0  0
    0.0190    1.3413    2.2867 C   0  0  0  0  0  0  0  0  0  0  0  0
   -0.9411    1.7596    3.2694 C   0  0  0  0  0  0  0  0  0  0  0  0
   -2.1632    2.4373    2.9299 C   0  0  0  0  0  0  0  0  0  0  0  0
   -2.5780    3.0657    4.1937 C   0  0  0  0  0  0  0  0  0  0  0  0
   -1.5461    2.7477    5.1585 C   0  0  0  0  0  0  0  0  0  0  0  0
   -1.2865    3.4596    6.2874 N   0  0  0  0  0  0  0  0  0  0  0  0
   -0.0294    3.5591    6.8030 C   0  0  0  0  0  0  0  0  0  0  0  0
    1.1673    3.1143    6.3235 N   0  0  0  0  0  0  0  0  0  0  0  0
    1.3437    2.0608    5.4635 C   0  0  0  0  0  0  0  0  0  0  0  0
    0.2878    1.1564    5.3338 C   0  0  0  0  0  0  0  0  0  0  0  0
   -0.7564    1.7490    4.6498 C   0  0  0  0  0  0  0  0  0  0  0  0
    2.2795    1.9130    4.5043 N   0  0  0  0  0  0  0  0  0  0  0  0
    3.2310    2.9963    4.2722 C   0  0  0  0  0  0  0  0  0  0  0  0
   -2.0843   -2.5178    5.9195 H   0  0  0  0  0  0  0  0  0  0  0  0
   -0.3678   -2.7495    6.2274 H   0  0  0  0  0  0  0  0  0  0  0  0
   -0.9766   -2.6034    4.5555 H   0  0  0  0  0  0  0  0  0  0  0  0
    1.3330   -2.0608    4.7634 H   0  0  0  0  0  0  0  0  0  0  0  0
    2.8023   -1.1109    3.2639 H   0  0  0  0  0  0  0  0  0  0  0  0
    1.7541    0.4173    1.5448 H   0  0  0  0  0  0  0  0  0  0  0  0
   -0.3485    1.3217    1.2770 H   0  0  0  0  0  0  0  0  0  0  0  0
   -2.6163    2.5463    1.9446 H   0  0  0  0  0  0  0  0  0  0  0  0
   -3.3820    3.7458    4.3209 H   0  0  0  0  0  0  0  0  0  0  0  0
    0.0497    4.2824    7.6031 H   0  0  0  0  0  0  0  0  0  0  0  0
    3.3441    3.6196    5.1564 H   0  0  0  0  0  0  0  0  0  0  0  0
    2.9042    3.6344    3.4465 H   0  0  0  0  0  0  0  0  0  0  0  0
    4.2185    2.5917    4.0559 H   0  0  0  0  0  0  0  0  0  0  0  0
  1  2  1  0
  1 21  1  0
  1 22  1  0
  1 23  1  0
  2  3  1  0
  3 17  1  0
  3  4  2  0
  4  5  1  0
  4 24  1  0
  5  6  2  0
  5 25  1  0
  6 19  1  0
  6  7  1  0
  7  8  2  0
  7 26  1  0
  8  9  1  0
  8 27  1  0
  9 18  2  0
  9 10  1  0
 10 11  2  0
 10 28  1  0
 11 12  1  0
 11 29  1  0
 12 18  1  0
 12 13  2  0
 13 14  1  0
 14 15  2  0
 14 30  1  0
 15 16  1  0
 16 17  2  0
 16 19  1  0
 17 18  1  0
 19 20  1  0
 20 31  1  0
 20 32  1  0
 20 33  1  0
M  END
>  <i_m_ct_stereo_status>  (81) 
1

>  <s_m_source_file>  (81) 
/var/tmp/pbs.5076255.sched01/tmpu5rzjxe4/0gixxd53k.sdf

>  <i_m_source_file_index>  (81) 
34

>  <i_lp_mmshare_version>  (81) 
48012

>  <i_f3d_flags>  (81) 
0

>  <s_epik_input>  (81) 
YzEyW2NIXVtjSF1jKE9bQ0gzXSljM2MobjJbQ0gzXSluW2NIXW5jNGMzYyhbY0hdW2NIXTEpW2NIXVtjSF00

>  <s_epik_cmdline>  (81) 
J2VwaWtfcHl0aG9uJywgJy1waHQnLCAnMi4wJywgJy1waCcsICc3LjAnLCAnLXRuJywgJzgnLCAnLW1hJywgJzIwMCcsICctaW1hZScsICc8aW5maWxlLm1hZT4nLCAnLW9tYWUnLCAnPG91dGZpbGUubWFlPic=

>  <r_lp_tautomer_probability>  (81) 
1

>  <r_epik_Ionization_Penalty>  (81) 
0

>  <r_epik_Ionization_Penalty_Charging>  (81) 
0

>  <r_epik_Ionization_Penalty_Neutral>  (81) 
0

>  <r_epik_State_Penalty>  (81) 
-0

>  <r_epik_Charging_Adjusted_Penalty>  (81) 
0

>  <i_epik_Tot_Q>  (81) 
0

>  <i_epik_Tot_abs_Q>  (81) 
0

>  <s_lp_Force_Field>  (81) 
OPLS3e

>  <r_lp_Energy>  (81) 
211.131

>  <b_lp_Chiralities_Consistent>  (81) 
1

>  <s_lp_Variant>  (81) 
24:0-1

>  <s_i_glide_gridfile>  (81) 
pfpi4k_grid

>  <i_i_glide_lignum>  (81) 
34

>  <i_i_glide_rotatable_bonds>  (81) 
1

>  <r_i_docking_score>  (81) 
-2.65701

>  <r_i_glide_ligand_efficiency>  (81) 
-0.132851

>  <r_i_glide_ligand_efficiency_sa>  (81) 
-0.360612

>  <r_i_glide_ligand_efficiency_ln>  (81) 
-0.664962

>  <r_i_glide_gscore>  (81) 
-2.65701

>  <r_i_glide_lipo>  (81) 
-6.37198e-05

>  <r_i_glide_hbond>  (81) 
0

>  <r_i_glide_metal>  (81) 
-0

>  <r_i_glide_rewards>  (81) 
-1.61391

>  <r_i_glide_evdw>  (81) 
-17.2235

>  <r_i_glide_ecoul>  (81) 
-1.19518

>  <r_i_glide_erotb>  (81) 
0

>  <r_i_glide_esite>  (81) 
-0.00259221

>  <r_i_glide_emodel>  (81) 
-20.9829

>  <r_i_glide_energy>  (81) 
-18.4187

>  <r_i_glide_einternal>  (81) 
0.000788666

>  <r_i_glide_intrahb_reward>  (81) 
-0

>  <i_i_glide_confnum>  (81) 
2

>  <i_i_glide_posenum>  (81) 
29

>  <r_i_glide_eff_state_penalty>  (81) 
0

>  <ligand_id>  (81) 
24

>  <original_smiles>  (81) 
COC1=CC=c2ccc3ccc4ncnc(c1c3-4)n2C

>  <smiles>  (81) 
[H]C1=C(OC([H])([H])[H])c2c3c4c([H])c([H])c-3nc([H])nc2n(C([H])([H])[H])c(c([H])c4[H])=C1[H]

$$$$
24:0:2
     RDKit          3D

 33 36  0  0  1  0  0  0  0  0999 V2000
    0.7072    0.6022    7.4607 C   0  0  0  0  0  0  0  0  0  0  0  0
    0.9413    0.0511    6.1621 O   0  0  0  0  0  0  0  0  0  0  0  0
    1.5675    0.9042    5.2832 C   0  0  0  0  0  0  0  0  0  0  0  0
    2.4714    0.3359    4.3519 C   0  0  0  0  0  0  0  0  0  0  0  0
    2.8182    0.9156    3.1130 C   0  0  0  0  0  0  0  0  0  0  0  0
    2.1520    2.0864    2.7071 C   0  0  0  0  0  0  0  0  0  0  0  0
    0.9331    1.6964    2.0850 C   0  0  0  0  0  0  0  0  0  0  0  0
   -0.4128    1.7356    2.5729 C   0  0  0  0  0  0  0  0  0  0  0  0
   -0.9463    2.1372    3.8391 C   0  0  0  0  0  0  0  0  0  0  0  0
   -2.3363    2.4570    4.0501 C   0  0  0  0  0  0  0  0  0  0  0  0
   -2.3450    3.2586    5.2990 C   0  0  0  0  0  0  0  0  0  0  0  0
   -0.9519    3.3544    5.6926 C   0  0  0  0  0  0  0  0  0  0  0  0
   -0.4470    4.3098    6.5152 N   0  0  0  0  0  0  0  0  0  0  0  0
    0.8282    4.7597    6.3965 C   0  0  0  0  0  0  0  0  0  0  0  0
    1.7894    4.5056    5.4648 N   0  0  0  0  0  0  0  0  0  0  0  0
    1.8686    3.3693    4.7006 C   0  0  0  0  0  0  0  0  0  0  0  0
    1.1550    2.2600    5.1356 C   0  0  0  0  0  0  0  0  0  0  0  0
   -0.2043    2.4620    4.9643 C   0  0  0  0  0  0  0  0  0  0  0  0
    2.3161    3.2326    3.4351 N   0  0  0  0  0  0  0  0  0  0  0  0
    2.7257    4.4211    2.7009 C   0  0  0  0  0  0  0  0  0  0  0  0
    0.1474   -0.0887    8.0892 H   0  0  0  0  0  0  0  0  0  0  0  0
    0.1551    1.5436    7.4760 H   0  0  0  0  0  0  0  0  0  0  0  0
    1.6729    0.7910    7.9285 H   0  0  0  0  0  0  0  0  0  0  0  0
    2.6833   -0.7197    4.4698 H   0  0  0  0  0  0  0  0  0  0  0  0
    3.0992    0.1956    2.3519 H   0  0  0  0  0  0  0  0  0  0  0  0
    1.0405    1.0884    1.1946 H   0  0  0  0  0  0  0  0  0  0  0  0
   -1.1396    1.4296    1.8392 H   0  0  0  0  0  0  0  0  0  0  0  0
   -3.1615    2.2554    3.3625 H   0  0  0  0  0  0  0  0  0  0  0  0
   -3.1977    3.7753    5.7385 H   0  0  0  0  0  0  0  0  0  0  0  0
    1.0354    5.6247    7.0139 H   0  0  0  0  0  0  0  0  0  0  0  0
    3.0366    5.2181    3.3735 H   0  0  0  0  0  0  0  0  0  0  0  0
    1.9075    4.7975    2.0810 H   0  0  0  0  0  0  0  0  0  0  0  0
    3.5835    4.2053    2.0638 H   0  0  0  0  0  0  0  0  0  0  0  0
  1  2  1  0
  1 21  1  0
  1 22  1  0
  1 23  1  0
  2  3  1  0
  3 17  1  0
  3  4  2  0
  4  5  1  0
  4 24  1  0
  5  6  2  0
  5 25  1  0
  6 19  1  0
  6  7  1  0
  7  8  2  0
  7 26  1  0
  8  9  1  0
  8 27  1  0
  9 18  2  0
  9 10  1  0
 10 11  2  0
 10 28  1  0
 11 12  1  0
 11 29  1  0
 12 18  1  0
 12 13  2  0
 13 14  1  0
 14 15  2  0
 14 30  1  0
 15 16  1  0
 16 17  2  0
 16 19  1  0
 17 18  1  0
 19 20  1  0
 20 31  1  0
 20 32  1  0
 20 33  1  0
M  END
>  <i_m_ct_stereo_status>  (82) 
1

>  <s_m_source_file>  (82) 
/var/tmp/pbs.5076255.sched01/tmpu5rzjxe4/0gixxd53k.sdf

>  <i_m_source_file_index>  (82) 
34

>  <i_lp_mmshare_version>  (82) 
48012

>  <i_f3d_flags>  (82) 
0

>  <s_epik_input>  (82) 
YzEyW2NIXVtjSF1jKE9bQ0gzXSljM2MobjJbQ0gzXSluW2NIXW5jNGMzYyhbY0hdW2NIXTEpW2NIXVtjSF00

>  <s_epik_cmdline>  (82) 
J2VwaWtfcHl0aG9uJywgJy1waHQnLCAnMi4wJywgJy1waCcsICc3LjAnLCAnLXRuJywgJzgnLCAnLW1hJywgJzIwMCcsICctaW1hZScsICc8aW5maWxlLm1hZT4nLCAnLW9tYWUnLCAnPG91dGZpbGUubWFlPic=

>  <r_lp_tautomer_probability>  (82) 
1

>  <r_epik_Ionization_Penalty>  (82) 
0

>  <r_epik_Ionization_Penalty_Charging>  (82) 
0

>  <r_epik_Ionization_Penalty_Neutral>  (82) 
0

>  <r_epik_State_Penalty>  (82) 
-0

>  <r_epik_Charging_Adjusted_Penalty>  (82) 
0

>  <i_epik_Tot_Q>  (82) 
0

>  <i_epik_Tot_abs_Q>  (82) 
0

>  <s_lp_Force_Field>  (82) 
OPLS3e

>  <r_lp_Energy>  (82) 
211.131

>  <b_lp_Chiralities_Consistent>  (82) 
1

>  <s_lp_Variant>  (82) 
24:0-1

>  <s_i_glide_gridfile>  (82) 
pfpi4k_grid

>  <i_i_glide_lignum>  (82) 
34

>  <i_i_glide_rotatable_bonds>  (82) 
1

>  <r_i_docking_score>  (82) 
-2.64527

>  <r_i_glide_ligand_efficiency>  (82) 
-0.132264

>  <r_i_glide_ligand_efficiency_sa>  (82) 
-0.359019

>  <r_i_glide_ligand_efficiency_ln>  (82) 
-0.662025

>  <r_i_glide_gscore>  (82) 
-2.64527

>  <r_i_glide_lipo>  (82) 
0

>  <r_i_glide_hbond>  (82) 
0

>  <r_i_glide_metal>  (82) 
-0

>  <r_i_glide_rewards>  (82) 
-1.61391

>  <r_i_glide_evdw>  (82) 
-18.5223

>  <r_i_glide_ecoul>  (82) 
-0.430386

>  <r_i_glide_erotb>  (82) 
0

>  <r_i_glide_esite>  (82) 
-0.0406963

>  <r_i_glide_emodel>  (82) 
-19.1359

>  <r_i_glide_energy>  (82) 
-18.9527

>  <r_i_glide_einternal>  (82) 
4.87984

>  <r_i_glide_intrahb_reward>  (82) 
-0

>  <i_i_glide_confnum>  (82) 
1

>  <i_i_glide_posenum>  (82) 
39

>  <r_i_glide_eff_state_penalty>  (82) 
0

>  <ligand_id>  (82) 
24

>  <original_smiles>  (82) 
COC1=CC=c2ccc3ccc4ncnc(c1c3-4)n2C

>  <smiles>  (82) 
[H]C1=C(OC([H])([H])[H])c2c3c4c([H])c([H])c-3nc([H])nc2n(C([H])([H])[H])c(c([H])c4[H])=C1[H]

$$$$
25:0:0
     RDKit          3D

 16 17  0  0  1  0  0  0  0  0999 V2000
    2.7982   -5.4064    0.5301 C   0  0  0  0  0  0  0  0  0  0  0  0
    1.9294   -6.4162    1.2019 C   0  0  0  0  0  0  0  0  0  0  0  0
    0.5771   -6.2653    1.3328 N   0  0  0  0  0  0  0  0  0  0  0  0
    0.2147   -7.3807    1.9697 C   0  0  0  0  0  0  0  0  0  0  0  0
   -0.9965   -7.7679    2.4026 N   0  0  0  0  0  0  0  0  0  0  0  0
   -1.0573   -8.9478    3.0175 C   0  0  0  0  0  0  0  0  0  0  0  0
    0.0637   -9.7770    3.2664 C   0  0  0  0  0  0  0  0  0  0  0  0
    1.3031   -9.3621    2.8337 C   0  0  0  0  0  0  0  0  0  0  0  0
    1.3621   -8.1640    2.1885 N   0  0  0  0  0  0  0  0  0  0  0  0
    2.4541   -7.5348    1.6881 N   0  0  0  0  0  0  0  0  0  0  0  0
    2.2096   -4.5660    0.1646 H   0  0  0  0  0  0  0  0  0  0  0  0
    3.3104   -5.8623   -0.3170 H   0  0  0  0  0  0  0  0  0  0  0  0
    3.5524   -5.0272    1.2210 H   0  0  0  0  0  0  0  0  0  0  0  0
   -2.0408   -9.2712    3.3505 H   0  0  0  0  0  0  0  0  0  0  0  0
   -0.0606  -10.7186    3.7914 H   0  0  0  0  0  0  0  0  0  0  0  0
    2.2231   -9.9225    2.9772 H   0  0  0  0  0  0  0  0  0  0  0  0
  1  2  1  0
  1 11  1  0
  1 12  1  0
  1 13  1  0
  2 10  2  0
  2  3  1  0
  3  4  2  0
  4  9  1  0
  4  5  1  0
  5  6  2  0
  6  7  1  0
  6 14  1  0
  7  8  2  0
  7 15  1  0
  8  9  1  0
  8 16  1  0
  9 10  1  0
M  END
>  <i_m_ct_stereo_status>  (83) 
1

>  <s_m_source_file>  (83) 
/var/tmp/pbs.5076255.sched01/tmpu5rzjxe4/0gixxd53k.sdf

>  <i_m_source_file_index>  (83) 
35

>  <i_lp_mmshare_version>  (83) 
48012

>  <i_f3d_flags>  (83) 
0

>  <s_epik_input>  (83) 
W0NIM11jKG4xKW5uKGMxMilbY0hdW2NIXVtjSF1uMg==

>  <s_epik_cmdline>  (83) 
J2VwaWtfcHl0aG9uJywgJy1waHQnLCAnMi4wJywgJy1waCcsICc3LjAnLCAnLXRuJywgJzgnLCAnLW1hJywgJzIwMCcsICctaW1hZScsICc8aW5maWxlLm1hZT4nLCAnLW9tYWUnLCAnPG91dGZpbGUubWFlPic=

>  <r_lp_tautomer_probability>  (83) 
1

>  <r_epik_Ionization_Penalty>  (83) 
1.16863e-06

>  <r_epik_Ionization_Penalty_Charging>  (83) 
0

>  <r_epik_Ionization_Penalty_Neutral>  (83) 
1.16863e-06

>  <r_epik_State_Penalty>  (83) 
-0

>  <r_epik_Charging_Adjusted_Penalty>  (83) 
0

>  <i_epik_Tot_Q>  (83) 
0

>  <i_epik_Tot_abs_Q>  (83) 
0

>  <s_lp_Force_Field>  (83) 
OPLS3e

>  <r_lp_Energy>  (83) 
7.07764

>  <b_lp_Chiralities_Consistent>  (83) 
1

>  <s_lp_Variant>  (83) 
25:0-1

>  <s_i_glide_gridfile>  (83) 
pfpi4k_grid

>  <i_i_glide_lignum>  (83) 
35

>  <i_i_glide_rotatable_bonds>  (83) 
0

>  <r_i_docking_score>  (83) 
-4.36243

>  <r_i_glide_ligand_efficiency>  (83) 
-0.436243

>  <r_i_glide_ligand_efficiency_sa>  (83) 
-0.939857

>  <r_i_glide_ligand_efficiency_ln>  (83) 
-1.32091

>  <r_i_glide_gscore>  (83) 
-4.36243

>  <r_i_glide_lipo>  (83) 
-0.0284123

>  <r_i_glide_hbond>  (83) 
-0.16

>  <r_i_glide_metal>  (83) 
-0

>  <r_i_glide_rewards>  (83) 
-2.25

>  <r_i_glide_evdw>  (83) 
-15.0101

>  <r_i_glide_ecoul>  (83) 
-6.92587

>  <r_i_glide_erotb>  (83) 
0

>  <r_i_glide_esite>  (83) 
-0.134628

>  <r_i_glide_emodel>  (83) 
-29.2973

>  <r_i_glide_energy>  (83) 
-21.936

>  <r_i_glide_einternal>  (83) 
0

>  <r_i_glide_intrahb_reward>  (83) 
-0

>  <i_i_glide_confnum>  (83) 
2

>  <i_i_glide_posenum>  (83) 
21

>  <r_i_glide_eff_state_penalty>  (83) 
0

>  <ligand_id>  (83) 
25

>  <original_smiles>  (83) 
Cc1nc2ncccn2n1

>  <smiles>  (83) 
[H]c1nc2nc(C([H])([H])[H])nn2c([H])c1[H]

$$$$
25:0:1
     RDKit          3D

 16 17  0  0  1  0  0  0  0  0999 V2000
   -1.9865   -8.5176    3.4160 C   0  0  0  0  0  0  0  0  0  0  0  0
   -0.7042   -8.0726    2.8063 C   0  0  0  0  0  0  0  0  0  0  0  0
   -0.5703   -6.8762    2.1560 N   0  0  0  0  0  0  0  0  0  0  0  0
    0.7076   -6.8931    1.7787 C   0  0  0  0  0  0  0  0  0  0  0  0
    1.4133   -5.9711    1.0952 N   0  0  0  0  0  0  0  0  0  0  0  0
    2.6994   -6.2466    0.8832 C   0  0  0  0  0  0  0  0  0  0  0  0
    3.3462   -7.4343    1.3127 C   0  0  0  0  0  0  0  0  0  0  0  0
    2.6079   -8.3744    1.9979 C   0  0  0  0  0  0  0  0  0  0  0  0
    1.2966   -8.0861    2.2275 N   0  0  0  0  0  0  0  0  0  0  0  0
    0.3811   -8.8348    2.8871 N   0  0  0  0  0  0  0  0  0  0  0  0
   -2.7650   -7.7745    3.2668 H   0  0  0  0  0  0  0  0  0  0  0  0
   -1.8653   -8.6643    4.4895 H   0  0  0  0  0  0  0  0  0  0  0  0
   -2.3149   -9.4538    2.9644 H   0  0  0  0  0  0  0  0  0  0  0  0
    3.2641   -5.5011    0.3310 H   0  0  0  0  0  0  0  0  0  0  0  0
    4.3951   -7.6118    1.0949 H   0  0  0  0  0  0  0  0  0  0  0  0
    2.9950   -9.3207    2.3641 H   0  0  0  0  0  0  0  0  0  0  0  0
  1  2  1  0
  1 11  1  0
  1 12  1  0
  1 13  1  0
  2 10  2  0
  2  3  1  0
  3  4  2  0
  4  9  1  0
  4  5  1  0
  5  6  2  0
  6  7  1  0
  6 14  1  0
  7  8  2  0
  7 15  1  0
  8  9  1  0
  8 16  1  0
  9 10  1  0
M  END
>  <i_m_ct_stereo_status>  (84) 
1

>  <s_m_source_file>  (84) 
/var/tmp/pbs.5076255.sched01/tmpu5rzjxe4/0gixxd53k.sdf

>  <i_m_source_file_index>  (84) 
35

>  <i_lp_mmshare_version>  (84) 
48012

>  <i_f3d_flags>  (84) 
0

>  <s_epik_input>  (84) 
W0NIM11jKG4xKW5uKGMxMilbY0hdW2NIXVtjSF1uMg==

>  <s_epik_cmdline>  (84) 
J2VwaWtfcHl0aG9uJywgJy1waHQnLCAnMi4wJywgJy1waCcsICc3LjAnLCAnLXRuJywgJzgnLCAnLW1hJywgJzIwMCcsICctaW1hZScsICc8aW5maWxlLm1hZT4nLCAnLW9tYWUnLCAnPG91dGZpbGUubWFlPic=

>  <r_lp_tautomer_probability>  (84) 
1

>  <r_epik_Ionization_Penalty>  (84) 
1.16863e-06

>  <r_epik_Ionization_Penalty_Charging>  (84) 
0

>  <r_epik_Ionization_Penalty_Neutral>  (84) 
1.16863e-06

>  <r_epik_State_Penalty>  (84) 
-0

>  <r_epik_Charging_Adjusted_Penalty>  (84) 
0

>  <i_epik_Tot_Q>  (84) 
0

>  <i_epik_Tot_abs_Q>  (84) 
0

>  <s_lp_Force_Field>  (84) 
OPLS3e

>  <r_lp_Energy>  (84) 
7.07764

>  <b_lp_Chiralities_Consistent>  (84) 
1

>  <s_lp_Variant>  (84) 
25:0-1

>  <s_i_glide_gridfile>  (84) 
pfpi4k_grid

>  <i_i_glide_lignum>  (84) 
35

>  <i_i_glide_rotatable_bonds>  (84) 
0

>  <r_i_docking_score>  (84) 
-4.29736

>  <r_i_glide_ligand_efficiency>  (84) 
-0.429736

>  <r_i_glide_ligand_efficiency_sa>  (84) 
-0.925839

>  <r_i_glide_ligand_efficiency_ln>  (84) 
-1.30121

>  <r_i_glide_gscore>  (84) 
-4.29736

>  <r_i_glide_lipo>  (84) 
-0.0639652

>  <r_i_glide_hbond>  (84) 
-0.316828

>  <r_i_glide_metal>  (84) 
-0

>  <r_i_glide_rewards>  (84) 
-2.25

>  <r_i_glide_evdw>  (84) 
-13.9052

>  <r_i_glide_ecoul>  (84) 
-5.38184

>  <r_i_glide_erotb>  (84) 
0

>  <r_i_glide_esite>  (84) 
-0.164031

>  <r_i_glide_emodel>  (84) 
-26.5396

>  <r_i_glide_energy>  (84) 
-19.2871

>  <r_i_glide_einternal>  (84) 
0

>  <r_i_glide_intrahb_reward>  (84) 
-0

>  <i_i_glide_confnum>  (84) 
1

>  <i_i_glide_posenum>  (84) 
4

>  <r_i_glide_eff_state_penalty>  (84) 
0

>  <ligand_id>  (84) 
25

>  <original_smiles>  (84) 
Cc1nc2ncccn2n1

>  <smiles>  (84) 
[H]c1nc2nc(C([H])([H])[H])nn2c([H])c1[H]

$$$$
25:0:2
     RDKit          3D

 16 17  0  0  1  0  0  0  0  0999 V2000
   -2.5107    2.7064    9.1327 C   0  0  0  0  0  0  0  0  0  0  0  0
   -2.2316    2.6249    7.6679 C   0  0  0  0  0  0  0  0  0  0  0  0
   -2.1857    3.7308    6.8711 N   0  0  0  0  0  0  0  0  0  0  0  0
   -1.9054    3.2383    5.6663 C   0  0  0  0  0  0  0  0  0  0  0  0
   -1.7484    3.8652    4.4836 N   0  0  0  0  0  0  0  0  0  0  0  0
   -1.4551    3.0942    3.4387 C   0  0  0  0  0  0  0  0  0  0  0  0
   -1.3194    1.6855    3.5014 C   0  0  0  0  0  0  0  0  0  0  0  0
   -1.4920    1.0574    4.7148 C   0  0  0  0  0  0  0  0  0  0  0  0
   -1.7857    1.8444    5.7854 N   0  0  0  0  0  0  0  0  0  0  0  0
   -2.0176    1.4563    7.0704 N   0  0  0  0  0  0  0  0  0  0  0  0
   -2.6674    3.7398    9.4357 H   0  0  0  0  0  0  0  0  0  0  0  0
   -1.6743    2.3079    9.7060 H   0  0  0  0  0  0  0  0  0  0  0  0
   -3.4099    2.1484    9.3798 H   0  0  0  0  0  0  0  0  0  0  0  0
   -1.3202    3.6010    2.4866 H   0  0  0  0  0  0  0  0  0  0  0  0
   -1.0968    1.1137    2.6062 H   0  0  0  0  0  0  0  0  0  0  0  0
   -1.4219   -0.0139    4.8677 H   0  0  0  0  0  0  0  0  0  0  0  0
  1  2  1  0
  1 11  1  0
  1 12  1  0
  1 13  1  0
  2 10  2  0
  2  3  1  0
  3  4  2  0
  4  9  1  0
  4  5  1  0
  5  6  2  0
  6  7  1  0
  6 14  1  0
  7  8  2  0
  7 15  1  0
  8  9  1  0
  8 16  1  0
  9 10  1  0
M  END
>  <i_m_ct_stereo_status>  (85) 
1

>  <s_m_source_file>  (85) 
/var/tmp/pbs.5076255.sched01/tmpu5rzjxe4/0gixxd53k.sdf

>  <i_m_source_file_index>  (85) 
35

>  <i_lp_mmshare_version>  (85) 
48012

>  <i_f3d_flags>  (85) 
0

>  <s_epik_input>  (85) 
W0NIM11jKG4xKW5uKGMxMilbY0hdW2NIXVtjSF1uMg==

>  <s_epik_cmdline>  (85) 
J2VwaWtfcHl0aG9uJywgJy1waHQnLCAnMi4wJywgJy1waCcsICc3LjAnLCAnLXRuJywgJzgnLCAnLW1hJywgJzIwMCcsICctaW1hZScsICc8aW5maWxlLm1hZT4nLCAnLW9tYWUnLCAnPG91dGZpbGUubWFlPic=

>  <r_lp_tautomer_probability>  (85) 
1

>  <r_epik_Ionization_Penalty>  (85) 
1.16863e-06

>  <r_epik_Ionization_Penalty_Charging>  (85) 
0

>  <r_epik_Ionization_Penalty_Neutral>  (85) 
1.16863e-06

>  <r_epik_State_Penalty>  (85) 
-0

>  <r_epik_Charging_Adjusted_Penalty>  (85) 
0

>  <i_epik_Tot_Q>  (85) 
0

>  <i_epik_Tot_abs_Q>  (85) 
0

>  <s_lp_Force_Field>  (85) 
OPLS3e

>  <r_lp_Energy>  (85) 
7.07764

>  <b_lp_Chiralities_Consistent>  (85) 
1

>  <s_lp_Variant>  (85) 
25:0-1

>  <s_i_glide_gridfile>  (85) 
pfpi4k_grid

>  <i_i_glide_lignum>  (85) 
35

>  <i_i_glide_rotatable_bonds>  (85) 
0

>  <r_i_docking_score>  (85) 
-3.85089

>  <r_i_glide_ligand_efficiency>  (85) 
-0.385089

>  <r_i_glide_ligand_efficiency_sa>  (85) 
-0.829648

>  <r_i_glide_ligand_efficiency_ln>  (85) 
-1.16602

>  <r_i_glide_gscore>  (85) 
-3.85089

>  <r_i_glide_lipo>  (85) 
0

>  <r_i_glide_hbond>  (85) 
-0.0649754

>  <r_i_glide_metal>  (85) 
-0

>  <r_i_glide_rewards>  (85) 
-2.34391

>  <r_i_glide_evdw>  (85) 
-13.1223

>  <r_i_glide_ecoul>  (85) 
-5.14116

>  <r_i_glide_erotb>  (85) 
0

>  <r_i_glide_esite>  (85) 
-0.014718

>  <r_i_glide_emodel>  (85) 
-24.7595

>  <r_i_glide_energy>  (85) 
-18.2635

>  <r_i_glide_einternal>  (85) 
0

>  <r_i_glide_intrahb_reward>  (85) 
-0

>  <i_i_glide_confnum>  (85) 
1

>  <i_i_glide_posenum>  (85) 
2

>  <r_i_glide_eff_state_penalty>  (85) 
0

>  <ligand_id>  (85) 
25

>  <original_smiles>  (85) 
Cc1nc2ncccn2n1

>  <smiles>  (85) 
[H]c1nc2nc(C([H])([H])[H])nn2c([H])c1[H]

$$$$
26:0:0
     RDKit          3D

 54 56  0  0  1  0  0  0  0  0999 V2000
    1.4416   -6.1971    3.4735 C   0  0  0  0  0  0  0  0  0  0  0  0
    2.5960   -5.2005    3.1767 C   0  0  0  0  0  0  0  0  0  0  0  0
    1.9781   -3.7855    3.1729 C   0  0  0  0  0  0  0  0  0  0  0  0
    3.5720   -5.2578    4.3758 C   0  0  0  0  0  0  0  0  0  0  0  0
    3.1768   -5.4860    5.5188 O   0  0  0  0  0  0  0  0  0  0  0  0
    5.0406   -4.9395    4.1394 C   0  0  0  0  0  0  0  0  0  0  0  0
    5.5500   -5.7033    2.9211 C   0  0  0  0  0  0  0  0  0  0  0  0
    4.8074   -5.3198    1.6153 C   0  0  2  0  0  0  0  0  0  0  0  0
    5.3875   -6.2595    0.5243 C   0  0  0  0  0  0  0  0  0  0  0  0
    5.0136   -3.8212    1.2089 C   0  0  1  0  0  0  0  0  0  0  0  0
    6.5052   -3.4214    1.1135 C   0  0  0  0  0  0  0  0  0  0  0  0
    6.7023   -1.9342    0.8132 C   0  0  0  0  0  0  0  0  0  0  0  0
    5.9460   -1.5253   -0.4460 C   0  0  1  0  0  0  0  0  0  0  0  0
    6.6091   -2.1259   -1.5404 O   0  0  0  0  0  0  0  0  0  0  0  0
    4.4343   -1.8696   -0.4042 C   0  0  0  0  0  0  0  0  0  0  0  0
    3.7753   -0.9466    0.6588 C   0  0  0  0  0  0  0  0  0  0  0  0
    3.8312   -1.4699   -1.7745 C   0  0  0  0  0  0  0  0  0  0  0  0
    4.2355   -3.4025   -0.0841 C   0  0  2  0  0  0  0  0  0  0  0  0
    2.7444   -3.8550   -0.0207 C   0  0  1  0  0  0  0  0  0  0  0  0
    2.1375   -3.8573   -1.2964 O   0  0  0  0  0  0  0  0  0  0  0  0
    2.5089   -5.2816    0.5323 C   0  0  0  0  0  0  0  0  0  0  0  0
    3.2892   -5.6310    1.8189 C   0  0  2  0  0  0  0  0  0  0  0  0
    0.6921   -6.2173    2.6844 H   0  0  0  0  0  0  0  0  0  0  0  0
    0.9195   -5.9561    4.4016 H   0  0  0  0  0  0  0  0  0  0  0  0
    1.8198   -7.2157    3.5884 H   0  0  0  0  0  0  0  0  0  0  0  0
    1.1336   -3.7222    2.4904 H   0  0  0  0  0  0  0  0  0  0  0  0
    2.6944   -3.0167    2.8968 H   0  0  0  0  0  0  0  0  0  0  0  0
    1.5976   -3.5187    4.1610 H   0  0  0  0  0  0  0  0  0  0  0  0
    5.1615   -3.8656    4.0186 H   0  0  0  0  0  0  0  0  0  0  0  0
    5.6102   -5.2248    5.0219 H   0  0  0  0  0  0  0  0  0  0  0  0
    6.6312   -5.5982    2.8274 H   0  0  0  0  0  0  0  0  0  0  0  0
    5.3941   -6.7681    3.1107 H   0  0  0  0  0  0  0  0  0  0  0  0
    4.9829   -6.0684   -0.4691 H   0  0  0  0  0  0  0  0  0  0  0  0
    5.1820   -7.3024    0.7540 H   0  0  0  0  0  0  0  0  0  0  0  0
    6.4705   -6.1633    0.4543 H   0  0  0  0  0  0  0  0  0  0  0  0
    4.6206   -3.2365    2.0300 H   0  0  0  0  0  0  0  0  0  0  0  0
    7.0085   -3.6213    2.0570 H   0  0  0  0  0  0  0  0  0  0  0  0
    7.0187   -4.0129    0.3524 H   0  0  0  0  0  0  0  0  0  0  0  0
    6.3766   -1.3335    1.6588 H   0  0  0  0  0  0  0  0  0  0  0  0
    7.7640   -1.7208    0.6926 H   0  0  0  0  0  0  0  0  0  0  0  0
    6.0476   -0.4481   -0.5636 H   0  0  0  0  0  0  0  0  0  0  0  0
    6.4395   -3.0576   -1.5222 H   0  0  0  0  0  0  0  0  0  0  0  0
    2.6887   -1.0388    0.6766 H   0  0  0  0  0  0  0  0  0  0  0  0
    3.9903    0.1044    0.4519 H   0  0  0  0  0  0  0  0  0  0  0  0
    4.1328   -1.1406    1.6705 H   0  0  0  0  0  0  0  0  0  0  0  0
    2.7432   -1.4241   -1.7429 H   0  0  0  0  0  0  0  0  0  0  0  0
    4.1031   -2.1824   -2.5527 H   0  0  0  0  0  0  0  0  0  0  0  0
    4.1730   -0.4841   -2.0911 H   0  0  0  0  0  0  0  0  0  0  0  0
    4.6795   -3.9458   -0.9155 H   0  0  0  0  0  0  0  0  0  0  0  0
    2.1907   -3.1505    0.5895 H   0  0  0  0  0  0  0  0  0  0  0  0
    2.5553   -4.5182   -1.8406 H   0  0  0  0  0  0  0  0  0  0  0  0
    1.4417   -5.4408    0.6842 H   0  0  0  0  0  0  0  0  0  0  0  0
    2.7773   -6.0086   -0.2358 H   0  0  0  0  0  0  0  0  0  0  0  0
    3.2429   -6.7204    1.8612 H   0  0  0  0  0  0  0  0  0  0  0  0
  1  2  1  0
  1 23  1  0
  1 24  1  0
  1 25  1  0
  2 22  1  0
  2  3  1  0
  2  4  1  0
  3 26  1  0
  3 27  1  0
  3 28  1  0
  4  5  2  0
  4  6  1  0
  6  7  1  0
  6 29  1  0
  6 30  1  0
  7  8  1  0
  7 31  1  0
  7 32  1  0
  8 22  1  0
  8  9  1  6
  8 10  1  0
  9 33  1  0
  9 34  1  0
  9 35  1  0
 10 18  1  0
 10 11  1  0
 10 36  1  1
 11 12  1  0
 11 37  1  0
 11 38  1  0
 12 13  1  0
 12 39  1  0
 12 40  1  0
 13 14  1  0
 13 15  1  0
 13 41  1  6
 14 42  1  0
 15 16  1  0
 15 17  1  0
 15 18  1  0
 16 43  1  0
 16 44  1  0
 16 45  1  0
 17 46  1  0
 17 47  1  0
 17 48  1  0
 18 19  1  0
 18 49  1  6
 19 20  1  0
 19 21  1  0
 19 50  1  1
 20 51  1  0
 21 22  1  0
 21 52  1  0
 21 53  1  0
 22 54  1  1
M  END
>  <i_m_ct_stereo_status>  (86) 
1

>  <s_m_source_file>  (86) 
/var/tmp/pbs.5076255.sched01/tmpu5rzjxe4/0gixxd53k.sdf

>  <i_m_source_file_index>  (86) 
36

>  <i_lp_mmshare_version>  (86) 
48012

>  <i_f3d_flags>  (86) 
0

>  <s_epik_input>  (86) 
W0NIMl0xW0NIMl1DKD1PKUMoW0NIM10pKFtDSDNdKVtDQEhdMltDSDJdW0NASF0oW09IXSlbQ0BIXShbQ0BIXTNbQ0BAXTEyW0NIM10pQyhbQ0gzXSkoW0NIM10pW0NASF0oW09IXSlbQ0gyXVtDSDJdMw==

>  <s_epik_cmdline>  (86) 
J2VwaWtfcHl0aG9uJywgJy1waHQnLCAnMi4wJywgJy1waCcsICc3LjAnLCAnLXRuJywgJzgnLCAnLW1hJywgJzIwMCcsICctaW1hZScsICc8aW5maWxlLm1hZT4nLCAnLW9tYWUnLCAnPG91dGZpbGUubWFlPic=

>  <r_lp_tautomer_probability>  (86) 
1

>  <r_epik_Ionization_Penalty>  (86) 
3.97405e-06

>  <r_epik_Ionization_Penalty_Charging>  (86) 
0

>  <r_epik_Ionization_Penalty_Neutral>  (86) 
3.97405e-06

>  <r_epik_State_Penalty>  (86) 
-0

>  <r_epik_Charging_Adjusted_Penalty>  (86) 
0

>  <i_epik_Tot_Q>  (86) 
0

>  <i_epik_Tot_abs_Q>  (86) 
0

>  <s_lp_Force_Field>  (86) 
OPLS3e

>  <r_lp_Energy>  (86) 
45.5339

>  <b_lp_Chiralities_Consistent>  (86) 
1

>  <s_lp_Variant>  (86) 
26:0-1

>  <s_i_glide_gridfile>  (86) 
pfpi4k_grid

>  <i_i_glide_lignum>  (86) 
36

>  <i_i_glide_rotatable_bonds>  (86) 
2

>  <r_i_docking_score>  (86) 
-4.17225

>  <r_i_glide_ligand_efficiency>  (86) 
-0.189648

>  <r_i_glide_ligand_efficiency_sa>  (86) 
-0.531401

>  <r_i_glide_ligand_efficiency_ln>  (86) 
-1.01985

>  <r_i_glide_gscore>  (86) 
-4.17225

>  <r_i_glide_lipo>  (86) 
-0.353776

>  <r_i_glide_hbond>  (86) 
-0.48

>  <r_i_glide_metal>  (86) 
-0

>  <r_i_glide_rewards>  (86) 
-1.30598

>  <r_i_glide_evdw>  (86) 
-20.9406

>  <r_i_glide_ecoul>  (86) 
-6.56975

>  <r_i_glide_erotb>  (86) 
0

>  <r_i_glide_esite>  (86) 
0

>  <r_i_glide_emodel>  (86) 
-34.5422

>  <r_i_glide_energy>  (86) 
-27.5104

>  <r_i_glide_einternal>  (86) 
0.0503657

>  <r_i_glide_intrahb_reward>  (86) 
-0

>  <i_i_glide_confnum>  (86) 
1

>  <i_i_glide_posenum>  (86) 
26

>  <r_i_glide_eff_state_penalty>  (86) 
0

>  <ligand_id>  (86) 
26

>  <original_smiles>  (86) 
CC1(C)C(=O)CCC2(C)C3CCC(O)C(C)(C)C3C(O)CC12

>  <smiles>  (86) 
[H]OC1([H])C([H])([H])C2([H])C(C([H])([H])[H])(C([H])([H])[H])C(=O)C([H])([H])C([H])([H])C2(C([H])([H])[H])C2([H])C([H])([H])C([H])([H])C([H])(O[H])C(C([H])([H])[H])(C([H])([H])[H])C12[H]

$$$$
26:0:1
     RDKit          3D

 54 56  0  0  1  0  0  0  0  0999 V2000
    1.6626   -5.4401    4.1406 C   0  0  0  0  0  0  0  0  0  0  0  0
    2.8478   -4.6934    3.4712 C   0  0  0  0  0  0  0  0  0  0  0  0
    2.3839   -3.2410    3.2289 C   0  0  0  0  0  0  0  0  0  0  0  0
    3.9894   -4.6320    4.5122 C   0  0  0  0  0  0  0  0  0  0  0  0
    3.7629   -4.5709    5.7212 O   0  0  0  0  0  0  0  0  0  0  0  0
    5.4215   -4.5781    4.0160 C   0  0  0  0  0  0  0  0  0  0  0  0
    5.6541   -5.6393    2.9424 C   0  0  0  0  0  0  0  0  0  0  0  0
    4.7598   -5.4353    1.6941 C   0  0  2  0  0  0  0  0  0  0  0  0
    5.0494   -6.6519    0.7778 C   0  0  0  0  0  0  0  0  0  0  0  0
    5.0539   -4.0884    0.9405 C   0  0  1  0  0  0  0  0  0  0  0  0
    6.5491   -3.9153    0.5683 C   0  0  0  0  0  0  0  0  0  0  0  0
    6.8521   -2.5716   -0.1001 C   0  0  0  0  0  0  0  0  0  0  0  0
    5.9422   -2.3309   -1.3100 C   0  0  1  0  0  0  0  0  0  0  0  0
    6.3215   -3.2250   -2.3398 O   0  0  0  0  0  0  0  0  0  0  0  0
    4.4305   -2.4456   -0.9768 C   0  0  0  0  0  0  0  0  0  0  0  0
    4.0540   -1.2464   -0.0656 C   0  0  0  0  0  0  0  0  0  0  0  0
    3.6494   -2.2600   -2.3001 C   0  0  0  0  0  0  0  0  0  0  0  0
    4.1239   -3.8393   -0.2963 C   0  0  2  0  0  0  0  0  0  0  0  0
    2.6224   -4.0731    0.0618 C   0  0  1  0  0  0  0  0  0  0  0  0
    1.8220   -4.2541   -1.1023 O   0  0  0  0  0  0  0  0  0  0  0  0
    2.3419   -5.3149    0.9469 C   0  0  0  0  0  0  0  0  0  0  0  0
    3.2731   -5.4874    2.1641 C   0  0  2  0  0  0  0  0  0  0  0  0
    0.7952   -5.5172    3.4872 H   0  0  0  0  0  0  0  0  0  0  0  0
    1.3276   -4.9420    5.0527 H   0  0  0  0  0  0  0  0  0  0  0  0
    1.9484   -6.4544    4.4290 H   0  0  0  0  0  0  0  0  0  0  0  0
    1.4490   -3.2039    2.6713 H   0  0  0  0  0  0  0  0  0  0  0  0
    3.1246   -2.6492    2.6967 H   0  0  0  0  0  0  0  0  0  0  0  0
    2.1978   -2.7257    4.1738 H   0  0  0  0  0  0  0  0  0  0  0  0
    5.6339   -3.5794    3.6407 H   0  0  0  0  0  0  0  0  0  0  0  0
    6.0964   -4.7505    4.8539 H   0  0  0  0  0  0  0  0  0  0  0  0
    6.7131   -5.6987    2.6841 H   0  0  0  0  0  0  0  0  0  0  0  0
    5.4249   -6.6126    3.3847 H   0  0  0  0  0  0  0  0  0  0  0  0
    4.5147   -6.6169   -0.1704 H   0  0  0  0  0  0  0  0  0  0  0  0
    4.7816   -7.5941    1.2595 H   0  0  0  0  0  0  0  0  0  0  0  0
    6.1102   -6.7104    0.5393 H   0  0  0  0  0  0  0  0  0  0  0  0
    4.8552   -3.3011    1.6581 H   0  0  0  0  0  0  0  0  0  0  0  0
    7.1741   -3.9741    1.4598 H   0  0  0  0  0  0  0  0  0  0  0  0
    6.8672   -4.7175   -0.0972 H   0  0  0  0  0  0  0  0  0  0  0  0
    6.7295   -1.7704    0.6288 H   0  0  0  0  0  0  0  0  0  0  0  0
    7.9009   -2.5422   -0.3956 H   0  0  0  0  0  0  0  0  0  0  0  0
    6.1347   -1.3285   -1.6894 H   0  0  0  0  0  0  0  0  0  0  0  0
    7.2116   -3.0630   -2.5928 H   0  0  0  0  0  0  0  0  0  0  0  0
    2.9814   -1.1909    0.1179 H   0  0  0  0  0  0  0  0  0  0  0  0
    4.3360   -0.2994   -0.5322 H   0  0  0  0  0  0  0  0  0  0  0  0
    4.5468   -1.2788    0.9067 H   0  0  0  0  0  0  0  0  0  0  0  0
    2.5951   -2.0557   -2.1182 H   0  0  0  0  0  0  0  0  0  0  0  0
    3.7126   -3.1509   -2.9266 H   0  0  0  0  0  0  0  0  0  0  0  0
    4.0335   -1.4196   -2.8781 H   0  0  0  0  0  0  0  0  0  0  0  0
    4.3775   -4.5960   -1.0399 H   0  0  0  0  0  0  0  0  0  0  0  0
    2.2344   -3.1963    0.5736 H   0  0  0  0  0  0  0  0  0  0  0  0
    2.2482   -4.8805   -1.6859 H   0  0  0  0  0  0  0  0  0  0  0  0
    1.3164   -5.2963    1.2970 H   0  0  0  0  0  0  0  0  0  0  0  0
    2.3993   -6.2123    0.3313 H   0  0  0  0  0  0  0  0  0  0  0  0
    3.1206   -6.5259    2.4594 H   0  0  0  0  0  0  0  0  0  0  0  0
  1  2  1  0
  1 23  1  0
  1 24  1  0
  1 25  1  0
  2 22  1  0
  2  3  1  0
  2  4  1  0
  3 26  1  0
  3 27  1  0
  3 28  1  0
  4  5  2  0
  4  6  1  0
  6  7  1  0
  6 29  1  0
  6 30  1  0
  7  8  1  0
  7 31  1  0
  7 32  1  0
  8 22  1  0
  8  9  1  6
  8 10  1  0
  9 33  1  0
  9 34  1  0
  9 35  1  0
 10 18  1  0
 10 11  1  0
 10 36  1  1
 11 12  1  0
 11 37  1  0
 11 38  1  0
 12 13  1  0
 12 39  1  0
 12 40  1  0
 13 14  1  0
 13 15  1  0
 13 41  1  6
 14 42  1  0
 15 16  1  0
 15 17  1  0
 15 18  1  0
 16 43  1  0
 16 44  1  0
 16 45  1  0
 17 46  1  0
 17 47  1  0
 17 48  1  0
 18 19  1  0
 18 49  1  6
 19 20  1  0
 19 21  1  0
 19 50  1  1
 20 51  1  0
 21 22  1  0
 21 52  1  0
 21 53  1  0
 22 54  1  1
M  END
>  <i_m_ct_stereo_status>  (87) 
1

>  <s_m_source_file>  (87) 
/var/tmp/pbs.5076255.sched01/tmpu5rzjxe4/0gixxd53k.sdf

>  <i_m_source_file_index>  (87) 
36

>  <i_lp_mmshare_version>  (87) 
48012

>  <i_f3d_flags>  (87) 
0

>  <s_epik_input>  (87) 
W0NIMl0xW0NIMl1DKD1PKUMoW0NIM10pKFtDSDNdKVtDQEhdMltDSDJdW0NASF0oW09IXSlbQ0BIXShbQ0BIXTNbQ0BAXTEyW0NIM10pQyhbQ0gzXSkoW0NIM10pW0NASF0oW09IXSlbQ0gyXVtDSDJdMw==

>  <s_epik_cmdline>  (87) 
J2VwaWtfcHl0aG9uJywgJy1waHQnLCAnMi4wJywgJy1waCcsICc3LjAnLCAnLXRuJywgJzgnLCAnLW1hJywgJzIwMCcsICctaW1hZScsICc8aW5maWxlLm1hZT4nLCAnLW9tYWUnLCAnPG91dGZpbGUubWFlPic=

>  <r_lp_tautomer_probability>  (87) 
1

>  <r_epik_Ionization_Penalty>  (87) 
3.97405e-06

>  <r_epik_Ionization_Penalty_Charging>  (87) 
0

>  <r_epik_Ionization_Penalty_Neutral>  (87) 
3.97405e-06

>  <r_epik_State_Penalty>  (87) 
-0

>  <r_epik_Charging_Adjusted_Penalty>  (87) 
0

>  <i_epik_Tot_Q>  (87) 
0

>  <i_epik_Tot_abs_Q>  (87) 
0

>  <s_lp_Force_Field>  (87) 
OPLS3e

>  <r_lp_Energy>  (87) 
45.5339

>  <b_lp_Chiralities_Consistent>  (87) 
1

>  <s_lp_Variant>  (87) 
26:0-1

>  <s_i_glide_gridfile>  (87) 
pfpi4k_grid

>  <i_i_glide_lignum>  (87) 
36

>  <i_i_glide_rotatable_bonds>  (87) 
2

>  <r_i_docking_score>  (87) 
-3.96837

>  <r_i_glide_ligand_efficiency>  (87) 
-0.18038

>  <r_i_glide_ligand_efficiency_sa>  (87) 
-0.505433

>  <r_i_glide_ligand_efficiency_ln>  (87) 
-0.970013

>  <r_i_glide_gscore>  (87) 
-3.96837

>  <r_i_glide_lipo>  (87) 
-0.314976

>  <r_i_glide_hbond>  (87) 
-0.417161

>  <r_i_glide_metal>  (87) 
-0

>  <r_i_glide_rewards>  (87) 
-1.30598

>  <r_i_glide_evdw>  (87) 
-22.4746

>  <r_i_glide_ecoul>  (87) 
-5.37676

>  <r_i_glide_erotb>  (87) 
0

>  <r_i_glide_esite>  (87) 
0

>  <r_i_glide_emodel>  (87) 
-34.2052

>  <r_i_glide_energy>  (87) 
-27.8513

>  <r_i_glide_einternal>  (87) 
0.507915

>  <r_i_glide_intrahb_reward>  (87) 
-0

>  <i_i_glide_confnum>  (87) 
1

>  <i_i_glide_posenum>  (87) 
7

>  <r_i_glide_eff_state_penalty>  (87) 
0

>  <ligand_id>  (87) 
26

>  <original_smiles>  (87) 
CC1(C)C(=O)CCC2(C)C3CCC(O)C(C)(C)C3C(O)CC12

>  <smiles>  (87) 
[H]OC1([H])C([H])([H])C2([H])C(C([H])([H])[H])(C([H])([H])[H])C(=O)C([H])([H])C([H])([H])C2(C([H])([H])[H])C2([H])C([H])([H])C([H])([H])C([H])(O[H])C(C([H])([H])[H])(C([H])([H])[H])C12[H]

$$$$
26:0:2
     RDKit          3D

 54 56  0  0  1  0  0  0  0  0999 V2000
    6.1847   -2.5750   -1.8043 C   0  0  0  0  0  0  0  0  0  0  0  0
    4.9125   -2.4271   -0.9363 C   0  0  0  0  0  0  0  0  0  0  0  0
    4.4716   -0.9576   -1.0257 C   0  0  0  0  0  0  0  0  0  0  0  0
    3.8007   -3.2609   -1.6030 C   0  0  0  0  0  0  0  0  0  0  0  0
    3.7529   -3.3882   -2.8263 O   0  0  0  0  0  0  0  0  0  0  0  0
    2.7097   -3.8451   -0.7167 C   0  0  0  0  0  0  0  0  0  0  0  0
    3.3327   -4.5259    0.4996 C   0  0  0  0  0  0  0  0  0  0  0  0
    4.1289   -3.5454    1.4007 C   0  0  2  0  0  0  0  0  0  0  0  0
    4.7579   -4.4247    2.5174 C   0  0  0  0  0  0  0  0  0  0  0  0
    3.2309   -2.4237    2.0281 C   0  0  1  0  0  0  0  0  0  0  0  0
    2.0202   -2.9884    2.8105 C   0  0  0  0  0  0  0  0  0  0  0  0
    1.0941   -1.8951    3.3430 C   0  0  0  0  0  0  0  0  0  0  0  0
    1.8520   -0.8823    4.1965 C   0  0  1  0  0  0  0  0  0  0  0  0
    2.2436   -1.5266    5.3932 O   0  0  0  0  0  0  0  0  0  0  0  0
    3.0635   -0.2532    3.4494 C   0  0  0  0  0  0  0  0  0  0  0  0
    2.5127    0.6620    2.3197 C   0  0  0  0  0  0  0  0  0  0  0  0
    3.7856    0.6775    4.4549 C   0  0  0  0  0  0  0  0  0  0  0  0
    4.0170   -1.3799    2.8883 C   0  0  2  0  0  0  0  0  0  0  0  0
    5.2778   -0.8451    2.1334 C   0  0  1  0  0  0  0  0  0  0  0  0
    6.1930   -0.2560    3.0417 O   0  0  0  0  0  0  0  0  0  0  0  0
    6.0863   -1.9194    1.3704 C   0  0  0  0  0  0  0  0  0  0  0  0
    5.2581   -2.9141    0.5268 C   0  0  2  0  0  0  0  0  0  0  0  0
    7.0210   -1.9931   -1.4265 H   0  0  0  0  0  0  0  0  0  0  0  0
    5.9979   -2.2594   -2.8288 H   0  0  0  0  0  0  0  0  0  0  0  0
    6.5091   -3.6122   -1.8689 H   0  0  0  0  0  0  0  0  0  0  0  0
    5.2832   -0.2810   -0.7651 H   0  0  0  0  0  0  0  0  0  0  0  0
    3.6193   -0.7311   -0.3840 H   0  0  0  0  0  0  0  0  0  0  0  0
    4.1636   -0.6923   -2.0397 H   0  0  0  0  0  0  0  0  0  0  0  0
    2.0232   -3.0532   -0.4292 H   0  0  0  0  0  0  0  0  0  0  0  0
    2.1288   -4.5671   -1.2873 H   0  0  0  0  0  0  0  0  0  0  0  0
    2.5803   -5.0790    1.0608 H   0  0  0  0  0  0  0  0  0  0  0  0
    4.0148   -5.2992    0.1358 H   0  0  0  0  0  0  0  0  0  0  0  0
    5.3173   -3.8497    3.2553 H   0  0  0  0  0  0  0  0  0  0  0  0
    5.4484   -5.1615    2.1055 H   0  0  0  0  0  0  0  0  0  0  0  0
    4.0008   -4.9872    3.0662 H   0  0  0  0  0  0  0  0  0  0  0  0
    2.7971   -1.8857    1.1922 H   0  0  0  0  0  0  0  0  0  0  0  0
    1.4219   -3.6175    2.1580 H   0  0  0  0  0  0  0  0  0  0  0  0
    2.3486   -3.6158    3.6380 H   0  0  0  0  0  0  0  0  0  0  0  0
    0.6205   -1.3847    2.5065 H   0  0  0  0  0  0  0  0  0  0  0  0
    0.2821   -2.3427    3.9151 H   0  0  0  0  0  0  0  0  0  0  0  0
    1.1582   -0.0906    4.4855 H   0  0  0  0  0  0  0  0  0  0  0  0
    2.8749   -2.1901    5.1806 H   0  0  0  0  0  0  0  0  0  0  0  0
    3.2953    1.2344    1.8218 H   0  0  0  0  0  0  0  0  0  0  0  0
    1.8042    1.3924    2.7164 H   0  0  0  0  0  0  0  0  0  0  0  0
    1.9809    0.1091    1.5414 H   0  0  0  0  0  0  0  0  0  0  0  0
    4.4760    1.3562    3.9560 H   0  0  0  0  0  0  0  0  0  0  0  0
    4.3579    0.1039    5.1848 H   0  0  0  0  0  0  0  0  0  0  0  0
    3.0786    1.2981    5.0053 H   0  0  0  0  0  0  0  0  0  0  0  0
    4.3935   -1.9144    3.7591 H   0  0  0  0  0  0  0  0  0  0  0  0
    4.9836   -0.0725    1.4338 H   0  0  0  0  0  0  0  0  0  0  0  0
    6.9273    0.1209    2.5652 H   0  0  0  0  0  0  0  0  0  0  0  0
    6.8444   -1.4312    0.7599 H   0  0  0  0  0  0  0  0  0  0  0  0
    6.6429   -2.5145    2.0862 H   0  0  0  0  0  0  0  0  0  0  0  0
    5.9449   -3.7433    0.3465 H   0  0  0  0  0  0  0  0  0  0  0  0
  1  2  1  0
  1 23  1  0
  1 24  1  0
  1 25  1  0
  2 22  1  0
  2  3  1  0
  2  4  1  0
  3 26  1  0
  3 27  1  0
  3 28  1  0
  4  5  2  0
  4  6  1  0
  6  7  1  0
  6 29  1  0
  6 30  1  0
  7  8  1  0
  7 31  1  0
  7 32  1  0
  8 22  1  0
  8  9  1  1
  8 10  1  0
  9 33  1  0
  9 34  1  0
  9 35  1  0
 10 18  1  0
 10 11  1  0
 10 36  1  6
 11 12  1  0
 11 37  1  0
 11 38  1  0
 12 13  1  0
 12 39  1  0
 12 40  1  0
 13 14  1  0
 13 15  1  0
 13 41  1  1
 14 42  1  0
 15 16  1  0
 15 17  1  0
 15 18  1  0
 16 43  1  0
 16 44  1  0
 16 45  1  0
 17 46  1  0
 17 47  1  0
 17 48  1  0
 18 19  1  0
 18 49  1  1
 19 20  1  0
 19 21  1  0
 19 50  1  6
 20 51  1  0
 21 22  1  0
 21 52  1  0
 21 53  1  0
 22 54  1  6
M  END
>  <i_m_ct_stereo_status>  (88) 
1

>  <s_m_source_file>  (88) 
/var/tmp/pbs.5076255.sched01/tmpu5rzjxe4/0gixxd53k.sdf

>  <i_m_source_file_index>  (88) 
36

>  <i_lp_mmshare_version>  (88) 
48012

>  <i_f3d_flags>  (88) 
0

>  <s_epik_input>  (88) 
W0NIMl0xW0NIMl1DKD1PKUMoW0NIM10pKFtDSDNdKVtDQEhdMltDSDJdW0NASF0oW09IXSlbQ0BIXShbQ0BIXTNbQ0BAXTEyW0NIM10pQyhbQ0gzXSkoW0NIM10pW0NASF0oW09IXSlbQ0gyXVtDSDJdMw==

>  <s_epik_cmdline>  (88) 
J2VwaWtfcHl0aG9uJywgJy1waHQnLCAnMi4wJywgJy1waCcsICc3LjAnLCAnLXRuJywgJzgnLCAnLW1hJywgJzIwMCcsICctaW1hZScsICc8aW5maWxlLm1hZT4nLCAnLW9tYWUnLCAnPG91dGZpbGUubWFlPic=

>  <r_lp_tautomer_probability>  (88) 
1

>  <r_epik_Ionization_Penalty>  (88) 
3.97405e-06

>  <r_epik_Ionization_Penalty_Charging>  (88) 
0

>  <r_epik_Ionization_Penalty_Neutral>  (88) 
3.97405e-06

>  <r_epik_State_Penalty>  (88) 
-0

>  <r_epik_Charging_Adjusted_Penalty>  (88) 
0

>  <i_epik_Tot_Q>  (88) 
0

>  <i_epik_Tot_abs_Q>  (88) 
0

>  <s_lp_Force_Field>  (88) 
OPLS3e

>  <r_lp_Energy>  (88) 
45.5339

>  <b_lp_Chiralities_Consistent>  (88) 
1

>  <s_lp_Variant>  (88) 
26:0-1

>  <s_i_glide_gridfile>  (88) 
pfpi4k_grid

>  <i_i_glide_lignum>  (88) 
36

>  <i_i_glide_rotatable_bonds>  (88) 
2

>  <r_i_docking_score>  (88) 
-3.7944

>  <r_i_glide_ligand_efficiency>  (88) 
-0.172473

>  <r_i_glide_ligand_efficiency_sa>  (88) 
-0.483276

>  <r_i_glide_ligand_efficiency_ln>  (88) 
-0.92749

>  <r_i_glide_gscore>  (88) 
-3.7944

>  <r_i_glide_lipo>  (88) 
-0.374229

>  <r_i_glide_hbond>  (88) 
-0.380777

>  <r_i_glide_metal>  (88) 
-0

>  <r_i_glide_rewards>  (88) 
-1.30598

>  <r_i_glide_evdw>  (88) 
-21.8827

>  <r_i_glide_ecoul>  (88) 
-4.22623

>  <r_i_glide_erotb>  (88) 
0

>  <r_i_glide_esite>  (88) 
-0.00534377

>  <r_i_glide_emodel>  (88) 
-32.3245

>  <r_i_glide_energy>  (88) 
-26.1089

>  <r_i_glide_einternal>  (88) 
0.338419

>  <r_i_glide_intrahb_reward>  (88) 
-0

>  <i_i_glide_confnum>  (88) 
1

>  <i_i_glide_posenum>  (88) 
10

>  <r_i_glide_eff_state_penalty>  (88) 
0

>  <ligand_id>  (88) 
26

>  <original_smiles>  (88) 
CC1(C)C(=O)CCC2(C)C3CCC(O)C(C)(C)C3C(O)CC12

>  <smiles>  (88) 
[H]OC1([H])C([H])([H])C2([H])C(C([H])([H])[H])(C([H])([H])[H])C(=O)C([H])([H])C([H])([H])C2(C([H])([H])[H])C2([H])C([H])([H])C([H])([H])C([H])(O[H])C(C([H])([H])[H])(C([H])([H])[H])C12[H]

$$$$
27:0:0
     RDKit          3D

 38 40  0  0  1  0  0  0  0  0999 V2000
   -5.6986   -6.3334   -4.8764 C   0  0  0  0  0  0  0  0  0  0  0  0
   -6.9018   -5.6109   -5.3103 N   0  0  0  0  0  0  0  0  0  0  0  0
   -7.4530   -4.6411   -4.5431 C   0  0  0  0  0  0  0  0  0  0  0  0
   -8.5190   -4.1835   -5.2157 N   0  0  0  0  0  0  0  0  0  0  0  0
   -8.6463   -4.8373   -6.4172 C   0  0  0  0  0  0  0  0  0  0  0  0
   -7.6383   -5.7859   -6.4603 C   0  0  0  0  0  0  0  0  0  0  0  0
   -7.2725   -6.8178   -7.4975 C   0  0  0  0  0  0  0  0  0  0  0  0
   -7.9958   -8.0899   -7.4128 N   0  0  0  0  0  0  0  0  0  0  0  0
   -9.2539   -8.2046   -8.0360 C   0  0  0  0  0  0  0  0  0  0  0  0
  -10.1609   -7.1754   -8.3663 C   0  0  0  0  0  0  0  0  0  0  0  0
  -11.3766   -7.5245   -9.0003 C   0  0  0  0  0  0  0  0  0  0  0  0
  -11.6678   -8.8662   -9.3374 C   0  0  0  0  0  0  0  0  0  0  0  0
  -10.7393   -9.8848   -9.0226 C   0  0  0  0  0  0  0  0  0  0  0  0
   -9.5396   -9.5231   -8.3597 C   0  0  0  0  0  0  0  0  0  0  0  0
   -8.4027  -10.4194   -7.9596 C   0  0  0  0  0  0  0  0  0  0  0  0
   -7.3520   -9.4230   -7.3929 C   0  0  0  0  0  0  0  0  0  0  0  0
   -6.0989   -9.4132   -8.2913 C   0  0  0  0  0  0  0  0  0  0  0  0
   -6.9298   -9.8481   -5.9701 C   0  0  0  0  0  0  0  0  0  0  0  0
   -5.3913   -5.9708   -3.8916 H   0  0  0  0  0  0  0  0  0  0  0  0
   -4.8900   -6.1505   -5.5983 H   0  0  0  0  0  0  0  0  0  0  0  0
   -5.9410   -7.3949   -4.8175 H   0  0  0  0  0  0  0  0  0  0  0  0
   -7.0985   -4.3093   -3.5792 H   0  0  0  0  0  0  0  0  0  0  0  0
   -9.4425   -4.5736   -7.1156 H   0  0  0  0  0  0  0  0  0  0  0  0
   -7.4698   -6.3799   -8.4831 H   0  0  0  0  0  0  0  0  0  0  0  0
   -6.1927   -6.9811   -7.4199 H   0  0  0  0  0  0  0  0  0  0  0  0
   -9.9663   -6.1363   -8.1580 H   0  0  0  0  0  0  0  0  0  0  0  0
  -12.0774   -6.7378   -9.2301 H   0  0  0  0  0  0  0  0  0  0  0  0
  -12.5951   -9.0955   -9.8456 H   0  0  0  0  0  0  0  0  0  0  0  0
  -10.9394  -10.9173   -9.2914 H   0  0  0  0  0  0  0  0  0  0  0  0
   -8.7581  -11.1273   -7.2053 H   0  0  0  0  0  0  0  0  0  0  0  0
   -8.0357  -10.9854   -8.8211 H   0  0  0  0  0  0  0  0  0  0  0  0
   -5.6788  -10.4129   -8.4021 H   0  0  0  0  0  0  0  0  0  0  0  0
   -5.3169   -8.7563   -7.9017 H   0  0  0  0  0  0  0  0  0  0  0  0
   -6.3414   -9.0524   -9.2888 H   0  0  0  0  0  0  0  0  0  0  0  0
   -6.5387  -10.8685   -5.9706 H   0  0  0  0  0  0  0  0  0  0  0  0
   -7.7767   -9.8513   -5.2829 H   0  0  0  0  0  0  0  0  0  0  0  0
   -6.1527   -9.2027   -5.5726 H   0  0  0  0  0  0  0  0  0  0  0  0
   -9.1474   -3.4456   -4.8738 H   0  0  0  0  0  0  0  0  0  0  0  0
  1  2  1  0
  1 19  1  0
  1 20  1  0
  1 21  1  0
  2  6  1  0
  2  3  1  0
  3  4  2  0
  3 22  1  0
  4  5  1  0
  4 38  1  0
  5  6  2  0
  5 23  1  0
  6  7  1  0
  7  8  1  0
  7 24  1  0
  7 25  1  0
  8 16  1  0
  8  9  1  0
  9 14  1  0
  9 10  2  0
 10 11  1  0
 10 26  1  0
 11 12  2  0
 11 27  1  0
 12 13  1  0
 12 28  1  0
 13 14  2  0
 13 29  1  0
 14 15  1  0
 15 16  1  0
 15 30  1  0
 15 31  1  0
 16 17  1  0
 16 18  1  0
 17 32  1  0
 17 33  1  0
 17 34  1  0
 18 35  1  0
 18 36  1  0
 18 37  1  0
M  CHG  1   4   1
M  END
>  <i_m_ct_stereo_status>  (89) 
1

>  <s_m_source_file>  (89) 
/var/tmp/pbs.5076255.sched01/tmpu5rzjxe4/0gixxd53k.sdf

>  <i_m_source_file_index>  (89) 
37

>  <i_lp_mmshare_version>  (89) 
48012

>  <i_f3d_flags>  (89) 
0

>  <s_epik_input>  (89) 
W0NIM11uMVtjSF1uW2NIXWMxW0NIMl1OMkMoW0NIM10pKFtDSDNdKVtDSDJdYyhjMjMpW2NIXVtjSF1bY0hdW2NIXTM=

>  <s_epik_cmdline>  (89) 
J2VwaWtfcHl0aG9uJywgJy1waHQnLCAnMi4wJywgJy1waCcsICc3LjAnLCAnLXRuJywgJzgnLCAnLW1hJywgJzIwMCcsICctaW1hZScsICc8aW5maWxlLm1hZT4nLCAnLW9tYWUnLCAnPG91dGZpbGUubWFlPic=

>  <r_lp_tautomer_probability>  (89) 
1

>  <r_epik_Ionization_Penalty>  (89) 
0.0808839

>  <r_epik_Ionization_Penalty_Charging>  (89) 
0

>  <r_epik_Ionization_Penalty_Neutral>  (89) 
0.0808839

>  <r_epik_State_Penalty>  (89) 
0.0714729

>  <r_epik_Charging_Adjusted_Penalty>  (89) 
0.0714729

>  <i_epik_Tot_Q>  (89) 
1

>  <i_epik_Tot_abs_Q>  (89) 
1

>  <s_lp_Force_Field>  (89) 
OPLS3e

>  <r_lp_Energy>  (89) 
28.8128

>  <b_lp_Chiralities_Consistent>  (89) 
1

>  <s_lp_Variant>  (89) 
27:0-1

>  <s_i_glide_gridfile>  (89) 
pfpi4k_grid

>  <i_i_glide_lignum>  (89) 
37

>  <i_i_glide_rotatable_bonds>  (89) 
2

>  <r_i_docking_score>  (89) 
-4.80516

>  <r_i_glide_ligand_efficiency>  (89) 
-0.266954

>  <r_i_glide_ligand_efficiency_sa>  (89) 
-0.699616

>  <r_i_glide_ligand_efficiency_ln>  (89) 
-1.23514

>  <r_i_glide_gscore>  (89) 
-4.80516

>  <r_i_glide_lipo>  (89) 
-1.42225

>  <r_i_glide_hbond>  (89) 
0

>  <r_i_glide_metal>  (89) 
-0

>  <r_i_glide_rewards>  (89) 
-2.83369

>  <r_i_glide_evdw>  (89) 
-22.8304

>  <r_i_glide_ecoul>  (89) 
0.0110797

>  <r_i_glide_erotb>  (89) 
0.59063

>  <r_i_glide_esite>  (89) 
0

>  <r_i_glide_emodel>  (89) 
-31.4509

>  <r_i_glide_energy>  (89) 
-22.8193

>  <r_i_glide_einternal>  (89) 
0.655823

>  <r_i_glide_intrahb_reward>  (89) 
-0

>  <i_i_glide_confnum>  (89) 
1

>  <i_i_glide_posenum>  (89) 
29

>  <r_i_glide_eff_state_penalty>  (89) 
0

>  <ligand_id>  (89) 
27

>  <original_smiles>  (89) 
Cn1cncc1CN1c2ccccc2CC1(C)C

>  <smiles>  (89) 
[H]c1c([H])c([H])c2c(c1[H])N(C([H])([H])c1c([H])[n+]([H])c([H])n1C([H])([H])[H])C(C([H])([H])[H])(C([H])([H])[H])C2([H])[H]

$$$$
27:0:1
     RDKit          3D

 38 40  0  0  1  0  0  0  0  0999 V2000
    1.5834   -1.1781    2.6453 C   0  0  0  0  0  0  0  0  0  0  0  0
    0.9036    0.1451    2.6648 N   0  0  0  0  0  0  0  0  0  0  0  0
    1.1207    1.0656    1.7112 C   0  0  0  0  0  0  0  0  0  0  0  0
    0.4033    2.1415    2.0580 N   0  0  0  0  0  0  0  0  0  0  0  0
   -0.3004    1.8946    3.1914 C   0  0  0  0  0  0  0  0  0  0  0  0
    0.0238    0.6163    3.6041 C   0  0  0  0  0  0  0  0  0  0  0  0
   -0.4004   -0.2179    4.7765 C   0  0  0  0  0  0  0  0  0  0  0  0
   -0.0908    0.3459    6.0884 N   0  0  0  0  0  0  0  0  0  0  0  0
   -0.9614    1.2786    6.6539 C   0  0  0  0  0  0  0  0  0  0  0  0
   -1.9340    2.0630    6.0102 C   0  0  0  0  0  0  0  0  0  0  0  0
   -2.7004    2.9609    6.7683 C   0  0  0  0  0  0  0  0  0  0  0  0
   -2.5847    3.0040    8.1716 C   0  0  0  0  0  0  0  0  0  0  0  0
   -1.6549    2.1687    8.8311 C   0  0  0  0  0  0  0  0  0  0  0  0
   -0.8338    1.3338    8.0359 C   0  0  0  0  0  0  0  0  0  0  0  0
    0.1842    0.3286    8.4976 C   0  0  0  0  0  0  0  0  0  0  0  0
    0.6185   -0.3626    7.1693 C   0  0  0  0  0  0  0  0  0  0  0  0
    0.2100   -1.8589    7.1899 C   0  0  0  0  0  0  0  0  0  0  0  0
    2.1467   -0.2699    6.9826 C   0  0  0  0  0  0  0  0  0  0  0  0
    2.2957   -1.2303    1.8263 H   0  0  0  0  0  0  0  0  0  0  0  0
    0.8336   -1.9660    2.5366 H   0  0  0  0  0  0  0  0  0  0  0  0
    2.1134   -1.3218    3.5955 H   0  0  0  0  0  0  0  0  0  0  0  0
    1.7567    0.9301    0.8490 H   0  0  0  0  0  0  0  0  0  0  0  0
   -0.9433    2.6752    3.5784 H   0  0  0  0  0  0  0  0  0  0  0  0
   -1.4783   -0.3906    4.7322 H   0  0  0  0  0  0  0  0  0  0  0  0
    0.0610   -1.1939    4.6558 H   0  0  0  0  0  0  0  0  0  0  0  0
   -2.1518    1.9722    4.9651 H   0  0  0  0  0  0  0  0  0  0  0  0
   -3.3959    3.5915    6.2448 H   0  0  0  0  0  0  0  0  0  0  0  0
   -3.2390    3.6632    8.7412 H   0  0  0  0  0  0  0  0  0  0  0  0
   -1.5960    2.1548    9.9174 H   0  0  0  0  0  0  0  0  0  0  0  0
    1.0074    0.8476    9.0036 H   0  0  0  0  0  0  0  0  0  0  0  0
   -0.2549   -0.3722    9.2123 H   0  0  0  0  0  0  0  0  0  0  0  0
    0.6129   -2.3804    8.0587 H   0  0  0  0  0  0  0  0  0  0  0  0
    0.5675   -2.3977    6.3107 H   0  0  0  0  0  0  0  0  0  0  0  0
   -0.8716   -1.9631    7.2029 H   0  0  0  0  0  0  0  0  0  0  0  0
    2.6717   -0.7830    7.7924 H   0  0  0  0  0  0  0  0  0  0  0  0
    2.4958    0.7624    6.9846 H   0  0  0  0  0  0  0  0  0  0  0  0
    2.4736   -0.7226    6.0491 H   0  0  0  0  0  0  0  0  0  0  0  0
    0.3151    3.0214    1.4895 H   0  0  0  0  0  0  0  0  0  0  0  0
  1  2  1  0
  1 19  1  0
  1 20  1  0
  1 21  1  0
  2  6  1  0
  2  3  1  0
  3  4  2  0
  3 22  1  0
  4  5  1  0
  4 38  1  0
  5  6  2  0
  5 23  1  0
  6  7  1  0
  7  8  1  0
  7 24  1  0
  7 25  1  0
  8 16  1  0
  8  9  1  0
  9 14  1  0
  9 10  2  0
 10 11  1  0
 10 26  1  0
 11 12  2  0
 11 27  1  0
 12 13  1  0
 12 28  1  0
 13 14  2  0
 13 29  1  0
 14 15  1  0
 15 16  1  0
 15 30  1  0
 15 31  1  0
 16 17  1  0
 16 18  1  0
 17 32  1  0
 17 33  1  0
 17 34  1  0
 18 35  1  0
 18 36  1  0
 18 37  1  0
M  CHG  1   4   1
M  END
>  <i_m_ct_stereo_status>  (90) 
1

>  <s_m_source_file>  (90) 
/var/tmp/pbs.5076255.sched01/tmpu5rzjxe4/0gixxd53k.sdf

>  <i_m_source_file_index>  (90) 
37

>  <i_lp_mmshare_version>  (90) 
48012

>  <i_f3d_flags>  (90) 
0

>  <s_epik_input>  (90) 
W0NIM11uMVtjSF1uW2NIXWMxW0NIMl1OMkMoW0NIM10pKFtDSDNdKVtDSDJdYyhjMjMpW2NIXVtjSF1bY0hdW2NIXTM=

>  <s_epik_cmdline>  (90) 
J2VwaWtfcHl0aG9uJywgJy1waHQnLCAnMi4wJywgJy1waCcsICc3LjAnLCAnLXRuJywgJzgnLCAnLW1hJywgJzIwMCcsICctaW1hZScsICc8aW5maWxlLm1hZT4nLCAnLW9tYWUnLCAnPG91dGZpbGUubWFlPic=

>  <r_lp_tautomer_probability>  (90) 
1

>  <r_epik_Ionization_Penalty>  (90) 
0.0808839

>  <r_epik_Ionization_Penalty_Charging>  (90) 
0

>  <r_epik_Ionization_Penalty_Neutral>  (90) 
0.0808839

>  <r_epik_State_Penalty>  (90) 
0.0714729

>  <r_epik_Charging_Adjusted_Penalty>  (90) 
0.0714729

>  <i_epik_Tot_Q>  (90) 
1

>  <i_epik_Tot_abs_Q>  (90) 
1

>  <s_lp_Force_Field>  (90) 
OPLS3e

>  <r_lp_Energy>  (90) 
28.8128

>  <b_lp_Chiralities_Consistent>  (90) 
1

>  <s_lp_Variant>  (90) 
27:0-1

>  <s_i_glide_gridfile>  (90) 
pfpi4k_grid

>  <i_i_glide_lignum>  (90) 
37

>  <i_i_glide_rotatable_bonds>  (90) 
2

>  <r_i_docking_score>  (90) 
-3.74298

>  <r_i_glide_ligand_efficiency>  (90) 
-0.207943

>  <r_i_glide_ligand_efficiency_sa>  (90) 
-0.544965

>  <r_i_glide_ligand_efficiency_ln>  (90) 
-0.962113

>  <r_i_glide_gscore>  (90) 
-3.74298

>  <r_i_glide_lipo>  (90) 
-0.24158

>  <r_i_glide_hbond>  (90) 
-0.188966

>  <r_i_glide_metal>  (90) 
-0

>  <r_i_glide_rewards>  (90) 
-1.75678

>  <r_i_glide_evdw>  (90) 
-15.248

>  <r_i_glide_ecoul>  (90) 
-7.80475

>  <r_i_glide_erotb>  (90) 
0.59063

>  <r_i_glide_esite>  (90) 
-0.213172

>  <r_i_glide_emodel>  (90) 
-28.9382

>  <r_i_glide_energy>  (90) 
-23.0527

>  <r_i_glide_einternal>  (90) 
1.2709

>  <r_i_glide_intrahb_reward>  (90) 
-0

>  <i_i_glide_confnum>  (90) 
2

>  <i_i_glide_posenum>  (90) 
14

>  <r_i_glide_eff_state_penalty>  (90) 
0

>  <ligand_id>  (90) 
27

>  <original_smiles>  (90) 
Cn1cncc1CN1c2ccccc2CC1(C)C

>  <smiles>  (90) 
[H]c1c([H])c([H])c2c(c1[H])N(C([H])([H])c1c([H])[n+]([H])c([H])n1C([H])([H])[H])C(C([H])([H])[H])(C([H])([H])[H])C2([H])[H]

$$$$
27:0:2
     RDKit          3D

 38 40  0  0  1  0  0  0  0  0999 V2000
   -0.7739    1.9108    2.8606 C   0  0  0  0  0  0  0  0  0  0  0  0
    0.6428    1.8025    3.2271 N   0  0  0  0  0  0  0  0  0  0  0  0
    1.5943    2.3718    2.4820 C   0  0  0  0  0  0  0  0  0  0  0  0
    2.7614    2.0938    3.0318 N   0  0  0  0  0  0  0  0  0  0  0  0
    2.5918    1.3457    4.1698 C   0  0  0  0  0  0  0  0  0  0  0  0
    1.2258    1.1744    4.3098 C   0  0  0  0  0  0  0  0  0  0  0  0
    0.4630    0.4591    5.3614 C   0  0  0  0  0  0  0  0  0  0  0  0
    0.4161    1.1403    6.6571 N   0  0  0  0  0  0  0  0  0  0  0  0
   -0.7497    1.8128    7.0626 C   0  0  0  0  0  0  0  0  0  0  0  0
   -1.7556    2.2963    6.2388 C   0  0  0  0  0  0  0  0  0  0  0  0
   -2.8834    2.9514    6.7657 C   0  0  0  0  0  0  0  0  0  0  0  0
   -3.0094    3.0406    8.1546 C   0  0  0  0  0  0  0  0  0  0  0  0
   -2.0152    2.4981    9.0191 C   0  0  0  0  0  0  0  0  0  0  0  0
   -0.8786    1.8962    8.4136 C   0  0  0  0  0  0  0  0  0  0  0  0
    0.2868    1.2079    9.0816 C   0  0  0  0  0  0  0  0  0  0  0  0
    1.0985    0.6526    7.8830 C   0  0  0  0  0  0  0  0  0  0  0  0
    1.0839   -0.8937    7.9186 C   0  0  0  0  0  0  0  0  0  0  0  0
    2.5508    1.1555    7.9112 C   0  0  0  0  0  0  0  0  0  0  0  0
   -0.9092    2.3309    1.8923 H   0  0  0  0  0  0  0  0  0  0  0  0
   -1.2212    2.7225    3.4673 H   0  0  0  0  0  0  0  0  0  0  0  0
   -1.2609    0.9449    2.9953 H   0  0  0  0  0  0  0  0  0  0  0  0
    1.4262    2.9508    1.5930 H   0  0  0  0  0  0  0  0  0  0  0  0
    3.4290    1.0090    4.7717 H   0  0  0  0  0  0  0  0  0  0  0  0
   -0.5549    0.2430    5.0255 H   0  0  0  0  0  0  0  0  0  0  0  0
    0.9067   -0.5219    5.4085 H   0  0  0  0  0  0  0  0  0  0  0  0
   -1.7228    2.1198    5.1906 H   0  0  0  0  0  0  0  0  0  0  0  0
   -3.6215    3.3324    6.0800 H   0  0  0  0  0  0  0  0  0  0  0  0
   -3.9284    3.5188    8.5735 H   0  0  0  0  0  0  0  0  0  0  0  0
   -2.1367    2.5374   10.0932 H   0  0  0  0  0  0  0  0  0  0  0  0
    0.8332    1.9612    9.6601 H   0  0  0  0  0  0  0  0  0  0  0  0
   -0.0768    0.4268    9.7521 H   0  0  0  0  0  0  0  0  0  0  0  0
    1.4870   -1.2690    8.8479 H   0  0  0  0  0  0  0  0  0  0  0  0
    1.7226   -1.3262    7.1457 H   0  0  0  0  0  0  0  0  0  0  0  0
    0.0644   -1.2664    7.7732 H   0  0  0  0  0  0  0  0  0  0  0  0
    3.0402    0.8090    8.8243 H   0  0  0  0  0  0  0  0  0  0  0  0
    2.6021    2.2456    7.8920 H   0  0  0  0  0  0  0  0  0  0  0  0
    3.1215    0.7729    7.0659 H   0  0  0  0  0  0  0  0  0  0  0  0
    3.6745    2.3875    2.6519 H   0  0  0  0  0  0  0  0  0  0  0  0
  1  2  1  0
  1 19  1  0
  1 20  1  0
  1 21  1  0
  2  6  1  0
  2  3  1  0
  3  4  2  0
  3 22  1  0
  4  5  1  0
  4 38  1  0
  5  6  2  0
  5 23  1  0
  6  7  1  0
  7  8  1  0
  7 24  1  0
  7 25  1  0
  8 16  1  0
  8  9  1  0
  9 14  1  0
  9 10  2  0
 10 11  1  0
 10 26  1  0
 11 12  2  0
 11 27  1  0
 12 13  1  0
 12 28  1  0
 13 14  2  0
 13 29  1  0
 14 15  1  0
 15 16  1  0
 15 30  1  0
 15 31  1  0
 16 17  1  0
 16 18  1  0
 17 32  1  0
 17 33  1  0
 17 34  1  0
 18 35  1  0
 18 36  1  0
 18 37  1  0
M  CHG  1   4   1
M  END
>  <i_m_ct_stereo_status>  (91) 
1

>  <s_m_source_file>  (91) 
/var/tmp/pbs.5076255.sched01/tmpu5rzjxe4/0gixxd53k.sdf

>  <i_m_source_file_index>  (91) 
37

>  <i_lp_mmshare_version>  (91) 
48012

>  <i_f3d_flags>  (91) 
0

>  <s_epik_input>  (91) 
W0NIM11uMVtjSF1uW2NIXWMxW0NIMl1OMkMoW0NIM10pKFtDSDNdKVtDSDJdYyhjMjMpW2NIXVtjSF1bY0hdW2NIXTM=

>  <s_epik_cmdline>  (91) 
J2VwaWtfcHl0aG9uJywgJy1waHQnLCAnMi4wJywgJy1waCcsICc3LjAnLCAnLXRuJywgJzgnLCAnLW1hJywgJzIwMCcsICctaW1hZScsICc8aW5maWxlLm1hZT4nLCAnLW9tYWUnLCAnPG91dGZpbGUubWFlPic=

>  <r_lp_tautomer_probability>  (91) 
1

>  <r_epik_Ionization_Penalty>  (91) 
0.0808839

>  <r_epik_Ionization_Penalty_Charging>  (91) 
0

>  <r_epik_Ionization_Penalty_Neutral>  (91) 
0.0808839

>  <r_epik_State_Penalty>  (91) 
0.0714729

>  <r_epik_Charging_Adjusted_Penalty>  (91) 
0.0714729

>  <i_epik_Tot_Q>  (91) 
1

>  <i_epik_Tot_abs_Q>  (91) 
1

>  <s_lp_Force_Field>  (91) 
OPLS3e

>  <r_lp_Energy>  (91) 
28.8128

>  <b_lp_Chiralities_Consistent>  (91) 
1

>  <s_lp_Variant>  (91) 
27:0-1

>  <s_i_glide_gridfile>  (91) 
pfpi4k_grid

>  <i_i_glide_lignum>  (91) 
37

>  <i_i_glide_rotatable_bonds>  (91) 
2

>  <r_i_docking_score>  (91) 
-3.33782

>  <r_i_glide_ligand_efficiency>  (91) 
-0.185434

>  <r_i_glide_ligand_efficiency_sa>  (91) 
-0.485975

>  <r_i_glide_ligand_efficiency_ln>  (91) 
-0.857968

>  <r_i_glide_gscore>  (91) 
-3.33782

>  <r_i_glide_lipo>  (91) 
-0.302426

>  <r_i_glide_hbond>  (91) 
0

>  <r_i_glide_metal>  (91) 
-0

>  <r_i_glide_rewards>  (91) 
-1.75678

>  <r_i_glide_evdw>  (91) 
-14.5315

>  <r_i_glide_ecoul>  (91) 
-6.74818

>  <r_i_glide_erotb>  (91) 
0.59063

>  <r_i_glide_esite>  (91) 
-0.130439

>  <r_i_glide_emodel>  (91) 
-24.661

>  <r_i_glide_energy>  (91) 
-21.2797

>  <r_i_glide_einternal>  (91) 
1.28527

>  <r_i_glide_intrahb_reward>  (91) 
-0

>  <i_i_glide_confnum>  (91) 
2

>  <i_i_glide_posenum>  (91) 
9

>  <r_i_glide_eff_state_penalty>  (91) 
0

>  <ligand_id>  (91) 
27

>  <original_smiles>  (91) 
Cn1cncc1CN1c2ccccc2CC1(C)C

>  <smiles>  (91) 
[H]c1c([H])c([H])c2c(c1[H])N(C([H])([H])c1c([H])[n+]([H])c([H])n1C([H])([H])[H])C(C([H])([H])[H])(C([H])([H])[H])C2([H])[H]

$$$$
27:1:0
     RDKit          3D

 37 39  0  0  1  0  0  0  0  0999 V2000
    4.2421   -7.8006    2.3426 C   0  0  0  0  0  0  0  0  0  0  0  0
    3.4758   -6.7897    1.6192 N   0  0  0  0  0  0  0  0  0  0  0  0
    2.2010   -6.4400    1.8808 C   0  0  0  0  0  0  0  0  0  0  0  0
    1.6822   -5.5125    1.0908 N   0  0  0  0  0  0  0  0  0  0  0  0
    2.7081   -5.2287    0.2078 C   0  0  0  0  0  0  0  0  0  0  0  0
    3.8397   -5.9681    0.5457 C   0  0  0  0  0  0  0  0  0  0  0  0
    5.2152   -5.9275   -0.0805 C   0  0  0  0  0  0  0  0  0  0  0  0
    5.8712   -4.6124    0.0122 N   0  0  0  0  0  0  0  0  0  0  0  0
    5.3306   -3.5130   -0.6818 C   0  0  0  0  0  0  0  0  0  0  0  0
    4.5314   -3.5405   -1.8361 C   0  0  0  0  0  0  0  0  0  0  0  0
    3.9513   -2.3409   -2.2845 C   0  0  0  0  0  0  0  0  0  0  0  0
    4.2100   -1.1535   -1.5905 C   0  0  0  0  0  0  0  0  0  0  0  0
    5.0272   -1.1148   -0.4493 C   0  0  0  0  0  0  0  0  0  0  0  0
    5.6019   -2.3299   -0.0233 C   0  0  0  0  0  0  0  0  0  0  0  0
    6.4578   -2.5804    1.1870 C   0  0  0  0  0  0  0  0  0  0  0  0
    6.5727   -4.1339    1.2224 C   0  0  0  0  0  0  0  0  0  0  0  0
    5.9413   -4.6884    2.4974 C   0  0  0  0  0  0  0  0  0  0  0  0
    8.0535   -4.5802    1.1663 C   0  0  0  0  0  0  0  0  0  0  0  0
    3.5994   -8.1992    3.1307 H   0  0  0  0  0  0  0  0  0  0  0  0
    5.1475   -7.3815    2.7748 H   0  0  0  0  0  0  0  0  0  0  0  0
    4.4639   -8.6198    1.6642 H   0  0  0  0  0  0  0  0  0  0  0  0
    1.6313   -6.8640    2.7040 H   0  0  0  0  0  0  0  0  0  0  0  0
    2.5272   -4.4692   -0.5466 H   0  0  0  0  0  0  0  0  0  0  0  0
    5.8443   -6.6897    0.3828 H   0  0  0  0  0  0  0  0  0  0  0  0
    5.0871   -6.2583   -1.1090 H   0  0  0  0  0  0  0  0  0  0  0  0
    4.3209   -4.4594   -2.3491 H   0  0  0  0  0  0  0  0  0  0  0  0
    3.2419   -2.3605   -3.0934 H   0  0  0  0  0  0  0  0  0  0  0  0
    3.7280   -0.2651   -1.9484 H   0  0  0  0  0  0  0  0  0  0  0  0
    5.2051   -0.2096    0.1044 H   0  0  0  0  0  0  0  0  0  0  0  0
    7.4114   -2.0570    1.0396 H   0  0  0  0  0  0  0  0  0  0  0  0
    5.9707   -2.1898    2.0793 H   0  0  0  0  0  0  0  0  0  0  0  0
    6.2455   -4.2335    3.4211 H   0  0  0  0  0  0  0  0  0  0  0  0
    6.1842   -5.7264    2.4997 H   0  0  0  0  0  0  0  0  0  0  0  0
    4.8945   -4.5087    2.4816 H   0  0  0  0  0  0  0  0  0  0  0  0
    8.5988   -4.2647    2.0523 H   0  0  0  0  0  0  0  0  0  0  0  0
    8.6040   -4.2024    0.2919 H   0  0  0  0  0  0  0  0  0  0  0  0
    8.1332   -5.6646    1.1336 H   0  0  0  0  0  0  0  0  0  0  0  0
  1  2  1  0
  1 19  1  0
  1 20  1  0
  1 21  1  0
  2  6  1  0
  2  3  1  0
  3  4  2  0
  3 22  1  0
  4  5  1  0
  5  6  2  0
  5 23  1  0
  6  7  1  0
  7  8  1  0
  7 24  1  0
  7 25  1  0
  8 16  1  0
  8  9  1  0
  9 14  1  0
  9 10  2  0
 10 11  1  0
 10 26  1  0
 11 12  2  0
 11 27  1  0
 12 13  1  0
 12 28  1  0
 13 14  2  0
 13 29  1  0
 14 15  1  0
 15 16  1  0
 15 30  1  0
 15 31  1  0
 16 17  1  0
 16 18  1  0
 17 32  1  0
 17 33  1  0
 17 34  1  0
 18 35  1  0
 18 36  1  0
 18 37  1  0
M  END
>  <i_m_ct_stereo_status>  (92) 
1

>  <s_m_source_file>  (92) 
/var/tmp/pbs.5076255.sched01/tmpu5rzjxe4/0gixxd53k.sdf

>  <i_m_source_file_index>  (92) 
38

>  <i_lp_mmshare_version>  (92) 
48012

>  <i_f3d_flags>  (92) 
0

>  <s_epik_input>  (92) 
W0NIM11uMVtjSF1uW2NIXWMxW0NIMl1OMkMoW0NIM10pKFtDSDNdKVtDSDJdYyhjMjMpW2NIXVtjSF1bY0hdW2NIXTM=

>  <s_epik_cmdline>  (92) 
J2VwaWtfcHl0aG9uJywgJy1waHQnLCAnMi4wJywgJy1waCcsICc3LjAnLCAnLXRuJywgJzgnLCAnLW1hJywgJzIwMCcsICctaW1hZScsICc8aW5maWxlLm1hZT4nLCAnLW9tYWUnLCAnPG91dGZpbGUubWFlPic=

>  <r_lp_tautomer_probability>  (92) 
1

>  <r_epik_Ionization_Penalty>  (92) 
1.22285

>  <r_epik_Ionization_Penalty_Charging>  (92) 
1.22119

>  <r_epik_Ionization_Penalty_Neutral>  (92) 
0.00165947

>  <r_epik_State_Penalty>  (92) 
1.28849

>  <r_epik_Charging_Adjusted_Penalty>  (92) 
2.50968

>  <i_epik_Tot_Q>  (92) 
0

>  <i_epik_Tot_abs_Q>  (92) 
0

>  <s_lp_Force_Field>  (92) 
OPLS3e

>  <r_lp_Energy>  (92) 
25.2316

>  <b_lp_Chiralities_Consistent>  (92) 
1

>  <s_lp_Variant>  (92) 
27:0-2

>  <s_i_glide_gridfile>  (92) 
pfpi4k_grid

>  <i_i_glide_lignum>  (92) 
38

>  <i_i_glide_rotatable_bonds>  (92) 
2

>  <r_i_docking_score>  (92) 
-3.31091

>  <r_i_glide_ligand_efficiency>  (92) 
-0.183939

>  <r_i_glide_ligand_efficiency_sa>  (92) 
-0.482058

>  <r_i_glide_ligand_efficiency_ln>  (92) 
-0.851052

>  <r_i_glide_gscore>  (92) 
-3.31091

>  <r_i_glide_lipo>  (92) 
-0.514211

>  <r_i_glide_hbond>  (92) 
-0.111851

>  <r_i_glide_metal>  (92) 
-0

>  <r_i_glide_rewards>  (92) 
-1.9226

>  <r_i_glide_evdw>  (92) 
-15.5887

>  <r_i_glide_ecoul>  (92) 
-3.74721

>  <r_i_glide_erotb>  (92) 
0.594848

>  <r_i_glide_esite>  (92) 
-0.0155793

>  <r_i_glide_emodel>  (92) 
-21.6874

>  <r_i_glide_energy>  (92) 
-19.3359

>  <r_i_glide_einternal>  (92) 
1.87513

>  <r_i_glide_intrahb_reward>  (92) 
-0

>  <i_i_glide_confnum>  (92) 
2

>  <i_i_glide_posenum>  (92) 
25

>  <r_i_glide_eff_state_penalty>  (92) 
0

>  <ligand_id>  (92) 
27

>  <original_smiles>  (92) 
Cn1cncc1CN1c2ccccc2CC1(C)C

>  <smiles>  (92) 
[H]c1nc([H])n(C([H])([H])[H])c1C([H])([H])N1c2c([H])c([H])c([H])c([H])c2C([H])([H])C1(C([H])([H])[H])C([H])([H])[H]

$$$$
27:1:1
     RDKit          3D

 37 39  0  0  1  0  0  0  0  0999 V2000
    4.9933   -5.5532    3.1478 C   0  0  0  0  0  0  0  0  0  0  0  0
    4.0597   -5.3323    2.0601 N   0  0  0  0  0  0  0  0  0  0  0  0
    2.7265   -5.4833    2.1453 C   0  0  0  0  0  0  0  0  0  0  0  0
    2.0818   -5.2379    1.0012 N   0  0  0  0  0  0  0  0  0  0  0  0
    3.0999   -4.8772    0.1005 C   0  0  0  0  0  0  0  0  0  0  0  0
    4.3432   -4.9283    0.7468 C   0  0  0  0  0  0  0  0  0  0  0  0
    5.7307   -4.6311    0.2173 C   0  0  0  0  0  0  0  0  0  0  0  0
    5.8871   -3.2952   -0.3746 N   0  0  0  0  0  0  0  0  0  0  0  0
    5.1022   -2.9266   -1.4832 C   0  0  0  0  0  0  0  0  0  0  0  0
    4.5750   -3.7901   -2.4661 C   0  0  0  0  0  0  0  0  0  0  0  0
    3.6441   -3.2444   -3.3905 C   0  0  0  0  0  0  0  0  0  0  0  0
    3.3356   -1.8690   -3.4086 C   0  0  0  0  0  0  0  0  0  0  0  0
    3.9467   -1.0184   -2.4746 C   0  0  0  0  0  0  0  0  0  0  0  0
    4.8305   -1.5683   -1.5260 C   0  0  0  0  0  0  0  0  0  0  0  0
    5.4803   -0.8928   -0.3474 C   0  0  0  0  0  0  0  0  0  0  0  0
    6.1578   -2.0695    0.4060 C   0  0  0  0  0  0  0  0  0  0  0  0
    5.5979   -2.1441    1.8405 C   0  0  0  0  0  0  0  0  0  0  0  0
    7.6790   -1.8758    0.4966 C   0  0  0  0  0  0  0  0  0  0  0  0
    4.4273   -5.8296    4.0494 H   0  0  0  0  0  0  0  0  0  0  0  0
    5.6005   -4.6492    3.3365 H   0  0  0  0  0  0  0  0  0  0  0  0
    5.6403   -6.4169    2.9180 H   0  0  0  0  0  0  0  0  0  0  0  0
    2.2222   -5.7557    3.0592 H   0  0  0  0  0  0  0  0  0  0  0  0
    2.8346   -4.5809   -0.9075 H   0  0  0  0  0  0  0  0  0  0  0  0
    6.4573   -4.7287    1.0150 H   0  0  0  0  0  0  0  0  0  0  0  0
    6.0210   -5.4132   -0.4853 H   0  0  0  0  0  0  0  0  0  0  0  0
    4.8510   -4.8535   -2.4875 H   0  0  0  0  0  0  0  0  0  0  0  0
    3.1315   -3.9259   -4.0541 H   0  0  0  0  0  0  0  0  0  0  0  0
    2.5651   -1.5092   -4.0572 H   0  0  0  0  0  0  0  0  0  0  0  0
    3.6704    0.0083   -2.4209 H   0  0  0  0  0  0  0  0  0  0  0  0
    6.2212   -0.1909   -0.7120 H   0  0  0  0  0  0  0  0  0  0  0  0
    4.7405   -0.3526    0.2592 H   0  0  0  0  0  0  0  0  0  0  0  0
    5.6617   -1.1785    2.3610 H   0  0  0  0  0  0  0  0  0  0  0  0
    6.1079   -2.9151    2.4301 H   0  0  0  0  0  0  0  0  0  0  0  0
    4.5365   -2.3782    1.8329 H   0  0  0  0  0  0  0  0  0  0  0  0
    7.9357   -1.0033    1.0890 H   0  0  0  0  0  0  0  0  0  0  0  0
    8.1605   -1.7709   -0.4716 H   0  0  0  0  0  0  0  0  0  0  0  0
    8.1498   -2.7322    0.9570 H   0  0  0  0  0  0  0  0  0  0  0  0
  1  2  1  0
  1 19  1  0
  1 20  1  0
  1 21  1  0
  2  6  1  0
  2  3  1  0
  3  4  2  0
  3 22  1  0
  4  5  1  0
  5  6  2  0
  5 23  1  0
  6  7  1  0
  7  8  1  0
  7 24  1  0
  7 25  1  0
  8 16  1  0
  8  9  1  0
  9 14  1  0
  9 10  2  0
 10 11  1  0
 10 26  1  0
 11 12  2  0
 11 27  1  0
 12 13  1  0
 12 28  1  0
 13 14  2  0
 13 29  1  0
 14 15  1  0
 15 16  1  0
 15 30  1  0
 15 31  1  0
 16 17  1  0
 16 18  1  0
 17 32  1  0
 17 33  1  0
 17 34  1  0
 18 35  1  0
 18 36  1  0
 18 37  1  0
M  END
>  <i_m_ct_stereo_status>  (93) 
1

>  <s_m_source_file>  (93) 
/var/tmp/pbs.5076255.sched01/tmpu5rzjxe4/0gixxd53k.sdf

>  <i_m_source_file_index>  (93) 
38

>  <i_lp_mmshare_version>  (93) 
48012

>  <i_f3d_flags>  (93) 
0

>  <s_epik_input>  (93) 
W0NIM11uMVtjSF1uW2NIXWMxW0NIMl1OMkMoW0NIM10pKFtDSDNdKVtDSDJdYyhjMjMpW2NIXVtjSF1bY0hdW2NIXTM=

>  <s_epik_cmdline>  (93) 
J2VwaWtfcHl0aG9uJywgJy1waHQnLCAnMi4wJywgJy1waCcsICc3LjAnLCAnLXRuJywgJzgnLCAnLW1hJywgJzIwMCcsICctaW1hZScsICc8aW5maWxlLm1hZT4nLCAnLW9tYWUnLCAnPG91dGZpbGUubWFlPic=

>  <r_lp_tautomer_probability>  (93) 
1

>  <r_epik_Ionization_Penalty>  (93) 
1.22285

>  <r_epik_Ionization_Penalty_Charging>  (93) 
1.22119

>  <r_epik_Ionization_Penalty_Neutral>  (93) 
0.00165947

>  <r_epik_State_Penalty>  (93) 
1.28849

>  <r_epik_Charging_Adjusted_Penalty>  (93) 
2.50968

>  <i_epik_Tot_Q>  (93) 
0

>  <i_epik_Tot_abs_Q>  (93) 
0

>  <s_lp_Force_Field>  (93) 
OPLS3e

>  <r_lp_Energy>  (93) 
25.2316

>  <b_lp_Chiralities_Consistent>  (93) 
1

>  <s_lp_Variant>  (93) 
27:0-2

>  <s_i_glide_gridfile>  (93) 
pfpi4k_grid

>  <i_i_glide_lignum>  (93) 
38

>  <i_i_glide_rotatable_bonds>  (93) 
2

>  <r_i_docking_score>  (93) 
-3.26306

>  <r_i_glide_ligand_efficiency>  (93) 
-0.181281

>  <r_i_glide_ligand_efficiency_sa>  (93) 
-0.47509

>  <r_i_glide_ligand_efficiency_ln>  (93) 
-0.838752

>  <r_i_glide_gscore>  (93) 
-3.26306

>  <r_i_glide_lipo>  (93) 
-0.612935

>  <r_i_glide_hbond>  (93) 
-0.0390809

>  <r_i_glide_metal>  (93) 
-0

>  <r_i_glide_rewards>  (93) 
-1.86956

>  <r_i_glide_evdw>  (93) 
-19.217

>  <r_i_glide_ecoul>  (93) 
-2.4511

>  <r_i_glide_erotb>  (93) 
0.594848

>  <r_i_glide_esite>  (93) 
-0.00781075

>  <r_i_glide_emodel>  (93) 
-24.6258

>  <r_i_glide_energy>  (93) 
-21.6681

>  <r_i_glide_einternal>  (93) 
1.09475

>  <r_i_glide_intrahb_reward>  (93) 
-0

>  <i_i_glide_confnum>  (93) 
1

>  <i_i_glide_posenum>  (93) 
1

>  <r_i_glide_eff_state_penalty>  (93) 
0

>  <ligand_id>  (93) 
27

>  <original_smiles>  (93) 
Cn1cncc1CN1c2ccccc2CC1(C)C

>  <smiles>  (93) 
[H]c1nc([H])n(C([H])([H])[H])c1C([H])([H])N1c2c([H])c([H])c([H])c([H])c2C([H])([H])C1(C([H])([H])[H])C([H])([H])[H]

$$$$
27:1:2
     RDKit          3D

 37 39  0  0  1  0  0  0  0  0999 V2000
   -0.1087    1.5422   12.6376 C   0  0  0  0  0  0  0  0  0  0  0  0
    0.0067    0.9809   11.2891 N   0  0  0  0  0  0  0  0  0  0  0  0
   -0.1662   -0.3250   10.9970 C   0  0  0  0  0  0  0  0  0  0  0  0
   -0.0576   -0.6467    9.7125 N   0  0  0  0  0  0  0  0  0  0  0  0
    0.2878    0.5677    9.1010 C   0  0  0  0  0  0  0  0  0  0  0  0
    0.2834    1.5984   10.0548 C   0  0  0  0  0  0  0  0  0  0  0  0
    0.4699    3.1100    9.8781 C   0  0  0  0  0  0  0  0  0  0  0  0
   -0.5860    3.7698    9.0796 N   0  0  0  0  0  0  0  0  0  0  0  0
   -0.8439    3.3218    7.7635 C   0  0  0  0  0  0  0  0  0  0  0  0
    0.0571    2.6947    6.8986 C   0  0  0  0  0  0  0  0  0  0  0  0
   -0.4327    2.1709    5.6739 C   0  0  0  0  0  0  0  0  0  0  0  0
   -1.7958    2.3017    5.3458 C   0  0  0  0  0  0  0  0  0  0  0  0
   -2.6870    2.9527    6.2151 C   0  0  0  0  0  0  0  0  0  0  0  0
   -2.1733    3.4705    7.4365 C   0  0  0  0  0  0  0  0  0  0  0  0
   -2.9401    4.1350    8.5354 C   0  0  0  0  0  0  0  0  0  0  0  0
   -1.8577    4.2789    9.6417 C   0  0  0  0  0  0  0  0  0  0  0  0
   -2.3029    3.4990   10.8769 C   0  0  0  0  0  0  0  0  0  0  0  0
   -1.6798    5.7431   10.0874 C   0  0  0  0  0  0  0  0  0  0  0  0
   -0.3245    0.7089   13.3244 H   0  0  0  0  0  0  0  0  0  0  0  0
   -0.9084    2.2792   12.6962 H   0  0  0  0  0  0  0  0  0  0  0  0
    0.8583    1.9877   12.8973 H   0  0  0  0  0  0  0  0  0  0  0  0
   -0.4345   -1.0709   11.7398 H   0  0  0  0  0  0  0  0  0  0  0  0
    0.4605    0.5423    8.0404 H   0  0  0  0  0  0  0  0  0  0  0  0
    0.5147    3.5957   10.8617 H   0  0  0  0  0  0  0  0  0  0  0  0
    1.4527    3.3148    9.4468 H   0  0  0  0  0  0  0  0  0  0  0  0
    1.0994    2.6019    7.1440 H   0  0  0  0  0  0  0  0  0  0  0  0
    0.2301    1.5977    5.0470 H   0  0  0  0  0  0  0  0  0  0  0  0
   -2.1691    1.8723    4.4121 H   0  0  0  0  0  0  0  0  0  0  0  0
   -3.7350    3.0666    5.9804 H   0  0  0  0  0  0  0  0  0  0  0  0
   -3.3132    5.1003    8.1872 H   0  0  0  0  0  0  0  0  0  0  0  0
   -3.7957    3.5342    8.8636 H   0  0  0  0  0  0  0  0  0  0  0  0
   -3.3021    3.7417   11.2425 H   0  0  0  0  0  0  0  0  0  0  0  0
   -1.5937    3.7382   11.6520 H   0  0  0  0  0  0  0  0  0  0  0  0
   -2.2790    2.4361   10.6834 H   0  0  0  0  0  0  0  0  0  0  0  0
   -2.5953    6.1238   10.5416 H   0  0  0  0  0  0  0  0  0  0  0  0
   -1.4008    6.4083    9.2657 H   0  0  0  0  0  0  0  0  0  0  0  0
   -0.9027    5.8240   10.8497 H   0  0  0  0  0  0  0  0  0  0  0  0
  1  2  1  0
  1 19  1  0
  1 20  1  0
  1 21  1  0
  2  6  1  0
  2  3  1  0
  3  4  2  0
  3 22  1  0
  4  5  1  0
  5  6  2  0
  5 23  1  0
  6  7  1  0
  7  8  1  0
  7 24  1  0
  7 25  1  0
  8 16  1  0
  8  9  1  0
  9 14  1  0
  9 10  2  0
 10 11  1  0
 10 26  1  0
 11 12  2  0
 11 27  1  0
 12 13  1  0
 12 28  1  0
 13 14  2  0
 13 29  1  0
 14 15  1  0
 15 16  1  0
 15 30  1  0
 15 31  1  0
 16 17  1  0
 16 18  1  0
 17 32  1  0
 17 33  1  0
 17 34  1  0
 18 35  1  0
 18 36  1  0
 18 37  1  0
M  END
>  <i_m_ct_stereo_status>  (94) 
1

>  <s_m_source_file>  (94) 
/var/tmp/pbs.5076255.sched01/tmpu5rzjxe4/0gixxd53k.sdf

>  <i_m_source_file_index>  (94) 
38

>  <i_lp_mmshare_version>  (94) 
48012

>  <i_f3d_flags>  (94) 
0

>  <s_epik_input>  (94) 
W0NIM11uMVtjSF1uW2NIXWMxW0NIMl1OMkMoW0NIM10pKFtDSDNdKVtDSDJdYyhjMjMpW2NIXVtjSF1bY0hdW2NIXTM=

>  <s_epik_cmdline>  (94) 
J2VwaWtfcHl0aG9uJywgJy1waHQnLCAnMi4wJywgJy1waCcsICc3LjAnLCAnLXRuJywgJzgnLCAnLW1hJywgJzIwMCcsICctaW1hZScsICc8aW5maWxlLm1hZT4nLCAnLW9tYWUnLCAnPG91dGZpbGUubWFlPic=

>  <r_lp_tautomer_probability>  (94) 
1

>  <r_epik_Ionization_Penalty>  (94) 
1.22285

>  <r_epik_Ionization_Penalty_Charging>  (94) 
1.22119

>  <r_epik_Ionization_Penalty_Neutral>  (94) 
0.00165947

>  <r_epik_State_Penalty>  (94) 
1.28849

>  <r_epik_Charging_Adjusted_Penalty>  (94) 
2.50968

>  <i_epik_Tot_Q>  (94) 
0

>  <i_epik_Tot_abs_Q>  (94) 
0

>  <s_lp_Force_Field>  (94) 
OPLS3e

>  <r_lp_Energy>  (94) 
25.2316

>  <b_lp_Chiralities_Consistent>  (94) 
1

>  <s_lp_Variant>  (94) 
27:0-2

>  <s_i_glide_gridfile>  (94) 
pfpi4k_grid

>  <i_i_glide_lignum>  (94) 
38

>  <i_i_glide_rotatable_bonds>  (94) 
2

>  <r_i_docking_score>  (94) 
-2.89079

>  <r_i_glide_ligand_efficiency>  (94) 
-0.160599

>  <r_i_glide_ligand_efficiency_sa>  (94) 
-0.420889

>  <r_i_glide_ligand_efficiency_ln>  (94) 
-0.743062

>  <r_i_glide_gscore>  (94) 
-2.89079

>  <r_i_glide_lipo>  (94) 
-0.312933

>  <r_i_glide_hbond>  (94) 
-0.024798

>  <r_i_glide_metal>  (94) 
-0

>  <r_i_glide_rewards>  (94) 
-1.76365

>  <r_i_glide_evdw>  (94) 
-13.8514

>  <r_i_glide_ecoul>  (94) 
-3.73576

>  <r_i_glide_erotb>  (94) 
0.594848

>  <r_i_glide_esite>  (94) 
-0.131323

>  <r_i_glide_emodel>  (94) 
-19.8868

>  <r_i_glide_energy>  (94) 
-17.5871

>  <r_i_glide_einternal>  (94) 
0.479902

>  <r_i_glide_intrahb_reward>  (94) 
-0

>  <i_i_glide_confnum>  (94) 
2

>  <i_i_glide_posenum>  (94) 
9

>  <r_i_glide_eff_state_penalty>  (94) 
0

>  <ligand_id>  (94) 
27

>  <original_smiles>  (94) 
Cn1cncc1CN1c2ccccc2CC1(C)C

>  <smiles>  (94) 
[H]c1nc([H])n(C([H])([H])[H])c1C([H])([H])N1c2c([H])c([H])c([H])c([H])c2C([H])([H])C1(C([H])([H])[H])C([H])([H])[H]

$$$$
29:0:0
     RDKit          3D

 54 60  0  0  1  0  0  0  0  0999 V2000
    4.9758   -6.5304    6.9174 C   0  0  0  0  0  0  0  0  0  0  0  0
    3.8665   -6.5930    5.8701 C   0  0  2  0  0  0  0  0  0  0  0  0
    2.8021   -5.5173    5.9413 C   0  0  0  0  0  0  0  0  0  0  0  0
    2.5875   -4.1401    5.8445 C   0  0  0  0  0  0  0  0  0  0  0  0
    1.2273   -3.7511    5.9949 C   0  0  0  0  0  0  0  0  0  0  0  0
    0.1846   -4.6876    6.2494 C   0  0  0  0  0  0  0  0  0  0  0  0
    0.4230   -6.0804    6.3565 C   0  0  0  0  0  0  0  0  0  0  0  0
    1.7451   -6.4624    6.1328 C   0  0  0  0  0  0  0  0  0  0  0  0
    2.6808   -7.6592    6.0736 C   0  0  2  0  0  0  0  0  0  0  0  0
    2.6536   -8.7426    7.1729 C   0  0  1  0  0  0  0  0  0  0  0  0
    1.2241   -9.2091    7.5329 C   0  0  0  0  0  0  0  0  0  0  0  0
    0.4403   -9.4798    6.2303 C   0  0  0  0  0  0  0  0  0  0  0  0
    1.0561   -9.3127    5.0320 C   0  0  0  0  0  0  0  0  0  0  0  0
    0.5101   -9.4829    3.6014 C   0  0  1  0  0  0  0  0  0  0  0  0
   -0.9657   -9.2574    3.4858 N   0  0  0  0  0  0  0  0  0  0  0  0
   -1.5097   -9.5569    2.1343 C   0  0  0  0  0  0  0  0  0  0  0  0
   -1.4448   -7.9305    3.9419 C   0  0  0  0  0  0  0  0  0  0  0  0
    1.3375   -8.6598    2.5536 C   0  0  0  0  0  0  0  0  0  0  0  0
    2.8475   -8.8935    2.6003 C   0  0  0  0  0  0  0  0  0  0  0  0
    3.8052   -9.0580    1.5799 C   0  0  0  0  0  0  0  0  0  0  0  0
    5.1537   -9.3586    1.9299 C   0  0  0  0  0  0  0  0  0  0  0  0
    5.5476   -9.5390    3.2828 C   0  0  0  0  0  0  0  0  0  0  0  0
    6.8378   -9.8726    3.5808 O   0  0  0  0  0  0  0  0  0  0  0  0
    4.5982   -9.3865    4.3151 C   0  0  0  0  0  0  0  0  0  0  0  0
    3.3235   -9.0400    3.8980 C   0  0  0  0  0  0  0  0  0  0  0  0
    2.5046   -8.8783    5.1164 C   0  0  1  0  0  0  0  0  0  0  0  0
    3.3239   -9.6769    6.1468 C   0  0  1  0  0  0  0  0  0  0  0  0
    4.6921   -9.5451    5.6834 O   0  0  0  0  0  0  0  0  0  0  0  0
    5.6487   -5.6885    6.7689 H   0  0  0  0  0  0  0  0  0  0  0  0
    5.5839   -7.4340    6.8712 H   0  0  0  0  0  0  0  0  0  0  0  0
    4.5765   -6.4807    7.9289 H   0  0  0  0  0  0  0  0  0  0  0  0
    4.2436   -6.6178    4.8459 H   0  0  0  0  0  0  0  0  0  0  0  0
    3.3719   -3.4203    5.6507 H   0  0  0  0  0  0  0  0  0  0  0  0
    0.9670   -2.7068    5.9272 H   0  0  0  0  0  0  0  0  0  0  0  0
   -0.8212   -4.3243    6.3812 H   0  0  0  0  0  0  0  0  0  0  0  0
   -0.3651   -6.7698    6.6104 H   0  0  0  0  0  0  0  0  0  0  0  0
    3.2933   -8.5369    8.0260 H   0  0  0  0  0  0  0  0  0  0  0  0
    1.2479  -10.1173    8.1365 H   0  0  0  0  0  0  0  0  0  0  0  0
    0.7176   -8.4474    8.1218 H   0  0  0  0  0  0  0  0  0  0  0  0
   -0.5915   -9.7887    6.3131 H   0  0  0  0  0  0  0  0  0  0  0  0
    0.6758  -10.5352    3.3739 H   0  0  0  0  0  0  0  0  0  0  0  0
   -1.1766   -8.8211    1.4003 H   0  0  0  0  0  0  0  0  0  0  0  0
   -2.5974   -9.4955    2.1499 H   0  0  0  0  0  0  0  0  0  0  0  0
   -1.2207  -10.5532    1.7903 H   0  0  0  0  0  0  0  0  0  0  0  0
   -1.1350   -7.1261    3.2715 H   0  0  0  0  0  0  0  0  0  0  0  0
   -1.0763   -7.7180    4.9335 H   0  0  0  0  0  0  0  0  0  0  0  0
   -2.5339   -7.9329    4.0124 H   0  0  0  0  0  0  0  0  0  0  0  0
    1.0465   -8.9266    1.5433 H   0  0  0  0  0  0  0  0  0  0  0  0
    1.1547   -7.5884    2.6717 H   0  0  0  0  0  0  0  0  0  0  0  0
    3.5169   -8.9776    0.5439 H   0  0  0  0  0  0  0  0  0  0  0  0
    5.8724   -9.4855    1.1360 H   0  0  0  0  0  0  0  0  0  0  0  0
    7.3859   -9.9573    2.8179 H   0  0  0  0  0  0  0  0  0  0  0  0
    3.0173  -10.7255    6.2375 H   0  0  0  0  0  0  0  0  0  0  0  0
   -1.3862   -9.9419    4.1230 H   0  0  0  0  0  0  0  0  0  0  0  0
  1  2  1  0
  1 29  1  0
  1 30  1  0
  1 31  1  0
  2  9  1  0
  2  3  1  0
  2 32  1  6
  3  8  2  0
  3  4  1  0
  4  5  2  0
  4 33  1  0
  5  6  1  0
  5 34  1  0
  6  7  2  0
  6 35  1  0
  7  8  1  0
  7 36  1  0
  9  8  1  1
  9 26  1  0
  9 10  1  0
 10 27  1  0
 10 11  1  0
 10 37  1  1
 11 12  1  0
 11 38  1  0
 11 39  1  0
 12 13  2  0
 12 40  1  0
 26 13  1  6
 13 14  1  0
 14 15  1  0
 14 18  1  0
 14 41  1  6
 15 16  1  0
 15 17  1  0
 15 54  1  0
 16 42  1  0
 16 43  1  0
 16 44  1  0
 17 45  1  0
 17 46  1  0
 17 47  1  0
 18 19  1  0
 18 48  1  0
 18 49  1  0
 19 25  2  0
 19 20  1  0
 20 21  2  0
 20 50  1  0
 21 22  1  0
 21 51  1  0
 22 23  1  0
 22 24  2  0
 23 52  1  0
 24 28  1  0
 24 25  1  0
 25 26  1  0
 26 27  1  0
 27 28  1  0
 27 53  1  1
M  CHG  1  15   1
M  END
>  <i_m_ct_stereo_status>  (95) 
1

>  <s_m_source_file>  (95) 
/var/tmp/pbs.5076255.sched01/tmpu5rzjxe4/0gixxd53k.sdf

>  <i_m_source_file_index>  (95) 
40

>  <i_lp_mmshare_version>  (95) 
48012

>  <i_f3d_flags>  (95) 
1

>  <s_epik_input>  (95) 
W2NIXTFbY0hdW2NIXVtjSF1jKFtDQEhdMltDSDNdKWMxW0NAQF0yM1tDQEBdNDVDNj1bQ0hdW0NIMl1bQ0BIXTNbQ0BASF01T2M3YzRjKFtDSDJdW0NAQEhdNk4oW0NIM10pW0NIM10pW2NIXVtjSF1jN1tPSF0=

>  <s_epik_cmdline>  (95) 
J2VwaWtfcHl0aG9uJywgJy1waHQnLCAnMi4wJywgJy1waCcsICc3LjAnLCAnLXRuJywgJzgnLCAnLW1hJywgJzIwMCcsICctaW1hZScsICc8aW5maWxlLm1hZT4nLCAnLW9tYWUnLCAnPG91dGZpbGUubWFlPic=

>  <r_lp_tautomer_probability>  (95) 
1

>  <r_epik_Ionization_Penalty>  (95) 
0.0238614

>  <r_epik_Ionization_Penalty_Charging>  (95) 
0.00750249

>  <r_epik_Ionization_Penalty_Neutral>  (95) 
0.0163589

>  <r_epik_State_Penalty>  (95) 
0.0183955

>  <r_epik_Charging_Adjusted_Penalty>  (95) 
0.025898

>  <i_epik_Tot_Q>  (95) 
1

>  <i_epik_Tot_abs_Q>  (95) 
1

>  <s_lp_Force_Field>  (95) 
OPLS3e

>  <r_lp_Energy>  (95) 
88.8315

>  <b_lp_Chiralities_Consistent>  (95) 
1

>  <s_lp_Variant>  (95) 
29:0-1

>  <s_i_glide_gridfile>  (95) 
pfpi4k_grid

>  <i_i_glide_lignum>  (95) 
40

>  <i_i_glide_rotatable_bonds>  (95) 
2

>  <r_i_docking_score>  (95) 
-2.92326

>  <r_i_glide_ligand_efficiency>  (95) 
-0.104402

>  <r_i_glide_ligand_efficiency_sa>  (95) 
-0.317027

>  <r_i_glide_ligand_efficiency_ln>  (95) 
-0.674775

>  <r_i_glide_gscore>  (95) 
-2.92326

>  <r_i_glide_lipo>  (95) 
-0.184913

>  <r_i_glide_hbond>  (95) 
-0.2

>  <r_i_glide_metal>  (95) 
-0

>  <r_i_glide_rewards>  (95) 
-0.869458

>  <r_i_glide_evdw>  (95) 
-19.7749

>  <r_i_glide_ecoul>  (95) 
-3.93597

>  <r_i_glide_erotb>  (95) 
0

>  <r_i_glide_esite>  (95) 
-0.089754

>  <r_i_glide_emodel>  (95) 
-30.1898

>  <r_i_glide_energy>  (95) 
-23.7109

>  <r_i_glide_einternal>  (95) 
0.768559

>  <r_i_glide_intrahb_reward>  (95) 
-0

>  <i_i_glide_confnum>  (95) 
1

>  <i_i_glide_posenum>  (95) 
1

>  <r_i_glide_eff_state_penalty>  (95) 
0

>  <ligand_id>  (95) 
29

>  <original_smiles>  (95) 
CC1c2ccccc2C12C1CC=C3C(N(C)C)Cc4ccc(O)c5c4C32C1O5

>  <smiles>  (95) 
[H]Oc1c([H])c([H])c2c3c1OC1([H])C34C(=C([H])C([H])([H])C1([H])C41c3c([H])c([H])c([H])c([H])c3C1([H])C([H])([H])[H])C([H])([N+]([H])(C([H])([H])[H])C([H])([H])[H])C2([H])[H]

$$$$
29:0:1
     RDKit          3D

 54 60  0  0  1  0  0  0  0  0999 V2000
    2.5826   -4.8131    2.9230 C   0  0  0  0  0  0  0  0  0  0  0  0
    2.5899   -6.3345    2.7805 C   0  0  2  0  0  0  0  0  0  0  0  0
    1.2333   -6.9730    2.5660 C   0  0  0  0  0  0  0  0  0  0  0  0
    0.1554   -7.0594    1.6754 C   0  0  0  0  0  0  0  0  0  0  0  0
   -0.8518   -7.9766    2.0876 C   0  0  0  0  0  0  0  0  0  0  0  0
   -0.7746   -8.7282    3.3123 C   0  0  0  0  0  0  0  0  0  0  0  0
    0.3305   -8.6376    4.1932 C   0  0  0  0  0  0  0  0  0  0  0  0
    1.3426   -7.7812    3.7507 C   0  0  0  0  0  0  0  0  0  0  0  0
    2.7171   -7.2405    4.1024 C   0  0  2  0  0  0  0  0  0  0  0  0
    2.9938   -6.6981    5.5190 C   0  0  1  0  0  0  0  0  0  0  0  0
    2.4856   -7.6258    6.6442 C   0  0  0  0  0  0  0  0  0  0  0  0
    2.9084   -9.0779    6.3265 C   0  0  0  0  0  0  0  0  0  0  0  0
    3.6312   -9.3331    5.2091 C   0  0  0  0  0  0  0  0  0  0  0  0
    4.1575  -10.6641    4.6607 C   0  0  1  0  0  0  0  0  0  0  0  0
    3.3341  -11.8394    5.0620 N   0  0  0  0  0  0  0  0  0  0  0  0
    4.0337  -13.1314    4.8755 C   0  0  0  0  0  0  0  0  0  0  0  0
    1.9857  -11.8811    4.4573 C   0  0  0  0  0  0  0  0  0  0  0  0
    4.4373  -10.6050    3.1202 C   0  0  0  0  0  0  0  0  0  0  0  0
    5.3244   -9.4415    2.6667 C   0  0  0  0  0  0  0  0  0  0  0  0
    6.3757   -9.3504    1.7384 C   0  0  0  0  0  0  0  0  0  0  0  0
    7.0937   -8.1255    1.6080 C   0  0  0  0  0  0  0  0  0  0  0  0
    6.7815   -6.9846    2.4146 C   0  0  0  0  0  0  0  0  0  0  0  0
    7.5323   -5.8525    2.2841 O   0  0  0  0  0  0  0  0  0  0  0  0
    5.7290   -7.0493    3.3416 C   0  0  0  0  0  0  0  0  0  0  0  0
    5.0636   -8.2663    3.3841 C   0  0  0  0  0  0  0  0  0  0  0  0
    3.9799   -8.1208    4.3731 C   0  0  1  0  0  0  0  0  0  0  0  0
    4.4766   -6.9211    5.2023 C   0  0  1  0  0  0  0  0  0  0  0  0
    5.2455   -6.1259    4.2642 O   0  0  0  0  0  0  0  0  0  0  0  0
    2.3529   -4.2961    1.9907 H   0  0  0  0  0  0  0  0  0  0  0  0
    3.5646   -4.4784    3.2365 H   0  0  0  0  0  0  0  0  0  0  0  0
    1.8854   -4.4853    3.6933 H   0  0  0  0  0  0  0  0  0  0  0  0
    3.2517   -6.7081    1.9899 H   0  0  0  0  0  0  0  0  0  0  0  0
    0.0922   -6.5329    0.7196 H   0  0  0  0  0  0  0  0  0  0  0  0
   -1.7220   -8.1668    1.4774 H   0  0  0  0  0  0  0  0  0  0  0  0
   -1.5882   -9.4011    3.5552 H   0  0  0  0  0  0  0  0  0  0  0  0
    0.3604   -9.2086    5.1266 H   0  0  0  0  0  0  0  0  0  0  0  0
    2.7577   -5.6477    5.6373 H   0  0  0  0  0  0  0  0  0  0  0  0
    2.8960   -7.3249    7.6069 H   0  0  0  0  0  0  0  0  0  0  0  0
    1.4025   -7.5567    6.7159 H   0  0  0  0  0  0  0  0  0  0  0  0
    2.5836   -9.8464    7.0079 H   0  0  0  0  0  0  0  0  0  0  0  0
    5.1175  -10.7773    5.1419 H   0  0  0  0  0  0  0  0  0  0  0  0
    4.1938  -13.3659    3.8275 H   0  0  0  0  0  0  0  0  0  0  0  0
    3.4444  -13.9425    5.2854 H   0  0  0  0  0  0  0  0  0  0  0  0
    4.9948  -13.1500    5.3747 H   0  0  0  0  0  0  0  0  0  0  0  0
    2.0089  -12.1101    3.3981 H   0  0  0  0  0  0  0  0  0  0  0  0
    1.4710  -10.9489    4.5900 H   0  0  0  0  0  0  0  0  0  0  0  0
    1.3749  -12.6395    4.9292 H   0  0  0  0  0  0  0  0  0  0  0  0
    4.9524  -11.4970    2.7876 H   0  0  0  0  0  0  0  0  0  0  0  0
    3.5088  -10.5469    2.5512 H   0  0  0  0  0  0  0  0  0  0  0  0
    6.6442  -10.2192    1.1481 H   0  0  0  0  0  0  0  0  0  0  0  0
    7.9018   -8.0748    0.8975 H   0  0  0  0  0  0  0  0  0  0  0  0
    8.2946   -5.9712    1.7416 H   0  0  0  0  0  0  0  0  0  0  0  0
    5.0592   -7.2130    6.0753 H   0  0  0  0  0  0  0  0  0  0  0  0
    3.1691  -11.7769    6.0600 H   0  0  0  0  0  0  0  0  0  0  0  0
  1  2  1  0
  1 29  1  0
  1 30  1  0
  1 31  1  0
  2  9  1  0
  2  3  1  0
  2 32  1  6
  3  8  2  0
  3  4  1  0
  4  5  2  0
  4 33  1  0
  5  6  1  0
  5 34  1  0
  6  7  2  0
  6 35  1  0
  7  8  1  0
  7 36  1  0
  9  8  1  1
  9 26  1  0
  9 10  1  0
 10 27  1  0
 10 11  1  0
 10 37  1  6
 11 12  1  0
 11 38  1  0
 11 39  1  0
 12 13  2  0
 12 40  1  0
 26 13  1  1
 13 14  1  0
 14 15  1  0
 14 18  1  0
 14 41  1  1
 15 16  1  0
 15 17  1  0
 15 54  1  0
 16 42  1  0
 16 43  1  0
 16 44  1  0
 17 45  1  0
 17 46  1  0
 17 47  1  0
 18 19  1  0
 18 48  1  0
 18 49  1  0
 19 25  2  0
 19 20  1  0
 20 21  2  0
 20 50  1  0
 21 22  1  0
 21 51  1  0
 22 23  1  0
 22 24  2  0
 23 52  1  0
 24 28  1  0
 24 25  1  0
 25 26  1  0
 26 27  1  0
 27 28  1  0
 27 53  1  1
M  CHG  1  15   1
M  END
>  <i_m_ct_stereo_status>  (96) 
1

>  <s_m_source_file>  (96) 
/var/tmp/pbs.5076255.sched01/tmpu5rzjxe4/0gixxd53k.sdf

>  <i_m_source_file_index>  (96) 
40

>  <i_lp_mmshare_version>  (96) 
48012

>  <i_f3d_flags>  (96) 
1

>  <s_epik_input>  (96) 
W2NIXTFbY0hdW2NIXVtjSF1jKFtDQEhdMltDSDNdKWMxW0NAQF0yM1tDQEBdNDVDNj1bQ0hdW0NIMl1bQ0BIXTNbQ0BASF01T2M3YzRjKFtDSDJdW0NAQEhdNk4oW0NIM10pW0NIM10pW2NIXVtjSF1jN1tPSF0=

>  <s_epik_cmdline>  (96) 
J2VwaWtfcHl0aG9uJywgJy1waHQnLCAnMi4wJywgJy1waCcsICc3LjAnLCAnLXRuJywgJzgnLCAnLW1hJywgJzIwMCcsICctaW1hZScsICc8aW5maWxlLm1hZT4nLCAnLW9tYWUnLCAnPG91dGZpbGUubWFlPic=

>  <r_lp_tautomer_probability>  (96) 
1

>  <r_epik_Ionization_Penalty>  (96) 
0.0238614

>  <r_epik_Ionization_Penalty_Charging>  (96) 
0.00750249

>  <r_epik_Ionization_Penalty_Neutral>  (96) 
0.0163589

>  <r_epik_State_Penalty>  (96) 
0.0183955

>  <r_epik_Charging_Adjusted_Penalty>  (96) 
0.025898

>  <i_epik_Tot_Q>  (96) 
1

>  <i_epik_Tot_abs_Q>  (96) 
1

>  <s_lp_Force_Field>  (96) 
OPLS3e

>  <r_lp_Energy>  (96) 
88.8315

>  <b_lp_Chiralities_Consistent>  (96) 
1

>  <s_lp_Variant>  (96) 
29:0-1

>  <s_i_glide_gridfile>  (96) 
pfpi4k_grid

>  <i_i_glide_lignum>  (96) 
40

>  <i_i_glide_rotatable_bonds>  (96) 
2

>  <r_i_docking_score>  (96) 
-2.90481

>  <r_i_glide_ligand_efficiency>  (96) 
-0.103743

>  <r_i_glide_ligand_efficiency_sa>  (96) 
-0.315025

>  <r_i_glide_ligand_efficiency_ln>  (96) 
-0.670515

>  <r_i_glide_gscore>  (96) 
-2.90481

>  <r_i_glide_lipo>  (96) 
-0.225455

>  <r_i_glide_hbond>  (96) 
0

>  <r_i_glide_metal>  (96) 
-0

>  <r_i_glide_rewards>  (96) 
-0.869458

>  <r_i_glide_evdw>  (96) 
-21.83

>  <r_i_glide_ecoul>  (96) 
-4.38747

>  <r_i_glide_erotb>  (96) 
0

>  <r_i_glide_esite>  (96) 
-0.0602735

>  <r_i_glide_emodel>  (96) 
-32.951

>  <r_i_glide_energy>  (96) 
-26.2175

>  <r_i_glide_einternal>  (96) 
0.129678

>  <r_i_glide_intrahb_reward>  (96) 
-0

>  <i_i_glide_confnum>  (96) 
1

>  <i_i_glide_posenum>  (96) 
9

>  <r_i_glide_eff_state_penalty>  (96) 
0

>  <ligand_id>  (96) 
29

>  <original_smiles>  (96) 
CC1c2ccccc2C12C1CC=C3C(N(C)C)Cc4ccc(O)c5c4C32C1O5

>  <smiles>  (96) 
[H]Oc1c([H])c([H])c2c3c1OC1([H])C34C(=C([H])C([H])([H])C1([H])C41c3c([H])c([H])c([H])c([H])c3C1([H])C([H])([H])[H])C([H])([N+]([H])(C([H])([H])[H])C([H])([H])[H])C2([H])[H]

$$$$
29:0:2
     RDKit          3D

 54 60  0  0  1  0  0  0  0  0999 V2000
    5.0634   -5.9793    6.9750 C   0  0  0  0  0  0  0  0  0  0  0  0
    3.9041   -6.1538    5.9967 C   0  0  2  0  0  0  0  0  0  0  0  0
    2.6773   -5.2966    6.2329 C   0  0  0  0  0  0  0  0  0  0  0  0
    2.2174   -3.9774    6.2773 C   0  0  0  0  0  0  0  0  0  0  0  0
    0.8264   -3.8522    6.5450 C   0  0  0  0  0  0  0  0  0  0  0  0
   -0.0172   -4.9811    6.7754 C   0  0  0  0  0  0  0  0  0  0  0  0
    0.4724   -6.3122    6.7394 C   0  0  0  0  0  0  0  0  0  0  0  0
    1.8189   -6.4291    6.4007 C   0  0  0  0  0  0  0  0  0  0  0  0
    2.9431   -7.4288    6.1730 C   0  0  2  0  0  0  0  0  0  0  0  0
    3.1896   -8.5840    7.1652 C   0  0  1  0  0  0  0  0  0  0  0  0
    1.8945   -9.3215    7.5649 C   0  0  0  0  0  0  0  0  0  0  0  0
    1.0690   -9.6268    6.2955 C   0  0  0  0  0  0  0  0  0  0  0  0
    1.5531   -9.2570    5.0828 C   0  0  0  0  0  0  0  0  0  0  0  0
    0.9363   -9.4161    3.6806 C   0  0  1  0  0  0  0  0  0  0  0  0
   -0.5612   -9.4518    3.6828 N   0  0  0  0  0  0  0  0  0  0  0  0
   -1.1469   -9.7460    2.3472 C   0  0  0  0  0  0  0  0  0  0  0  0
   -1.2160   -8.2640    4.2752 C   0  0  0  0  0  0  0  0  0  0  0  0
    1.5243   -8.3752    2.6603 C   0  0  0  0  0  0  0  0  0  0  0  0
    3.0509   -8.3344    2.5974 C   0  0  0  0  0  0  0  0  0  0  0  0
    3.9447   -8.2393    1.5106 C   0  0  0  0  0  0  0  0  0  0  0  0
    5.3441   -8.3212    1.7458 C   0  0  0  0  0  0  0  0  0  0  0  0
    5.8705   -8.5368    3.0497 C   0  0  0  0  0  0  0  0  0  0  0  0
    7.2174   -8.6565    3.2359 O   0  0  0  0  0  0  0  0  0  0  0  0
    4.9875   -8.6402    4.1480 C   0  0  0  0  0  0  0  0  0  0  0  0
    3.6468   -8.4940    3.8439 C   0  0  0  0  0  0  0  0  0  0  0  0
    2.9058   -8.5787    5.1192 C   0  0  1  0  0  0  0  0  0  0  0  0
    3.9284   -9.2973    6.0184 C   0  0  1  0  0  0  0  0  0  0  0  0
    5.2137   -8.8867    5.4866 O   0  0  0  0  0  0  0  0  0  0  0  0
    5.5663   -5.0201    6.8645 H   0  0  0  0  0  0  0  0  0  0  0  0
    5.8120   -6.7533    6.8066 H   0  0  0  0  0  0  0  0  0  0  0  0
    4.7388   -6.0846    8.0092 H   0  0  0  0  0  0  0  0  0  0  0  0
    4.2016   -6.0307    4.9535 H   0  0  0  0  0  0  0  0  0  0  0  0
    2.8477   -3.1140    6.1031 H   0  0  0  0  0  0  0  0  0  0  0  0
    0.3840   -2.8690    6.5924 H   0  0  0  0  0  0  0  0  0  0  0  0
   -1.0580   -4.8162    7.0025 H   0  0  0  0  0  0  0  0  0  0  0  0
   -0.1581   -7.1566    6.9786 H   0  0  0  0  0  0  0  0  0  0  0  0
    3.8451   -8.3385    7.9950 H   0  0  0  0  0  0  0  0  0  0  0  0
    2.1265  -10.2535    8.0803 H   0  0  0  0  0  0  0  0  0  0  0  0
    1.3115   -8.7234    8.2589 H   0  0  0  0  0  0  0  0  0  0  0  0
    0.1181  -10.1231    6.4171 H   0  0  0  0  0  0  0  0  0  0  0  0
    1.2663  -10.3977    3.3503 H   0  0  0  0  0  0  0  0  0  0  0  0
   -0.9914   -8.9103    1.6668 H   0  0  0  0  0  0  0  0  0  0  0  0
   -2.2270   -9.8587    2.4343 H   0  0  0  0  0  0  0  0  0  0  0  0
   -0.7186  -10.6535    1.9133 H   0  0  0  0  0  0  0  0  0  0  0  0
   -1.1138   -7.3672    3.6582 H   0  0  0  0  0  0  0  0  0  0  0  0
   -0.8220   -8.0636    5.2609 H   0  0  0  0  0  0  0  0  0  0  0  0
   -2.2724   -8.4818    4.4186 H   0  0  0  0  0  0  0  0  0  0  0  0
    1.2039   -8.6118    1.6492 H   0  0  0  0  0  0  0  0  0  0  0  0
    1.1661   -7.3679    2.8887 H   0  0  0  0  0  0  0  0  0  0  0  0
    3.5688   -8.1202    0.5072 H   0  0  0  0  0  0  0  0  0  0  0  0
    6.0125   -8.2485    0.9035 H   0  0  0  0  0  0  0  0  0  0  0  0
    7.7245   -8.5408    2.4469 H   0  0  0  0  0  0  0  0  0  0  0  0
    3.8164  -10.3868    6.0284 H   0  0  0  0  0  0  0  0  0  0  0  0
   -0.8517  -10.2235    4.2807 H   0  0  0  0  0  0  0  0  0  0  0  0
  1  2  1  0
  1 29  1  0
  1 30  1  0
  1 31  1  0
  2  9  1  0
  2  3  1  0
  2 32  1  6
  3  8  2  0
  3  4  1  0
  4  5  2  0
  4 33  1  0
  5  6  1  0
  5 34  1  0
  6  7  2  0
  6 35  1  0
  7  8  1  0
  7 36  1  0
  9  8  1  1
  9 26  1  0
  9 10  1  0
 10 27  1  0
 10 11  1  0
 10 37  1  1
 11 12  1  0
 11 38  1  0
 11 39  1  0
 12 13  2  0
 12 40  1  0
 26 13  1  6
 13 14  1  0
 14 15  1  0
 14 18  1  0
 14 41  1  6
 15 16  1  0
 15 17  1  0
 15 54  1  0
 16 42  1  0
 16 43  1  0
 16 44  1  0
 17 45  1  0
 17 46  1  0
 17 47  1  0
 18 19  1  0
 18 48  1  0
 18 49  1  0
 19 25  2  0
 19 20  1  0
 20 21  2  0
 20 50  1  0
 21 22  1  0
 21 51  1  0
 22 23  1  0
 22 24  2  0
 23 52  1  0
 24 28  1  0
 24 25  1  0
 25 26  1  0
 26 27  1  0
 27 28  1  0
 27 53  1  1
M  CHG  1  15   1
M  END
>  <i_m_ct_stereo_status>  (97) 
1

>  <s_m_source_file>  (97) 
/var/tmp/pbs.5076255.sched01/tmpu5rzjxe4/0gixxd53k.sdf

>  <i_m_source_file_index>  (97) 
40

>  <i_lp_mmshare_version>  (97) 
48012

>  <i_f3d_flags>  (97) 
1

>  <s_epik_input>  (97) 
W2NIXTFbY0hdW2NIXVtjSF1jKFtDQEhdMltDSDNdKWMxW0NAQF0yM1tDQEBdNDVDNj1bQ0hdW0NIMl1bQ0BIXTNbQ0BASF01T2M3YzRjKFtDSDJdW0NAQEhdNk4oW0NIM10pW0NIM10pW2NIXVtjSF1jN1tPSF0=

>  <s_epik_cmdline>  (97) 
J2VwaWtfcHl0aG9uJywgJy1waHQnLCAnMi4wJywgJy1waCcsICc3LjAnLCAnLXRuJywgJzgnLCAnLW1hJywgJzIwMCcsICctaW1hZScsICc8aW5maWxlLm1hZT4nLCAnLW9tYWUnLCAnPG91dGZpbGUubWFlPic=

>  <r_lp_tautomer_probability>  (97) 
1

>  <r_epik_Ionization_Penalty>  (97) 
0.0238614

>  <r_epik_Ionization_Penalty_Charging>  (97) 
0.00750249

>  <r_epik_Ionization_Penalty_Neutral>  (97) 
0.0163589

>  <r_epik_State_Penalty>  (97) 
0.0183955

>  <r_epik_Charging_Adjusted_Penalty>  (97) 
0.025898

>  <i_epik_Tot_Q>  (97) 
1

>  <i_epik_Tot_abs_Q>  (97) 
1

>  <s_lp_Force_Field>  (97) 
OPLS3e

>  <r_lp_Energy>  (97) 
88.8315

>  <b_lp_Chiralities_Consistent>  (97) 
1

>  <s_lp_Variant>  (97) 
29:0-1

>  <s_i_glide_gridfile>  (97) 
pfpi4k_grid

>  <i_i_glide_lignum>  (97) 
40

>  <i_i_glide_rotatable_bonds>  (97) 
2

>  <r_i_docking_score>  (97) 
-2.90342

>  <r_i_glide_ligand_efficiency>  (97) 
-0.103694

>  <r_i_glide_ligand_efficiency_sa>  (97) 
-0.314875

>  <r_i_glide_ligand_efficiency_ln>  (97) 
-0.670194

>  <r_i_glide_gscore>  (97) 
-2.90342

>  <r_i_glide_lipo>  (97) 
-0.22956

>  <r_i_glide_hbond>  (97) 
-0.190493

>  <r_i_glide_metal>  (97) 
-0

>  <r_i_glide_rewards>  (97) 
-0.869458

>  <r_i_glide_evdw>  (97) 
-17.9417

>  <r_i_glide_ecoul>  (97) 
-4.23841

>  <r_i_glide_erotb>  (97) 
0

>  <r_i_glide_esite>  (97) 
-0.0810621

>  <r_i_glide_emodel>  (97) 
-28.6174

>  <r_i_glide_energy>  (97) 
-22.1801

>  <r_i_glide_einternal>  (97) 
0.707067

>  <r_i_glide_intrahb_reward>  (97) 
-0

>  <i_i_glide_confnum>  (97) 
2

>  <i_i_glide_posenum>  (97) 
24

>  <r_i_glide_eff_state_penalty>  (97) 
0

>  <ligand_id>  (97) 
29

>  <original_smiles>  (97) 
CC1c2ccccc2C12C1CC=C3C(N(C)C)Cc4ccc(O)c5c4C32C1O5

>  <smiles>  (97) 
[H]Oc1c([H])c([H])c2c3c1OC1([H])C34C(=C([H])C([H])([H])C1([H])C41c3c([H])c([H])c([H])c([H])c3C1([H])C([H])([H])[H])C([H])([N+]([H])(C([H])([H])[H])C([H])([H])[H])C2([H])[H]

$$$$
29:1:0
     RDKit          3D

 53 59  0  0  1  0  0  0  0  0999 V2000
    1.3500   -5.3111    6.4012 C   0  0  0  0  0  0  0  0  0  0  0  0
    1.1529   -4.6038    5.0622 C   0  0  2  0  0  0  0  0  0  0  0  0
    1.1400   -5.4903    3.8348 C   0  0  0  0  0  0  0  0  0  0  0  0
    0.4534   -6.5387    3.2080 C   0  0  0  0  0  0  0  0  0  0  0  0
    0.9932   -6.8942    1.9399 C   0  0  0  0  0  0  0  0  0  0  0  0
    2.1476   -6.2508    1.3768 C   0  0  0  0  0  0  0  0  0  0  0  0
    2.8307   -5.1896    2.0265 C   0  0  0  0  0  0  0  0  0  0  0  0
    2.2571   -4.8023    3.2379 C   0  0  0  0  0  0  0  0  0  0  0  0
    2.4017   -3.8345    4.4027 C   0  0  2  0  0  0  0  0  0  0  0  0
    3.7614   -3.6282    5.1050 C   0  0  1  0  0  0  0  0  0  0  0  0
    4.9313   -3.4416    4.1319 C   0  0  0  0  0  0  0  0  0  0  0  0
    4.5174   -2.4283    3.0586 C   0  0  0  0  0  0  0  0  0  0  0  0
    3.2863   -1.8507    3.0923 C   0  0  0  0  0  0  0  0  0  0  0  0
    2.6222   -0.8517    2.1328 C   0  0  1  0  0  0  0  0  0  0  0  0
    3.0703   -0.9414    0.7218 N   0  0  0  0  0  0  0  0  0  0  0  0
    3.0301   -2.2917    0.1214 C   0  0  0  0  0  0  0  0  0  0  0  0
    4.3590   -0.2555    0.4484 C   0  0  0  0  0  0  0  0  0  0  0  0
    1.0554   -0.8914    2.2235 C   0  0  0  0  0  0  0  0  0  0  0  0
    0.4817   -0.7641    3.6303 C   0  0  0  0  0  0  0  0  0  0  0  0
   -0.6319   -0.0635    4.1544 C   0  0  0  0  0  0  0  0  0  0  0  0
   -0.8552   -0.0750    5.5554 C   0  0  0  0  0  0  0  0  0  0  0  0
    0.0262   -0.7461    6.4681 C   0  0  0  0  0  0  0  0  0  0  0  0
   -0.1818   -0.6665    7.8244 O   0  0  0  0  0  0  0  0  0  0  0  0
    1.1299   -1.4628    5.9505 C   0  0  0  0  0  0  0  0  0  0  0  0
    1.2521   -1.4362    4.5838 C   0  0  0  0  0  0  0  0  0  0  0  0
    2.4214   -2.2801    4.2503 C   0  0  1  0  0  0  0  0  0  0  0  0
    3.1857   -2.2918    5.5937 C   0  0  1  0  0  0  0  0  0  0  0  0
    2.1468   -2.1625    6.5961 O   0  0  0  0  0  0  0  0  0  0  0  0
    0.4933   -5.9133    6.6976 H   0  0  0  0  0  0  0  0  0  0  0  0
    1.5043   -4.5698    7.1807 H   0  0  0  0  0  0  0  0  0  0  0  0
    2.2425   -5.9361    6.3981 H   0  0  0  0  0  0  0  0  0  0  0  0
    0.2536   -3.9829    5.0105 H   0  0  0  0  0  0  0  0  0  0  0  0
   -0.4207   -7.0356    3.6261 H   0  0  0  0  0  0  0  0  0  0  0  0
    0.5456   -7.6986    1.3715 H   0  0  0  0  0  0  0  0  0  0  0  0
    2.5307   -6.6071    0.4330 H   0  0  0  0  0  0  0  0  0  0  0  0
    3.7380   -4.7599    1.6108 H   0  0  0  0  0  0  0  0  0  0  0  0
    3.9547   -4.3131    5.9197 H   0  0  0  0  0  0  0  0  0  0  0  0
    5.8157   -3.0573    4.6338 H   0  0  0  0  0  0  0  0  0  0  0  0
    5.1907   -4.3836    3.6514 H   0  0  0  0  0  0  0  0  0  0  0  0
    5.2579   -2.2762    2.3001 H   0  0  0  0  0  0  0  0  0  0  0  0
    2.8770    0.1326    2.5099 H   0  0  0  0  0  0  0  0  0  0  0  0
    3.7795   -2.9437    0.5487 H   0  0  0  0  0  0  0  0  0  0  0  0
    3.2528   -2.2657   -0.9428 H   0  0  0  0  0  0  0  0  0  0  0  0
    2.0572   -2.7609    0.2418 H   0  0  0  0  0  0  0  0  0  0  0  0
    5.2439   -0.7746    0.8174 H   0  0  0  0  0  0  0  0  0  0  0  0
    4.3911    0.7538    0.8632 H   0  0  0  0  0  0  0  0  0  0  0  0
    4.5308   -0.1849   -0.6230 H   0  0  0  0  0  0  0  0  0  0  0  0
    0.6281   -0.0846    1.6339 H   0  0  0  0  0  0  0  0  0  0  0  0
    0.6769   -1.8234    1.8004 H   0  0  0  0  0  0  0  0  0  0  0  0
   -1.2851    0.4823    3.4938 H   0  0  0  0  0  0  0  0  0  0  0  0
   -1.6874    0.4786    5.9607 H   0  0  0  0  0  0  0  0  0  0  0  0
    3.9332   -1.4960    5.6517 H   0  0  0  0  0  0  0  0  0  0  0  0
    2.3696   -0.4445    0.1899 H   0  0  0  0  0  0  0  0  0  0  0  0
  1  2  1  0
  1 29  1  0
  1 30  1  0
  1 31  1  0
  2  9  1  0
  2  3  1  0
  2 32  1  1
  3  8  2  0
  3  4  1  0
  4  5  2  0
  4 33  1  0
  5  6  1  0
  5 34  1  0
  6  7  2  0
  6 35  1  0
  7  8  1  0
  7 36  1  0
  9  8  1  6
  9 26  1  0
  9 10  1  0
 10 27  1  0
 10 11  1  0
 10 37  1  1
 11 12  1  0
 11 38  1  0
 11 39  1  0
 12 13  2  0
 12 40  1  0
 26 13  1  6
 13 14  1  0
 14 15  1  0
 14 18  1  0
 14 41  1  1
 15 16  1  0
 15 17  1  0
 15 53  1  0
 16 42  1  0
 16 43  1  0
 16 44  1  0
 17 45  1  0
 17 46  1  0
 17 47  1  0
 18 19  1  0
 18 48  1  0
 18 49  1  0
 19 25  2  0
 19 20  1  0
 20 21  2  0
 20 50  1  0
 21 22  1  0
 21 51  1  0
 22 23  1  0
 22 24  2  0
 24 28  1  0
 24 25  1  0
 25 26  1  0
 26 27  1  0
 27 28  1  0
 27 52  1  6
M  CHG  2  15   1  23  -1
M  END
>  <i_m_ct_stereo_status>  (98) 
1

>  <s_m_source_file>  (98) 
/var/tmp/pbs.5076255.sched01/tmpu5rzjxe4/0gixxd53k.sdf

>  <i_m_source_file_index>  (98) 
41

>  <i_lp_mmshare_version>  (98) 
48012

>  <i_f3d_flags>  (98) 
1

>  <s_epik_input>  (98) 
W2NIXTFbY0hdW2NIXVtjSF1jKFtDQEhdMltDSDNdKWMxW0NAQF0yM1tDQEBdNDVDNj1bQ0hdW0NIMl1bQ0BIXTNbQ0BASF01T2M3YzRjKFtDSDJdW0NAQEhdNk4oW0NIM10pW0NIM10pW2NIXVtjSF1jN1tPSF0=

>  <s_epik_cmdline>  (98) 
J2VwaWtfcHl0aG9uJywgJy1waHQnLCAnMi4wJywgJy1waCcsICc3LjAnLCAnLXRuJywgJzgnLCAnLW1hJywgJzIwMCcsICctaW1hZScsICc8aW5maWxlLm1hZT4nLCAnLW9tYWUnLCAnPG91dGZpbGUubWFlPic=

>  <r_epik_Ionization_Penalty>  (98) 
2.14163

>  <r_epik_Ionization_Penalty_Charging>  (98) 
2.14163

>  <r_epik_Ionization_Penalty_Neutral>  (98) 
0

>  <r_epik_State_Penalty>  (98) 
2.27907

>  <r_epik_Charging_Adjusted_Penalty>  (98) 
4.4207

>  <i_epik_Tot_Q>  (98) 
0

>  <i_epik_Tot_abs_Q>  (98) 
2

>  <s_lp_Force_Field>  (98) 
OPLS3e

>  <r_lp_Energy>  (98) 
87.9921

>  <b_lp_Chiralities_Consistent>  (98) 
1

>  <s_lp_Variant>  (98) 
29:0-2

>  <s_i_glide_gridfile>  (98) 
pfpi4k_grid

>  <i_i_glide_lignum>  (98) 
41

>  <i_i_glide_rotatable_bonds>  (98) 
1

>  <r_i_docking_score>  (98) 
-3.4731

>  <r_i_glide_ligand_efficiency>  (98) 
-0.124039

>  <r_i_glide_ligand_efficiency_sa>  (98) 
-0.376656

>  <r_i_glide_ligand_efficiency_ln>  (98) 
-0.801694

>  <r_i_glide_gscore>  (98) 
-3.4731

>  <r_i_glide_lipo>  (98) 
-0.194097

>  <r_i_glide_hbond>  (98) 
-0.154081

>  <r_i_glide_metal>  (98) 
-0

>  <r_i_glide_rewards>  (98) 
-1.17633

>  <r_i_glide_evdw>  (98) 
-18.2822

>  <r_i_glide_ecoul>  (98) 
-6.40782

>  <r_i_glide_erotb>  (98) 
0

>  <r_i_glide_esite>  (98) 
-0.0733066

>  <r_i_glide_emodel>  (98) 
-32.7026

>  <r_i_glide_energy>  (98) 
-24.69

>  <r_i_glide_einternal>  (98) 
0.869702

>  <r_i_glide_intrahb_reward>  (98) 
-0

>  <i_i_glide_confnum>  (98) 
2

>  <i_i_glide_posenum>  (98) 
23

>  <r_i_glide_eff_state_penalty>  (98) 
0

>  <ligand_id>  (98) 
29

>  <original_smiles>  (98) 
CC1c2ccccc2C12C1CC=C3C(N(C)C)Cc4ccc(O)c5c4C32C1O5

>  <smiles>  (98) 
[H]C1=C2C34c5c(c([O-])c([H])c([H])c5C([H])([H])C2([H])[N+]([H])(C([H])([H])[H])C([H])([H])[H])OC3([H])C([H])(C1([H])[H])C41c2c([H])c([H])c([H])c([H])c2C1([H])C([H])([H])[H]

$$$$
29:1:1
     RDKit          3D

 53 59  0  0  1  0  0  0  0  0999 V2000
    3.5002   -4.8176    5.2144 C   0  0  0  0  0  0  0  0  0  0  0  0
    2.9638   -4.3902    3.8501 C   0  0  2  0  0  0  0  0  0  0  0  0
    1.9349   -5.3027    3.2234 C   0  0  0  0  0  0  0  0  0  0  0  0
    0.6509   -5.8283    3.3965 C   0  0  0  0  0  0  0  0  0  0  0  0
    0.2239   -6.6567    2.3179 C   0  0  0  0  0  0  0  0  0  0  0  0
    1.0454   -6.9263    1.1785 C   0  0  0  0  0  0  0  0  0  0  0  0
    2.3412   -6.3678    1.0080 C   0  0  0  0  0  0  0  0  0  0  0  0
    2.7326   -5.5326    2.0530 C   0  0  0  0  0  0  0  0  0  0  0  0
    3.8613   -4.6512    2.5412 C   0  0  2  0  0  0  0  0  0  0  0  0
    5.3098   -5.1818    2.5751 C   0  0  1  0  0  0  0  0  0  0  0  0
    5.7309   -5.9102    1.2838 C   0  0  0  0  0  0  0  0  0  0  0  0
    5.2825   -5.0696    0.0736 C   0  0  0  0  0  0  0  0  0  0  0  0
    4.6822   -3.8641    0.2712 C   0  0  0  0  0  0  0  0  0  0  0  0
    4.1551   -2.8355   -0.7405 C   0  0  1  0  0  0  0  0  0  0  0  0
    3.7252   -3.4680   -2.0356 N   0  0  0  0  0  0  0  0  0  0  0  0
    4.8482   -3.6221   -2.9945 C   0  0  0  0  0  0  0  0  0  0  0  0
    2.5640   -2.8297   -2.7290 C   0  0  0  0  0  0  0  0  0  0  0  0
    3.0609   -1.9304   -0.0957 C   0  0  0  0  0  0  0  0  0  0  0  0
    3.4375   -1.2408    1.1963 C   0  0  0  0  0  0  0  0  0  0  0  0
    3.1931    0.0610    1.6816 C   0  0  0  0  0  0  0  0  0  0  0  0
    3.7576    0.4341    2.9313 C   0  0  0  0  0  0  0  0  0  0  0  0
    4.5814   -0.4520    3.6923 C   0  0  0  0  0  0  0  0  0  0  0  0
    5.1734   -0.0256    4.8468 O   0  0  0  0  0  0  0  0  0  0  0  0
    4.7849   -1.7710    3.2150 C   0  0  0  0  0  0  0  0  0  0  0  0
    4.1849   -2.0662    2.0207 C   0  0  0  0  0  0  0  0  0  0  0  0
    4.4844   -3.4828    1.7206 C   0  0  1  0  0  0  0  0  0  0  0  0
    5.7254   -3.7088    2.5914 C   0  0  1  0  0  0  0  0  0  0  0  0
    5.5001   -2.8324    3.7250 O   0  0  0  0  0  0  0  0  0  0  0  0
    2.7624   -4.7194    6.0093 H   0  0  0  0  0  0  0  0  0  0  0  0
    4.3460   -4.1887    5.4915 H   0  0  0  0  0  0  0  0  0  0  0  0
    3.8716   -5.8419    5.2002 H   0  0  0  0  0  0  0  0  0  0  0  0
    2.5612   -3.3768    3.8348 H   0  0  0  0  0  0  0  0  0  0  0  0
    0.0092   -5.6029    4.2422 H   0  0  0  0  0  0  0  0  0  0  0  0
   -0.7544   -7.1098    2.3441 H   0  0  0  0  0  0  0  0  0  0  0  0
    0.6576   -7.6032    0.4343 H   0  0  0  0  0  0  0  0  0  0  0  0
    2.9784   -6.6010    0.1618 H   0  0  0  0  0  0  0  0  0  0  0  0
    5.5853   -5.6897    3.4926 H   0  0  0  0  0  0  0  0  0  0  0  0
    6.8129   -6.0571    1.2442 H   0  0  0  0  0  0  0  0  0  0  0  0
    5.2678   -6.8951    1.2383 H   0  0  0  0  0  0  0  0  0  0  0  0
    5.4523   -5.4956   -0.8980 H   0  0  0  0  0  0  0  0  0  0  0  0
    4.9847   -2.1624   -0.9407 H   0  0  0  0  0  0  0  0  0  0  0  0
    5.2169   -2.6563   -3.3400 H   0  0  0  0  0  0  0  0  0  0  0  0
    4.5232   -4.1877   -3.8695 H   0  0  0  0  0  0  0  0  0  0  0  0
    5.7005   -4.1521   -2.5730 H   0  0  0  0  0  0  0  0  0  0  0  0
    2.8275   -1.8486   -3.1268 H   0  0  0  0  0  0  0  0  0  0  0  0
    1.6789   -2.7207   -2.1054 H   0  0  0  0  0  0  0  0  0  0  0  0
    2.2291   -3.4554   -3.5578 H   0  0  0  0  0  0  0  0  0  0  0  0
    2.8574   -1.1148   -0.7796 H   0  0  0  0  0  0  0  0  0  0  0  0
    2.1682   -2.5268    0.1060 H   0  0  0  0  0  0  0  0  0  0  0  0
    2.6107    0.7582    1.0945 H   0  0  0  0  0  0  0  0  0  0  0  0
    3.5991    1.4384    3.2929 H   0  0  0  0  0  0  0  0  0  0  0  0
    6.6577   -3.5150    2.0556 H   0  0  0  0  0  0  0  0  0  0  0  0
    3.4048   -4.4012   -1.8251 H   0  0  0  0  0  0  0  0  0  0  0  0
  1  2  1  0
  1 29  1  0
  1 30  1  0
  1 31  1  0
  2  9  1  0
  2  3  1  0
  2 32  1  1
  3  8  2  0
  3  4  1  0
  4  5  2  0
  4 33  1  0
  5  6  1  0
  5 34  1  0
  6  7  2  0
  6 35  1  0
  7  8  1  0
  7 36  1  0
  9  8  1  6
  9 26  1  0
  9 10  1  0
 10 27  1  0
 10 11  1  0
 10 37  1  1
 11 12  1  0
 11 38  1  0
 11 39  1  0
 12 13  2  0
 12 40  1  0
 26 13  1  6
 13 14  1  0
 14 15  1  0
 14 18  1  0
 14 41  1  6
 15 16  1  0
 15 17  1  0
 15 53  1  0
 16 42  1  0
 16 43  1  0
 16 44  1  0
 17 45  1  0
 17 46  1  0
 17 47  1  0
 18 19  1  0
 18 48  1  0
 18 49  1  0
 19 25  2  0
 19 20  1  0
 20 21  2  0
 20 50  1  0
 21 22  1  0
 21 51  1  0
 22 23  1  0
 22 24  2  0
 24 28  1  0
 24 25  1  0
 25 26  1  0
 26 27  1  0
 27 28  1  0
 27 52  1  6
M  CHG  2  15   1  23  -1
M  END
>  <i_m_ct_stereo_status>  (99) 
1

>  <s_m_source_file>  (99) 
/var/tmp/pbs.5076255.sched01/tmpu5rzjxe4/0gixxd53k.sdf

>  <i_m_source_file_index>  (99) 
41

>  <i_lp_mmshare_version>  (99) 
48012

>  <i_f3d_flags>  (99) 
1

>  <s_epik_input>  (99) 
W2NIXTFbY0hdW2NIXVtjSF1jKFtDQEhdMltDSDNdKWMxW0NAQF0yM1tDQEBdNDVDNj1bQ0hdW0NIMl1bQ0BIXTNbQ0BASF01T2M3YzRjKFtDSDJdW0NAQEhdNk4oW0NIM10pW0NIM10pW2NIXVtjSF1jN1tPSF0=

>  <s_epik_cmdline>  (99) 
J2VwaWtfcHl0aG9uJywgJy1waHQnLCAnMi4wJywgJy1waCcsICc3LjAnLCAnLXRuJywgJzgnLCAnLW1hJywgJzIwMCcsICctaW1hZScsICc8aW5maWxlLm1hZT4nLCAnLW9tYWUnLCAnPG91dGZpbGUubWFlPic=

>  <r_epik_Ionization_Penalty>  (99) 
2.14163

>  <r_epik_Ionization_Penalty_Charging>  (99) 
2.14163

>  <r_epik_Ionization_Penalty_Neutral>  (99) 
0

>  <r_epik_State_Penalty>  (99) 
2.27907

>  <r_epik_Charging_Adjusted_Penalty>  (99) 
4.4207

>  <i_epik_Tot_Q>  (99) 
0

>  <i_epik_Tot_abs_Q>  (99) 
2

>  <s_lp_Force_Field>  (99) 
OPLS3e

>  <r_lp_Energy>  (99) 
87.9921

>  <b_lp_Chiralities_Consistent>  (99) 
1

>  <s_lp_Variant>  (99) 
29:0-2

>  <s_i_glide_gridfile>  (99) 
pfpi4k_grid

>  <i_i_glide_lignum>  (99) 
41

>  <i_i_glide_rotatable_bonds>  (99) 
1

>  <r_i_docking_score>  (99) 
-3.10354

>  <r_i_glide_ligand_efficiency>  (99) 
-0.110841

>  <r_i_glide_ligand_efficiency_sa>  (99) 
-0.336578

>  <r_i_glide_ligand_efficiency_ln>  (99) 
-0.716388

>  <r_i_glide_gscore>  (99) 
-3.10354

>  <r_i_glide_lipo>  (99) 
-0.447464

>  <r_i_glide_hbond>  (99) 
0

>  <r_i_glide_metal>  (99) 
-0

>  <r_i_glide_rewards>  (99) 
-0.876331

>  <r_i_glide_evdw>  (99) 
-20.2048

>  <r_i_glide_ecoul>  (99) 
-5.00216

>  <r_i_glide_erotb>  (99) 
0

>  <r_i_glide_esite>  (99) 
-0.0191805

>  <r_i_glide_emodel>  (99) 
-31.1714

>  <r_i_glide_energy>  (99) 
-25.207

>  <r_i_glide_einternal>  (99) 
2.94148

>  <r_i_glide_intrahb_reward>  (99) 
-0

>  <i_i_glide_confnum>  (99) 
1

>  <i_i_glide_posenum>  (99) 
3

>  <r_i_glide_eff_state_penalty>  (99) 
0

>  <ligand_id>  (99) 
29

>  <original_smiles>  (99) 
CC1c2ccccc2C12C1CC=C3C(N(C)C)Cc4ccc(O)c5c4C32C1O5

>  <smiles>  (99) 
[H]C1=C2C34c5c(c([O-])c([H])c([H])c5C([H])([H])C2([H])[N+]([H])(C([H])([H])[H])C([H])([H])[H])OC3([H])C([H])(C1([H])[H])C41c2c([H])c([H])c([H])c([H])c2C1([H])C([H])([H])[H]

$$$$
29:1:2
     RDKit          3D

 53 59  0  0  1  0  0  0  0  0999 V2000
    6.3512   -8.1063    6.2783 C   0  0  0  0  0  0  0  0  0  0  0  0
    4.9186   -7.7903    5.8548 C   0  0  2  0  0  0  0  0  0  0  0  0
    3.9433   -7.4935    6.9776 C   0  0  0  0  0  0  0  0  0  0  0  0
    3.6629   -6.5967    8.0197 C   0  0  0  0  0  0  0  0  0  0  0  0
    2.4587   -6.8986    8.7215 C   0  0  0  0  0  0  0  0  0  0  0  0
    1.6182   -8.0177    8.3915 C   0  0  0  0  0  0  0  0  0  0  0  0
    1.9030   -8.9035    7.3130 C   0  0  0  0  0  0  0  0  0  0  0  0
    3.0672   -8.5760    6.6068 C   0  0  0  0  0  0  0  0  0  0  0  0
    3.9414   -8.9996    5.4343 C   0  0  2  0  0  0  0  0  0  0  0  0
    4.3866  -10.4686    5.2729 C   0  0  1  0  0  0  0  0  0  0  0  0
    3.2427  -11.4764    5.4649 C   0  0  0  0  0  0  0  0  0  0  0  0
    2.0027  -10.9953    4.6736 C   0  0  0  0  0  0  0  0  0  0  0  0
    2.0789   -9.8537    3.9443 C   0  0  0  0  0  0  0  0  0  0  0  0
    1.0268   -9.1667    3.0740 C   0  0  1  0  0  0  0  0  0  0  0  0
   -0.3579   -9.4335    3.5323 N   0  0  0  0  0  0  0  0  0  0  0  0
   -1.3196   -9.5430    2.4144 C   0  0  0  0  0  0  0  0  0  0  0  0
   -0.8609   -8.5045    4.5674 C   0  0  0  0  0  0  0  0  0  0  0  0
    1.3293   -7.6417    2.8681 C   0  0  0  0  0  0  0  0  0  0  0  0
    2.7240   -7.3282    2.3609 C   0  0  0  0  0  0  0  0  0  0  0  0
    3.2082   -6.4098    1.4050 C   0  0  0  0  0  0  0  0  0  0  0  0
    4.5917   -6.4122    1.0857 C   0  0  0  0  0  0  0  0  0  0  0  0
    5.5248   -7.3337    1.6723 C   0  0  0  0  0  0  0  0  0  0  0  0
    6.8448   -7.3062    1.3053 O   0  0  0  0  0  0  0  0  0  0  0  0
    5.0400   -8.2649    2.6319 C   0  0  0  0  0  0  0  0  0  0  0  0
    3.7006   -8.1685    2.9171 C   0  0  0  0  0  0  0  0  0  0  0  0
    3.4224   -9.1659    3.9710 C   0  0  1  0  0  0  0  0  0  0  0  0
    4.6214  -10.1301    3.7994 C   0  0  1  0  0  0  0  0  0  0  0  0
    5.6941   -9.2873    3.3155 O   0  0  0  0  0  0  0  0  0  0  0  0
    6.8850   -7.2395    6.6668 H   0  0  0  0  0  0  0  0  0  0  0  0
    6.9077   -8.4599    5.4145 H   0  0  0  0  0  0  0  0  0  0  0  0
    6.3855   -8.9099    7.0135 H   0  0  0  0  0  0  0  0  0  0  0  0
    4.8427   -6.9680    5.1372 H   0  0  0  0  0  0  0  0  0  0  0  0
    4.2791   -5.7349    8.2737 H   0  0  0  0  0  0  0  0  0  0  0  0
    2.1548   -6.2688    9.5477 H   0  0  0  0  0  0  0  0  0  0  0  0
    0.7383   -8.1946    8.9976 H   0  0  0  0  0  0  0  0  0  0  0  0
    1.2725   -9.7647    7.0861 H   0  0  0  0  0  0  0  0  0  0  0  0
    5.3050  -10.7090    5.7926 H   0  0  0  0  0  0  0  0  0  0  0  0
    3.5276  -12.4757    5.1357 H   0  0  0  0  0  0  0  0  0  0  0  0
    3.0113  -11.5427    6.5232 H   0  0  0  0  0  0  0  0  0  0  0  0
    1.1107  -11.5965    4.7513 H   0  0  0  0  0  0  0  0  0  0  0  0
    1.1639   -9.6378    2.1069 H   0  0  0  0  0  0  0  0  0  0  0  0
   -1.4519   -8.6038    1.8763 H   0  0  0  0  0  0  0  0  0  0  0  0
   -2.2988   -9.8430    2.7787 H   0  0  0  0  0  0  0  0  0  0  0  0
   -1.0209  -10.2979    1.6905 H   0  0  0  0  0  0  0  0  0  0  0  0
   -1.0844   -7.5177    4.1656 H   0  0  0  0  0  0  0  0  0  0  0  0
   -0.1574   -8.3897    5.3866 H   0  0  0  0  0  0  0  0  0  0  0  0
   -1.7932   -8.8595    4.9940 H   0  0  0  0  0  0  0  0  0  0  0  0
    0.6367   -7.2235    2.1469 H   0  0  0  0  0  0  0  0  0  0  0  0
    1.2108   -7.0862    3.8013 H   0  0  0  0  0  0  0  0  0  0  0  0
    2.5255   -5.7294    0.9220 H   0  0  0  0  0  0  0  0  0  0  0  0
    4.9606   -5.7149    0.3448 H   0  0  0  0  0  0  0  0  0  0  0  0
    4.4117  -10.9640    3.1268 H   0  0  0  0  0  0  0  0  0  0  0  0
   -0.3754  -10.3393    3.9728 H   0  0  0  0  0  0  0  0  0  0  0  0
  1  2  1  0
  1 29  1  0
  1 30  1  0
  1 31  1  0
  2  9  1  0
  2  3  1  0
  2 32  1  6
  3  8  2  0
  3  4  1  0
  4  5  2  0
  4 33  1  0
  5  6  1  0
  5 34  1  0
  6  7  2  0
  6 35  1  0
  7  8  1  0
  7 36  1  0
  9  8  1  1
  9 26  1  0
  9 10  1  0
 10 27  1  0
 10 11  1  0
 10 37  1  1
 11 12  1  0
 11 38  1  0
 11 39  1  0
 12 13  2  0
 12 40  1  0
 26 13  1  1
 13 14  1  0
 14 15  1  0
 14 18  1  0
 14 41  1  6
 15 16  1  0
 15 17  1  0
 15 53  1  0
 16 42  1  0
 16 43  1  0
 16 44  1  0
 17 45  1  0
 17 46  1  0
 17 47  1  0
 18 19  1  0
 18 48  1  0
 18 49  1  0
 19 25  2  0
 19 20  1  0
 20 21  2  0
 20 50  1  0
 21 22  1  0
 21 51  1  0
 22 23  1  0
 22 24  2  0
 24 28  1  0
 24 25  1  0
 25 26  1  0
 26 27  1  0
 27 28  1  0
 27 52  1  6
M  CHG  2  15   1  23  -1
M  END
>  <i_m_ct_stereo_status>  (100) 
1

>  <s_m_source_file>  (100) 
/var/tmp/pbs.5076255.sched01/tmpu5rzjxe4/0gixxd53k.sdf

>  <i_m_source_file_index>  (100) 
41

>  <i_lp_mmshare_version>  (100) 
48012

>  <i_f3d_flags>  (100) 
1

>  <s_epik_input>  (100) 
W2NIXTFbY0hdW2NIXVtjSF1jKFtDQEhdMltDSDNdKWMxW0NAQF0yM1tDQEBdNDVDNj1bQ0hdW0NIMl1bQ0BIXTNbQ0BASF01T2M3YzRjKFtDSDJdW0NAQEhdNk4oW0NIM10pW0NIM10pW2NIXVtjSF1jN1tPSF0=

>  <s_epik_cmdline>  (100) 
J2VwaWtfcHl0aG9uJywgJy1waHQnLCAnMi4wJywgJy1waCcsICc3LjAnLCAnLXRuJywgJzgnLCAnLW1hJywgJzIwMCcsICctaW1hZScsICc8aW5maWxlLm1hZT4nLCAnLW9tYWUnLCAnPG91dGZpbGUubWFlPic=

>  <r_epik_Ionization_Penalty>  (100) 
2.14163

>  <r_epik_Ionization_Penalty_Charging>  (100) 
2.14163

>  <r_epik_Ionization_Penalty_Neutral>  (100) 
0

>  <r_epik_State_Penalty>  (100) 
2.27907

>  <r_epik_Charging_Adjusted_Penalty>  (100) 
4.4207

>  <i_epik_Tot_Q>  (100) 
0

>  <i_epik_Tot_abs_Q>  (100) 
2

>  <s_lp_Force_Field>  (100) 
OPLS3e

>  <r_lp_Energy>  (100) 
87.9921

>  <b_lp_Chiralities_Consistent>  (100) 
1

>  <s_lp_Variant>  (100) 
29:0-2

>  <s_i_glide_gridfile>  (100) 
pfpi4k_grid

>  <i_i_glide_lignum>  (100) 
41

>  <i_i_glide_rotatable_bonds>  (100) 
1

>  <r_i_docking_score>  (100) 
-2.87904

>  <r_i_glide_ligand_efficiency>  (100) 
-0.102823

>  <r_i_glide_ligand_efficiency_sa>  (100) 
-0.312231

>  <r_i_glide_ligand_efficiency_ln>  (100) 
-0.664567

>  <r_i_glide_gscore>  (100) 
-2.87904

>  <r_i_glide_lipo>  (100) 
-0.458307

>  <r_i_glide_hbond>  (100) 
-0.0375944

>  <r_i_glide_metal>  (100) 
-0

>  <r_i_glide_rewards>  (100) 
-0.876331

>  <r_i_glide_evdw>  (100) 
-18.4792

>  <r_i_glide_ecoul>  (100) 
-3.46506

>  <r_i_glide_erotb>  (100) 
0

>  <r_i_glide_esite>  (100) 
-0.063088

>  <r_i_glide_emodel>  (100) 
-28.5913

>  <r_i_glide_energy>  (100) 
-21.9443

>  <r_i_glide_einternal>  (100) 
0.792313

>  <r_i_glide_intrahb_reward>  (100) 
-0

>  <i_i_glide_confnum>  (100) 
2

>  <i_i_glide_posenum>  (100) 
22

>  <r_i_glide_eff_state_penalty>  (100) 
0

>  <ligand_id>  (100) 
29

>  <original_smiles>  (100) 
CC1c2ccccc2C12C1CC=C3C(N(C)C)Cc4ccc(O)c5c4C32C1O5

>  <smiles>  (100) 
[H]C1=C2C34c5c(c([O-])c([H])c([H])c5C([H])([H])C2([H])[N+]([H])(C([H])([H])[H])C([H])([H])[H])OC3([H])C([H])(C1([H])[H])C41c2c([H])c([H])c([H])c([H])c2C1([H])C([H])([H])[H]

$$$$
32:0:0
     RDKit          3D

 67 72  0  0  1  0  0  0  0  0999 V2000
    2.4844   -3.0522   -3.4015 C   0  0  0  0  0  0  0  0  0  0  0  0
    2.9231   -2.8187   -2.1577 C   0  0  0  0  0  0  0  0  0  0  0  0
    4.3657   -2.7678   -1.6490 C   0  0  1  0  0  0  0  0  0  0  0  0
    5.3575   -3.1375   -2.7796 C   0  0  0  0  0  0  0  0  0  0  0  0
    4.6850   -1.3177   -1.2091 C   0  0  0  0  0  0  0  0  0  0  0  0
    5.7856   -1.2244   -0.1330 C   0  0  0  0  0  0  0  0  0  0  0  0
    5.4907   -2.1943    0.9990 C   0  0  0  0  0  0  0  0  0  0  0  0
    5.4451   -3.5008    0.6315 C   0  0  0  0  0  0  0  0  0  0  0  0
    4.4847   -3.8120   -0.5048 C   0  0  1  0  0  0  0  0  0  0  0  0
    3.5177   -3.9447    0.7434 C   0  0  1  0  0  0  0  0  0  0  0  0
    2.3858   -4.7456    0.4851 O   0  0  0  0  0  0  0  0  0  0  0  0
    4.7174   -4.5939    1.4557 C   0  0  1  0  0  0  0  0  0  0  0  0
    5.1660   -6.0706    1.3435 C   0  0  1  0  0  0  0  0  0  0  0  0
    4.5716   -6.7761    0.2713 O   0  0  0  0  0  0  0  0  0  0  0  0
    6.6785   -6.3191    1.4706 C   0  0  0  0  0  0  0  0  0  0  0  0
    6.3921   -7.4900    2.4126 C   0  0  1  0  0  0  0  0  0  0  0  0
    7.2054   -7.4865    3.5747 O   0  0  0  0  0  0  0  0  0  0  0  0
    8.5311   -7.9012    3.2976 C   0  0  0  0  0  0  0  0  0  0  0  0
    5.0194   -6.8703    2.6614 C   0  0  0  0  0  0  0  0  0  0  0  0
    3.0850   -2.6605    1.5630 C   0  0  1  0  0  0  0  0  0  0  0  0
    2.1218   -2.9750    2.7550 C   0  0  2  0  0  0  0  0  0  0  0  0
    1.1117   -1.9932    2.9006 O   0  0  0  0  0  0  0  0  0  0  0  0
    0.6274   -1.9340    4.1351 C   0  0  0  0  0  0  0  0  0  0  0  0
   -0.3281   -1.2598    4.5189 O   0  0  0  0  0  0  0  0  0  0  0  0
    1.4461   -2.8371    5.0420 C   0  0  1  0  0  0  0  0  0  0  0  0
    0.6620   -4.1071    5.4132 C   0  0  0  0  0  0  0  0  0  0  0  0
    2.6917   -3.0907    4.1849 C   0  0  2  0  0  0  0  0  0  0  0  0
    3.7759   -2.0367    4.4820 C   0  0  0  0  0  0  0  0  0  0  0  0
    4.8859   -2.0077    3.4254 C   0  0  0  0  0  0  0  0  0  0  0  0
    4.3561   -1.7842    1.9734 C   0  0  1  0  0  0  0  0  0  0  0  0
    3.9720   -0.2788    1.9251 C   0  0  0  0  0  0  0  0  0  0  0  0
    3.1445   -3.2444   -4.2324 H   0  0  0  0  0  0  0  0  0  0  0  0
    1.4215   -3.0546   -3.6056 H   0  0  0  0  0  0  0  0  0  0  0  0
    2.1767   -2.6475   -1.3977 H   0  0  0  0  0  0  0  0  0  0  0  0
    6.3921   -3.1118   -2.4381 H   0  0  0  0  0  0  0  0  0  0  0  0
    5.2766   -2.4395   -3.6146 H   0  0  0  0  0  0  0  0  0  0  0  0
    5.1712   -4.1360   -3.1750 H   0  0  0  0  0  0  0  0  0  0  0  0
    4.9630   -0.7044   -2.0698 H   0  0  0  0  0  0  0  0  0  0  0  0
    3.7642   -0.8666   -0.8488 H   0  0  0  0  0  0  0  0  0  0  0  0
    6.7416   -1.5181   -0.5688 H   0  0  0  0  0  0  0  0  0  0  0  0
    5.9165   -0.2062    0.2297 H   0  0  0  0  0  0  0  0  0  0  0  0
    4.6321   -4.7757   -0.9858 H   0  0  0  0  0  0  0  0  0  0  0  0
    2.6812   -5.4418   -0.0858 H   0  0  0  0  0  0  0  0  0  0  0  0
    4.6177   -4.4108    2.5120 H   0  0  0  0  0  0  0  0  0  0  0  0
    4.8398   -6.3499   -0.5290 H   0  0  0  0  0  0  0  0  0  0  0  0
    7.1724   -6.6049    0.5450 H   0  0  0  0  0  0  0  0  0  0  0  0
    7.1982   -5.4943    1.9610 H   0  0  0  0  0  0  0  0  0  0  0  0
    6.3136   -8.4575    1.9091 H   0  0  0  0  0  0  0  0  0  0  0  0
    9.1236   -7.8986    4.2117 H   0  0  0  0  0  0  0  0  0  0  0  0
    9.0148   -7.2343    2.5837 H   0  0  0  0  0  0  0  0  0  0  0  0
    8.5359   -8.9101    2.8885 H   0  0  0  0  0  0  0  0  0  0  0  0
    5.0095   -6.2565    3.5672 H   0  0  0  0  0  0  0  0  0  0  0  0
    4.1910   -7.5851    2.6656 H   0  0  0  0  0  0  0  0  0  0  0  0
    2.4974   -2.0669    0.8642 H   0  0  0  0  0  0  0  0  0  0  0  0
    1.5956   -3.9055    2.5554 H   0  0  0  0  0  0  0  0  0  0  0  0
    1.6986   -2.2905    5.9503 H   0  0  0  0  0  0  0  0  0  0  0  0
   -0.2514   -3.8579    5.9583 H   0  0  0  0  0  0  0  0  0  0  0  0
    1.2581   -4.7548    6.0566 H   0  0  0  0  0  0  0  0  0  0  0  0
    0.3729   -4.6828    4.5290 H   0  0  0  0  0  0  0  0  0  0  0  0
    3.1040   -4.0852    4.3638 H   0  0  0  0  0  0  0  0  0  0  0  0
    3.3291   -1.0458    4.5753 H   0  0  0  0  0  0  0  0  0  0  0  0
    4.2177   -2.2399    5.4582 H   0  0  0  0  0  0  0  0  0  0  0  0
    5.5848   -1.2101    3.6854 H   0  0  0  0  0  0  0  0  0  0  0  0
    5.5025   -2.8981    3.5398 H   0  0  0  0  0  0  0  0  0  0  0  0
    3.1862   -0.0497    2.6427 H   0  0  0  0  0  0  0  0  0  0  0  0
    3.5782    0.0546    0.9716 H   0  0  0  0  0  0  0  0  0  0  0  0
    4.8229    0.3542    2.1751 H   0  0  0  0  0  0  0  0  0  0  0  0
  1  2  2  0
  1 32  1  0
  1 33  1  0
  2  3  1  0
  2 34  1  0
  3  9  1  0
  3  4  1  6
  3  5  1  0
  4 35  1  0
  4 36  1  0
  4 37  1  0
  5  6  1  0
  5 38  1  0
  5 39  1  0
  6  7  1  0
  6 40  1  0
  6 41  1  0
  7 30  1  0
  7  8  2  0
  8 12  1  0
  8  9  1  0
  9 10  1  0
  9 42  1  6
 10 11  1  6
 10 12  1  0
 10 20  1  0
 11 43  1  0
 12 13  1  0
 12 44  1  1
 13 19  1  0
 13 14  1  6
 13 15  1  0
 14 45  1  0
 15 16  1  0
 15 46  1  0
 15 47  1  0
 16 17  1  0
 16 19  1  0
 16 48  1  6
 17 18  1  0
 18 49  1  0
 18 50  1  0
 18 51  1  0
 19 52  1  0
 19 53  1  0
 20 30  1  0
 20 21  1  0
 20 54  1  6
 21 27  1  0
 21 22  1  0
 21 55  1  6
 22 23  1  0
 23 24  2  0
 23 25  1  0
 25 26  1  0
 25 27  1  0
 25 56  1  1
 26 57  1  0
 26 58  1  0
 26 59  1  0
 27 28  1  0
 27 60  1  1
 28 29  1  0
 28 61  1  0
 28 62  1  0
 29 30  1  0
 29 63  1  0
 29 64  1  0
 30 31  1  1
 31 65  1  0
 31 66  1  0
 31 67  1  0
M  END
>  <i_m_ct_stereo_status>  (101) 
1

>  <s_m_source_file>  (101) 
/var/tmp/pbs.5076255.sched01/tmpio9qf6gp/4214r_5_m5.sdf

>  <i_m_source_file_index>  (101) 
2

>  <i_lp_mmshare_version>  (101) 
48012

>  <i_f3d_flags>  (101) 
0

>  <s_epik_input>  (101) 
TzFDKD1PKVtDQEBIXShbQ0gzXSlbQ0BIXShbQ0gyXVtDSDJdMilbQ0BASF0xW0NASF0zW0NAXTIoW0NIM10pQyhbQ0gyXVtDSDJdW0NAXTQoW0NIM10pW0NIXT1bQ0gyXSk9QyhbQ0BIXTRbQ0BdMzVbT0hdKVtDQEBIXTVbQ0BAXTYoW09IXSlbQ0gyXVtDQEhdKFtDSDJdNilPW0NIM10=

>  <s_epik_cmdline>  (101) 
J2VwaWtfcHl0aG9uJywgJy1waHQnLCAnMi4wJywgJy1waCcsICc3LjAnLCAnLXRuJywgJzgnLCAnLW1hJywgJzIwMCcsICctaW1hZScsICc8aW5maWxlLm1hZT4nLCAnLW9tYWUnLCAnPG91dGZpbGUubWFlPic=

>  <r_lp_tautomer_probability>  (101) 
1

>  <r_epik_Ionization_Penalty>  (101) 
1.6285e-06

>  <r_epik_Ionization_Penalty_Charging>  (101) 
0

>  <r_epik_Ionization_Penalty_Neutral>  (101) 
1.6285e-06

>  <r_epik_State_Penalty>  (101) 
-0

>  <r_epik_Charging_Adjusted_Penalty>  (101) 
0

>  <i_epik_Tot_Q>  (101) 
0

>  <i_epik_Tot_abs_Q>  (101) 
0

>  <s_epik_Chemistry_Notes>  (101) 
This compound has an ester and may undergo hydrolysis at high or low pH.

>  <s_lp_Force_Field>  (101) 
OPLS3e

>  <r_lp_Energy>  (101) 
115.716

>  <b_lp_Chiralities_Consistent>  (101) 
1

>  <s_lp_Variant>  (101) 
32:0-1

>  <s_i_glide_gridfile>  (101) 
pfpi4k_grid

>  <i_i_glide_lignum>  (101) 
2

>  <i_i_glide_rotatable_bonds>  (101) 
5

>  <r_i_docking_score>  (101) 
-2.73382

>  <r_i_glide_ligand_efficiency>  (101) 
-0.0881878

>  <r_i_glide_ligand_efficiency_sa>  (101) 
-0.277031

>  <r_i_glide_ligand_efficiency_ln>  (101) 
-0.616561

>  <r_i_glide_gscore>  (101) 
-2.73382

>  <r_i_glide_lipo>  (101) 
-0.888141

>  <r_i_glide_hbond>  (101) 
0

>  <r_i_glide_metal>  (101) 
-0

>  <r_i_glide_rewards>  (101) 
-0.508705

>  <r_i_glide_evdw>  (101) 
-26.2911

>  <r_i_glide_ecoul>  (101) 
-1.59157

>  <r_i_glide_erotb>  (101) 
0.216316

>  <r_i_glide_esite>  (101) 
0

>  <r_i_glide_emodel>  (101) 
-32.2778

>  <r_i_glide_energy>  (101) 
-27.8827

>  <r_i_glide_einternal>  (101) 
1.00073

>  <r_i_glide_intrahb_reward>  (101) 
-0

>  <i_i_glide_confnum>  (101) 
1

>  <i_i_glide_posenum>  (101) 
25

>  <r_i_glide_eff_state_penalty>  (101) 
0

>  <ligand_id>  (101) 
32

>  <original_smiles>  (101) 
C=CC1(C)CCC2=C3C1C(O)(C3C1(O)CC(OC)C1)C1C3OC(=O)C(C)C3CCC21C

>  <smiles>  (101) 
[H]OC1(C2([H])C3=C4C([H])([H])C([H])([H])C(C([H])=C([H])[H])(C([H])([H])[H])C3([H])C2(O[H])C2([H])C3([H])OC(=O)C([H])(C([H])([H])[H])C3([H])C([H])([H])C([H])([H])C42C([H])([H])[H])C([H])([H])C([H])(OC([H])([H])[H])C1([H])[H]

$$$$
32:0:1
     RDKit          3D

 67 72  0  0  1  0  0  0  0  0999 V2000
    5.0278   -3.8361   -2.0776 C   0  0  0  0  0  0  0  0  0  0  0  0
    4.5937   -3.9764   -0.8162 C   0  0  0  0  0  0  0  0  0  0  0  0
    5.2551   -3.4691    0.4709 C   0  0  1  0  0  0  0  0  0  0  0  0
    6.6222   -2.8176    0.1640 C   0  0  0  0  0  0  0  0  0  0  0  0
    4.3492   -2.3832    1.1054 C   0  0  0  0  0  0  0  0  0  0  0  0
    4.5158   -2.2551    2.6371 C   0  0  0  0  0  0  0  0  0  0  0  0
    4.4245   -3.6224    3.2926 C   0  0  0  0  0  0  0  0  0  0  0  0
    5.3860   -4.5055    2.8928 C   0  0  0  0  0  0  0  0  0  0  0  0
    5.4720   -4.6994    1.4022 C   0  0  1  0  0  0  0  0  0  0  0  0
    4.3868   -5.7988    1.7613 C   0  0  1  0  0  0  0  0  0  0  0  0
    4.2656   -6.8112    0.8254 O   0  0  0  0  0  0  0  0  0  0  0  0
    5.2461   -6.0393    3.0155 C   0  0  1  0  0  0  0  0  0  0  0  0
    6.5087   -6.9387    3.0558 C   0  0  1  0  0  0  0  0  0  0  0  0
    7.3328   -6.5886    4.1383 O   0  0  0  0  0  0  0  0  0  0  0  0
    6.1533   -8.4374    3.0759 C   0  0  0  0  0  0  0  0  0  0  0  0
    7.2912   -8.7235    2.1004 C   0  0  1  0  0  0  0  0  0  0  0  0
    6.8712   -9.4875    0.9772 O   0  0  0  0  0  0  0  0  0  0  0  0
    6.5580  -10.8303    1.3099 C   0  0  0  0  0  0  0  0  0  0  0  0
    7.2849   -7.2487    1.7457 C   0  0  0  0  0  0  0  0  0  0  0  0
    2.9354   -5.3487    2.2328 C   0  0  1  0  0  0  0  0  0  0  0  0
    2.0007   -6.5632    2.5522 C   0  0  2  0  0  0  0  0  0  0  0  0
    0.6791   -6.3415    2.0859 O   0  0  0  0  0  0  0  0  0  0  0  0
   -0.2072   -7.0527    2.7682 C   0  0  0  0  0  0  0  0  0  0  0  0
   -1.4229   -7.0759    2.5388 O   0  0  0  0  0  0  0  0  0  0  0  0
    0.4577   -7.7491    3.9279 C   0  0  1  0  0  0  0  0  0  0  0  0
    0.5874   -9.2627    3.6672 C   0  0  0  0  0  0  0  0  0  0  0  0
    1.7897   -6.9969    4.0135 C   0  0  2  0  0  0  0  0  0  0  0  0
    1.6846   -5.8010    4.9821 C   0  0  0  0  0  0  0  0  0  0  0  0
    2.8438   -4.8095    4.8326 C   0  0  0  0  0  0  0  0  0  0  0  0
    3.0134   -4.2604    3.3861 C   0  0  1  0  0  0  0  0  0  0  0  0
    1.8452   -3.2459    3.2042 C   0  0  0  0  0  0  0  0  0  0  0  0
    5.9368   -3.3163   -2.3386 H   0  0  0  0  0  0  0  0  0  0  0  0
    4.4537   -4.2532   -2.8936 H   0  0  0  0  0  0  0  0  0  0  0  0
    3.6656   -4.5131   -0.6816 H   0  0  0  0  0  0  0  0  0  0  0  0
    7.1147   -2.4708    1.0738 H   0  0  0  0  0  0  0  0  0  0  0  0
    6.5256   -1.9548   -0.4983 H   0  0  0  0  0  0  0  0  0  0  0  0
    7.3049   -3.5146   -0.3207 H   0  0  0  0  0  0  0  0  0  0  0  0
    4.5343   -1.4121    0.6372 H   0  0  0  0  0  0  0  0  0  0  0  0
    3.3192   -2.6098    0.8502 H   0  0  0  0  0  0  0  0  0  0  0  0
    5.5085   -1.8511    2.8531 H   0  0  0  0  0  0  0  0  0  0  0  0
    3.8029   -1.5517    3.0657 H   0  0  0  0  0  0  0  0  0  0  0  0
    6.4086   -5.1465    1.0854 H   0  0  0  0  0  0  0  0  0  0  0  0
    3.9958   -7.6064    1.2940 H   0  0  0  0  0  0  0  0  0  0  0  0
    4.6445   -6.4246    3.8214 H   0  0  0  0  0  0  0  0  0  0  0  0
    7.9574   -5.9457    3.8163 H   0  0  0  0  0  0  0  0  0  0  0  0
    6.2774   -8.9440    4.0391 H   0  0  0  0  0  0  0  0  0  0  0  0
    5.1694   -8.6464    2.6588 H   0  0  0  0  0  0  0  0  0  0  0  0
    8.2130   -9.0306    2.5815 H   0  0  0  0  0  0  0  0  0  0  0  0
    6.3011  -11.3914    0.4105 H   0  0  0  0  0  0  0  0  0  0  0  0
    5.7080  -10.8820    1.9893 H   0  0  0  0  0  0  0  0  0  0  0  0
    7.4112  -11.3095    1.7849 H   0  0  0  0  0  0  0  0  0  0  0  0
    6.7296   -7.1336    0.8271 H   0  0  0  0  0  0  0  0  0  0  0  0
    8.2687   -6.7812    1.6797 H   0  0  0  0  0  0  0  0  0  0  0  0
    2.5059   -4.8701    1.3618 H   0  0  0  0  0  0  0  0  0  0  0  0
    2.3252   -7.4463    2.0132 H   0  0  0  0  0  0  0  0  0  0  0  0
   -0.1394   -7.5957    4.8331 H   0  0  0  0  0  0  0  0  0  0  0  0
   -0.3963   -9.7212    3.5552 H   0  0  0  0  0  0  0  0  0  0  0  0
    1.0829   -9.7620    4.4993 H   0  0  0  0  0  0  0  0  0  0  0  0
    1.1556   -9.4705    2.7567 H   0  0  0  0  0  0  0  0  0  0  0  0
    2.6004   -7.6532    4.3434 H   0  0  0  0  0  0  0  0  0  0  0  0
    0.7342   -5.2792    4.8376 H   0  0  0  0  0  0  0  0  0  0  0  0
    1.6568   -6.1701    6.0056 H   0  0  0  0  0  0  0  0  0  0  0  0
    2.6787   -3.9797    5.5252 H   0  0  0  0  0  0  0  0  0  0  0  0
    3.7498   -5.2689    5.2353 H   0  0  0  0  0  0  0  0  0  0  0  0
    0.8808   -3.7423    3.2986 H   0  0  0  0  0  0  0  0  0  0  0  0
    1.8183   -2.7728    2.2306 H   0  0  0  0  0  0  0  0  0  0  0  0
    1.8812   -2.4550    3.9576 H   0  0  0  0  0  0  0  0  0  0  0  0
  1  2  2  0
  1 32  1  0
  1 33  1  0
  2  3  1  0
  2 34  1  0
  3  9  1  0
  3  4  1  6
  3  5  1  0
  4 35  1  0
  4 36  1  0
  4 37  1  0
  5  6  1  0
  5 38  1  0
  5 39  1  0
  6  7  1  0
  6 40  1  0
  6 41  1  0
  7 30  1  0
  7  8  2  0
  8 12  1  0
  8  9  1  0
  9 10  1  0
  9 42  1  1
 10 11  1  6
 10 12  1  0
 10 20  1  0
 11 43  1  0
 12 13  1  0
 12 44  1  1
 13 19  1  0
 13 14  1  1
 13 15  1  0
 14 45  1  0
 15 16  1  0
 15 46  1  0
 15 47  1  0
 16 17  1  0
 16 19  1  0
 16 48  1  1
 17 18  1  0
 18 49  1  0
 18 50  1  0
 18 51  1  0
 19 52  1  0
 19 53  1  0
 20 30  1  0
 20 21  1  0
 20 54  1  6
 21 27  1  0
 21 22  1  0
 21 55  1  6
 22 23  1  0
 23 24  2  0
 23 25  1  0
 25 26  1  0
 25 27  1  0
 25 56  1  1
 26 57  1  0
 26 58  1  0
 26 59  1  0
 27 28  1  0
 27 60  1  1
 28 29  1  0
 28 61  1  0
 28 62  1  0
 29 30  1  0
 29 63  1  0
 29 64  1  0
 30 31  1  6
 31 65  1  0
 31 66  1  0
 31 67  1  0
M  END
>  <i_m_ct_stereo_status>  (102) 
1

>  <s_m_source_file>  (102) 
/var/tmp/pbs.5076255.sched01/tmpio9qf6gp/4214r_5_m5.sdf

>  <i_m_source_file_index>  (102) 
2

>  <i_lp_mmshare_version>  (102) 
48012

>  <i_f3d_flags>  (102) 
0

>  <s_epik_input>  (102) 
TzFDKD1PKVtDQEBIXShbQ0gzXSlbQ0BIXShbQ0gyXVtDSDJdMilbQ0BASF0xW0NASF0zW0NAXTIoW0NIM10pQyhbQ0gyXVtDSDJdW0NAXTQoW0NIM10pW0NIXT1bQ0gyXSk9QyhbQ0BIXTRbQ0BdMzVbT0hdKVtDQEBIXTVbQ0BAXTYoW09IXSlbQ0gyXVtDQEhdKFtDSDJdNilPW0NIM10=

>  <s_epik_cmdline>  (102) 
J2VwaWtfcHl0aG9uJywgJy1waHQnLCAnMi4wJywgJy1waCcsICc3LjAnLCAnLXRuJywgJzgnLCAnLW1hJywgJzIwMCcsICctaW1hZScsICc8aW5maWxlLm1hZT4nLCAnLW9tYWUnLCAnPG91dGZpbGUubWFlPic=

>  <r_lp_tautomer_probability>  (102) 
1

>  <r_epik_Ionization_Penalty>  (102) 
1.6285e-06

>  <r_epik_Ionization_Penalty_Charging>  (102) 
0

>  <r_epik_Ionization_Penalty_Neutral>  (102) 
1.6285e-06

>  <r_epik_State_Penalty>  (102) 
-0

>  <r_epik_Charging_Adjusted_Penalty>  (102) 
0

>  <i_epik_Tot_Q>  (102) 
0

>  <i_epik_Tot_abs_Q>  (102) 
0

>  <s_epik_Chemistry_Notes>  (102) 
This compound has an ester and may undergo hydrolysis at high or low pH.

>  <s_lp_Force_Field>  (102) 
OPLS3e

>  <r_lp_Energy>  (102) 
115.716

>  <b_lp_Chiralities_Consistent>  (102) 
1

>  <s_lp_Variant>  (102) 
32:0-1

>  <s_i_glide_gridfile>  (102) 
pfpi4k_grid

>  <i_i_glide_lignum>  (102) 
2

>  <i_i_glide_rotatable_bonds>  (102) 
5

>  <r_i_docking_score>  (102) 
-2.68288

>  <r_i_glide_ligand_efficiency>  (102) 
-0.0865444

>  <r_i_glide_ligand_efficiency_sa>  (102) 
-0.271869

>  <r_i_glide_ligand_efficiency_ln>  (102) 
-0.605071

>  <r_i_glide_gscore>  (102) 
-2.68288

>  <r_i_glide_lipo>  (102) 
-0.370892

>  <r_i_glide_hbond>  (102) 
-0.207779

>  <r_i_glide_metal>  (102) 
-0

>  <r_i_glide_rewards>  (102) 
-0.487084

>  <r_i_glide_evdw>  (102) 
-22.4087

>  <r_i_glide_ecoul>  (102) 
-4.18738

>  <r_i_glide_erotb>  (102) 
0.216316

>  <r_i_glide_esite>  (102) 
-0.084897

>  <r_i_glide_emodel>  (102) 
-29.4486

>  <r_i_glide_energy>  (102) 
-26.596

>  <r_i_glide_einternal>  (102) 
3.63917

>  <r_i_glide_intrahb_reward>  (102) 
-0

>  <i_i_glide_confnum>  (102) 
1

>  <i_i_glide_posenum>  (102) 
3

>  <r_i_glide_eff_state_penalty>  (102) 
0

>  <ligand_id>  (102) 
32

>  <original_smiles>  (102) 
C=CC1(C)CCC2=C3C1C(O)(C3C1(O)CC(OC)C1)C1C3OC(=O)C(C)C3CCC21C

>  <smiles>  (102) 
[H]OC1(C2([H])C3=C4C([H])([H])C([H])([H])C(C([H])=C([H])[H])(C([H])([H])[H])C3([H])C2(O[H])C2([H])C3([H])OC(=O)C([H])(C([H])([H])[H])C3([H])C([H])([H])C([H])([H])C42C([H])([H])[H])C([H])([H])C([H])(OC([H])([H])[H])C1([H])[H]

$$$$
32:0:2
     RDKit          3D

 67 72  0  0  1  0  0  0  0  0999 V2000
    2.6933   -3.0579   -2.8364 C   0  0  0  0  0  0  0  0  0  0  0  0
    3.0227   -2.7035   -1.5826 C   0  0  0  0  0  0  0  0  0  0  0  0
    4.4102   -2.3665   -1.0205 C   0  0  1  0  0  0  0  0  0  0  0  0
    5.4925   -2.5307   -2.1173 C   0  0  0  0  0  0  0  0  0  0  0  0
    4.4165   -0.8991   -0.5675 C   0  0  0  0  0  0  0  0  0  0  0  0
    5.4414   -0.5936    0.5505 C   0  0  0  0  0  0  0  0  0  0  0  0
    5.2952   -1.6068    1.6749 C   0  0  0  0  0  0  0  0  0  0  0  0
    5.5360   -2.8878    1.3165 C   0  0  0  0  0  0  0  0  0  0  0  0
    4.6932   -3.3849    0.1499 C   0  0  1  0  0  0  0  0  0  0  0  0
    3.7079   -3.7034    1.3358 C   0  0  1  0  0  0  0  0  0  0  0  0
    2.7470   -4.6698    1.0365 O   0  0  0  0  0  0  0  0  0  0  0  0
    4.9933   -4.1331    2.0941 C   0  0  1  0  0  0  0  0  0  0  0  0
    5.6709   -5.5196    1.9729 C   0  0  1  0  0  0  0  0  0  0  0  0
    7.0107   -5.4472    2.3920 O   0  0  0  0  0  0  0  0  0  0  0  0
    4.8933   -6.6488    2.6639 C   0  0  0  0  0  0  0  0  0  0  0  0
    5.2067   -7.5737    1.4822 C   0  0  1  0  0  0  0  0  0  0  0  0
    4.0531   -8.2116    0.9578 O   0  0  0  0  0  0  0  0  0  0  0  0
    3.7220   -9.3879    1.6681 C   0  0  0  0  0  0  0  0  0  0  0  0
    5.5078   -6.3139    0.6657 C   0  0  0  0  0  0  0  0  0  0  0  0
    3.0110   -2.5367    2.1444 C   0  0  1  0  0  0  0  0  0  0  0  0
    2.0759   -3.0591    3.2901 C   0  0  2  0  0  0  0  0  0  0  0  0
    0.8834   -2.2885    3.3811 O   0  0  0  0  0  0  0  0  0  0  0  0
    0.3478   -2.3388    4.6198 C   0  0  0  0  0  0  0  0  0  0  0  0
   -0.7323   -1.8549    4.9458 O   0  0  0  0  0  0  0  0  0  0  0  0
    1.2953   -3.0757    5.5427 C   0  0  1  0  0  0  0  0  0  0  0  0
    0.7450   -4.4739    5.8799 C   0  0  0  0  0  0  0  0  0  0  0  0
    2.5870   -3.0736    4.7393 C   0  0  2  0  0  0  0  0  0  0  0  0
    3.4414   -1.8364    5.0837 C   0  0  0  0  0  0  0  0  0  0  0  0
    4.5617   -1.5809    4.0741 C   0  0  0  0  0  0  0  0  0  0  0  0
    4.0710   -1.4407    2.6109 C   0  0  1  0  0  0  0  0  0  0  0  0
    3.3945   -0.0416    2.5393 C   0  0  0  0  0  0  0  0  0  0  0  0
    3.4174   -3.1445   -3.6306 H   0  0  0  0  0  0  0  0  0  0  0  0
    1.6621   -3.2609   -3.0863 H   0  0  0  0  0  0  0  0  0  0  0  0
    2.2178   -2.6362   -0.8698 H   0  0  0  0  0  0  0  0  0  0  0  0
    6.4871   -2.3144   -1.7256 H   0  0  0  0  0  0  0  0  0  0  0  0
    5.3154   -1.8610   -2.9622 H   0  0  0  0  0  0  0  0  0  0  0  0
    5.5163   -3.5458   -2.5122 H   0  0  0  0  0  0  0  0  0  0  0  0
    4.6072   -0.2459   -1.4189 H   0  0  0  0  0  0  0  0  0  0  0  0
    3.4137   -0.6467   -0.2436 H   0  0  0  0  0  0  0  0  0  0  0  0
    6.4448   -0.6926    0.1532 H   0  0  0  0  0  0  0  0  0  0  0  0
    5.3494    0.4333    0.8963 H   0  0  0  0  0  0  0  0  0  0  0  0
    5.0658   -4.2773   -0.3190 H   0  0  0  0  0  0  0  0  0  0  0  0
    3.1908   -5.3833    0.6218 H   0  0  0  0  0  0  0  0  0  0  0  0
    4.8344   -4.0105    3.1604 H   0  0  0  0  0  0  0  0  0  0  0  0
    7.0146   -5.5818    3.3335 H   0  0  0  0  0  0  0  0  0  0  0  0
    5.3043   -6.9941    3.6124 H   0  0  0  0  0  0  0  0  0  0  0  0
    3.8350   -6.4266    2.7679 H   0  0  0  0  0  0  0  0  0  0  0  0
    6.0846   -8.2106    1.6086 H   0  0  0  0  0  0  0  0  0  0  0  0
    2.8429   -9.8635    1.2309 H   0  0  0  0  0  0  0  0  0  0  0  0
    3.5109   -9.1589    2.7130 H   0  0  0  0  0  0  0  0  0  0  0  0
    4.5571  -10.0857    1.6211 H   0  0  0  0  0  0  0  0  0  0  0  0
    4.6729   -6.0597    0.0275 H   0  0  0  0  0  0  0  0  0  0  0  0
    6.4358   -6.3516    0.0921 H   0  0  0  0  0  0  0  0  0  0  0  0
    2.3439   -2.0756    1.4163 H   0  0  0  0  0  0  0  0  0  0  0  0
    1.7405   -4.0697    3.0679 H   0  0  0  0  0  0  0  0  0  0  0  0
    1.3881   -2.4975    6.4594 H   0  0  0  0  0  0  0  0  0  0  0  0
   -0.2186   -4.4135    6.3878 H   0  0  0  0  0  0  0  0  0  0  0  0
    1.4306   -4.9997    6.5468 H   0  0  0  0  0  0  0  0  0  0  0  0
    0.6114   -5.0883    4.9853 H   0  0  0  0  0  0  0  0  0  0  0  0
    3.1799   -3.9765    4.9366 H   0  0  0  0  0  0  0  0  0  0  0  0
    2.8016   -0.9461    5.1574 H   0  0  0  0  0  0  0  0  0  0  0  0
    3.8705   -1.9584    6.0730 H   0  0  0  0  0  0  0  0  0  0  0  0
    5.0865   -0.6704    4.3661 H   0  0  0  0  0  0  0  0  0  0  0  0
    5.3331   -2.3414    4.2068 H   0  0  0  0  0  0  0  0  0  0  0  0
    2.5489    0.0210    3.2231 H   0  0  0  0  0  0  0  0  0  0  0  0
    2.9819    0.2118    1.5693 H   0  0  0  0  0  0  0  0  0  0  0  0
    4.0932    0.7468    2.8216 H   0  0  0  0  0  0  0  0  0  0  0  0
  1  2  2  0
  1 32  1  0
  1 33  1  0
  2  3  1  0
  2 34  1  0
  3  9  1  0
  3  4  1  6
  3  5  1  0
  4 35  1  0
  4 36  1  0
  4 37  1  0
  5  6  1  0
  5 38  1  0
  5 39  1  0
  6  7  1  0
  6 40  1  0
  6 41  1  0
  7 30  1  0
  7  8  2  0
  8 12  1  0
  8  9  1  0
  9 10  1  0
  9 42  1  6
 10 11  1  6
 10 12  1  0
 10 20  1  0
 11 43  1  0
 12 13  1  0
 12 44  1  1
 13 19  1  0
 13 14  1  1
 13 15  1  0
 14 45  1  0
 15 16  1  0
 15 46  1  0
 15 47  1  0
 16 17  1  0
 16 19  1  0
 16 48  1  1
 17 18  1  0
 18 49  1  0
 18 50  1  0
 18 51  1  0
 19 52  1  0
 19 53  1  0
 20 30  1  0
 20 21  1  0
 20 54  1  6
 21 27  1  0
 21 22  1  0
 21 55  1  6
 22 23  1  0
 23 24  2  0
 23 25  1  0
 25 26  1  0
 25 27  1  0
 25 56  1  1
 26 57  1  0
 26 58  1  0
 26 59  1  0
 27 28  1  0
 27 60  1  6
 28 29  1  0
 28 61  1  0
 28 62  1  0
 29 30  1  0
 29 63  1  0
 29 64  1  0
 30 31  1  1
 31 65  1  0
 31 66  1  0
 31 67  1  0
M  END
>  <i_m_ct_stereo_status>  (103) 
1

>  <s_m_source_file>  (103) 
/var/tmp/pbs.5076255.sched01/tmpio9qf6gp/4214r_5_m5.sdf

>  <i_m_source_file_index>  (103) 
2

>  <i_lp_mmshare_version>  (103) 
48012

>  <i_f3d_flags>  (103) 
0

>  <s_epik_input>  (103) 
TzFDKD1PKVtDQEBIXShbQ0gzXSlbQ0BIXShbQ0gyXVtDSDJdMilbQ0BASF0xW0NASF0zW0NAXTIoW0NIM10pQyhbQ0gyXVtDSDJdW0NAXTQoW0NIM10pW0NIXT1bQ0gyXSk9QyhbQ0BIXTRbQ0BdMzVbT0hdKVtDQEBIXTVbQ0BAXTYoW09IXSlbQ0gyXVtDQEhdKFtDSDJdNilPW0NIM10=

>  <s_epik_cmdline>  (103) 
J2VwaWtfcHl0aG9uJywgJy1waHQnLCAnMi4wJywgJy1waCcsICc3LjAnLCAnLXRuJywgJzgnLCAnLW1hJywgJzIwMCcsICctaW1hZScsICc8aW5maWxlLm1hZT4nLCAnLW9tYWUnLCAnPG91dGZpbGUubWFlPic=

>  <r_lp_tautomer_probability>  (103) 
1

>  <r_epik_Ionization_Penalty>  (103) 
1.6285e-06

>  <r_epik_Ionization_Penalty_Charging>  (103) 
0

>  <r_epik_Ionization_Penalty_Neutral>  (103) 
1.6285e-06

>  <r_epik_State_Penalty>  (103) 
-0

>  <r_epik_Charging_Adjusted_Penalty>  (103) 
0

>  <i_epik_Tot_Q>  (103) 
0

>  <i_epik_Tot_abs_Q>  (103) 
0

>  <s_epik_Chemistry_Notes>  (103) 
This compound has an ester and may undergo hydrolysis at high or low pH.

>  <s_lp_Force_Field>  (103) 
OPLS3e

>  <r_lp_Energy>  (103) 
115.716

>  <b_lp_Chiralities_Consistent>  (103) 
1

>  <s_lp_Variant>  (103) 
32:0-1

>  <s_i_glide_gridfile>  (103) 
pfpi4k_grid

>  <i_i_glide_lignum>  (103) 
2

>  <i_i_glide_rotatable_bonds>  (103) 
5

>  <r_i_docking_score>  (103) 
-2.35516

>  <r_i_glide_ligand_efficiency>  (103) 
-0.0759729

>  <r_i_glide_ligand_efficiency_sa>  (103) 
-0.23866

>  <r_i_glide_ligand_efficiency_ln>  (103) 
-0.531161

>  <r_i_glide_gscore>  (103) 
-2.35516

>  <r_i_glide_lipo>  (103) 
-0.705823

>  <r_i_glide_hbond>  (103) 
0

>  <r_i_glide_metal>  (103) 
-0

>  <r_i_glide_rewards>  (103) 
-0.548294

>  <r_i_glide_evdw>  (103) 
-24.8598

>  <r_i_glide_ecoul>  (103) 
-0.495807

>  <r_i_glide_erotb>  (103) 
0.216316

>  <r_i_glide_esite>  (103) 
0

>  <r_i_glide_emodel>  (103) 
-27.7151

>  <r_i_glide_energy>  (103) 
-25.3556

>  <r_i_glide_einternal>  (103) 
2.66577

>  <r_i_glide_intrahb_reward>  (103) 
-0

>  <i_i_glide_confnum>  (103) 
1

>  <i_i_glide_posenum>  (103) 
10

>  <r_i_glide_eff_state_penalty>  (103) 
0

>  <ligand_id>  (103) 
32

>  <original_smiles>  (103) 
C=CC1(C)CCC2=C3C1C(O)(C3C1(O)CC(OC)C1)C1C3OC(=O)C(C)C3CCC21C

>  <smiles>  (103) 
[H]OC1(C2([H])C3=C4C([H])([H])C([H])([H])C(C([H])=C([H])[H])(C([H])([H])[H])C3([H])C2(O[H])C2([H])C3([H])OC(=O)C([H])(C([H])([H])[H])C3([H])C([H])([H])C([H])([H])C42C([H])([H])[H])C([H])([H])C([H])(OC([H])([H])[H])C1([H])[H]

$$$$
33:0:0
     RDKit          3D

 24 26  0  0  1  0  0  0  0  0999 V2000
   -0.5850    5.4763    5.8265 O   0  0  0  0  0  0  0  0  0  0  0  0
   -0.4873    4.2943    5.4862 C   0  0  0  0  0  0  0  0  0  0  0  0
   -0.6069    3.2363    6.5507 C   0  0  0  0  0  0  0  0  0  0  0  0
   -0.2589    3.5501    7.8866 C   0  0  0  0  0  0  0  0  0  0  0  0
   -0.4577    2.5909    8.8934 C   0  0  0  0  0  0  0  0  0  0  0  0
   -1.0071    1.3487    8.5325 C   0  0  0  0  0  0  0  0  0  0  0  0
   -1.3783    1.0345    7.2750 N   0  0  0  0  0  0  0  0  0  0  0  0
   -1.1672    1.9506    6.3034 C   0  0  0  0  0  0  0  0  0  0  0  0
   -1.5673    1.5411    5.0583 O   0  0  0  0  0  0  0  0  0  0  0  0
   -0.5961    1.4940    4.0926 C   0  0  0  0  0  0  0  0  0  0  0  0
   -0.3812    0.2751    3.5636 N   0  0  0  0  0  0  0  0  0  0  0  0
    0.5661    0.1603    2.6068 C   0  0  0  0  0  0  0  0  0  0  0  0
    1.3355    1.2460    2.1459 C   0  0  0  0  0  0  0  0  0  0  0  0
    1.0951    2.5191    2.6945 C   0  0  0  0  0  0  0  0  0  0  0  0
    0.0927    2.6528    3.6816 C   0  0  0  0  0  0  0  0  0  0  0  0
   -0.2287    3.9273    4.2129 N   0  0  0  0  0  0  0  0  0  0  0  0
   -0.2565    4.9970    3.2791 O   0  0  0  0  0  0  0  0  0  0  0  0
    0.1460    4.5145    8.1491 H   0  0  0  0  0  0  0  0  0  0  0  0
   -0.2160    2.8013    9.9253 H   0  0  0  0  0  0  0  0  0  0  0  0
   -1.1776    0.5918    9.2790 H   0  0  0  0  0  0  0  0  0  0  0  0
    0.7174   -0.8255    2.1959 H   0  0  0  0  0  0  0  0  0  0  0  0
    2.0748    1.1066    1.3737 H   0  0  0  0  0  0  0  0  0  0  0  0
    1.6560    3.3710    2.3414 H   0  0  0  0  0  0  0  0  0  0  0  0
   -0.1347    4.5949    2.4076 H   0  0  0  0  0  0  0  0  0  0  0  0
  1  2  2  0
  2 16  1  0
  2  3  1  0
  3  8  2  0
  3  4  1  0
  4  5  2  0
  4 18  1  0
  5  6  1  0
  5 19  1  0
  6  7  2  0
  6 20  1  0
  7  8  1  0
  8  9  1  0
  9 10  1  0
 10 15  2  0
 10 11  1  0
 11 12  2  0
 12 13  1  0
 12 21  1  0
 13 14  2  0
 13 22  1  0
 14 15  1  0
 14 23  1  0
 15 16  1  0
 16 17  1  0
 17 24  1  0
M  END
>  <i_m_ct_stereo_status>  (104) 
1

>  <s_m_source_file>  (104) 
/var/tmp/pbs.5076255.sched01/tmpio9qf6gp/4214r_5_m5.sdf

>  <i_m_source_file_index>  (104) 
3

>  <i_lp_mmshare_version>  (104) 
48012

>  <i_f3d_flags>  (104) 
0

>  <s_epik_input>  (104) 
bjFbY0hdW2NIXVtjSF1jKE4oQzI9TylbT0hdKWMxT2MoYzIzKW5bY0hdW2NIXVtjSF0z

>  <s_epik_cmdline>  (104) 
J2VwaWtfcHl0aG9uJywgJy1waHQnLCAnMi4wJywgJy1waCcsICc3LjAnLCAnLXRuJywgJzgnLCAnLW1hJywgJzIwMCcsICctaW1hZScsICc8aW5maWxlLm1hZT4nLCAnLW9tYWUnLCAnPG91dGZpbGUubWFlPic=

>  <r_lp_tautomer_probability>  (104) 
1

>  <r_epik_Ionization_Penalty>  (104) 
0.109366

>  <r_epik_Ionization_Penalty_Charging>  (104) 
0

>  <r_epik_Ionization_Penalty_Neutral>  (104) 
0.109366

>  <r_epik_State_Penalty>  (104) 
0.0991388

>  <r_epik_Charging_Adjusted_Penalty>  (104) 
0.0991388

>  <i_epik_Tot_Q>  (104) 
0

>  <i_epik_Tot_abs_Q>  (104) 
0

>  <s_epik_Chemistry_Notes>  (104) 
This compound has a N-S or N-O group and may undergo hydrolysis at high or low pH.

>  <s_lp_Force_Field>  (104) 
OPLS3e

>  <r_lp_Energy>  (104) 
49.873

>  <b_lp_Chiralities_Consistent>  (104) 
1

>  <s_lp_Variant>  (104) 
33:0-1

>  <s_i_glide_gridfile>  (104) 
pfpi4k_grid

>  <i_i_glide_lignum>  (104) 
3

>  <i_i_glide_rotatable_bonds>  (104) 
1

>  <r_i_docking_score>  (104) 
-4.03118

>  <r_i_glide_ligand_efficiency>  (104) 
-0.237128

>  <r_i_glide_ligand_efficiency_sa>  (104) 
-0.609724

>  <r_i_glide_ligand_efficiency_ln>  (104) 
-1.05165

>  <r_i_glide_gscore>  (104) 
-4.03118

>  <r_i_glide_lipo>  (104) 
0

>  <r_i_glide_hbond>  (104) 
-0.124314

>  <r_i_glide_metal>  (104) 
-0

>  <r_i_glide_rewards>  (104) 
-1.84642

>  <r_i_glide_evdw>  (104) 
-13.4976

>  <r_i_glide_ecoul>  (104) 
-8.71123

>  <r_i_glide_erotb>  (104) 
0

>  <r_i_glide_esite>  (104) 
-0.0788814

>  <r_i_glide_emodel>  (104) 
-29.4582

>  <r_i_glide_energy>  (104) 
-22.2089

>  <r_i_glide_einternal>  (104) 
0.00691282

>  <r_i_glide_intrahb_reward>  (104) 
-0

>  <i_i_glide_confnum>  (104) 
2

>  <i_i_glide_posenum>  (104) 
1

>  <r_i_glide_eff_state_penalty>  (104) 
0

>  <ligand_id>  (104) 
33

>  <original_smiles>  (104) 
O=C1c2cccnc2Oc2ncccc2N1O

>  <smiles>  (104) 
[H]ON1C(=O)c2c(nc([H])c([H])c2[H])Oc2nc([H])c([H])c([H])c21

$$$$
33:0:1
     RDKit          3D

 24 26  0  0  1  0  0  0  0  0999 V2000
    4.2531   -9.2723    1.8368 O   0  0  0  0  0  0  0  0  0  0  0  0
    3.1845   -8.6756    1.9728 C   0  0  0  0  0  0  0  0  0  0  0  0
    3.1105   -7.2388    1.5281 C   0  0  0  0  0  0  0  0  0  0  0  0
    4.2929   -6.4654    1.4648 C   0  0  0  0  0  0  0  0  0  0  0  0
    4.2359   -5.1651    0.9287 C   0  0  0  0  0  0  0  0  0  0  0  0
    3.0027   -4.6961    0.4462 C   0  0  0  0  0  0  0  0  0  0  0  0
    1.8698   -5.4248    0.4848 N   0  0  0  0  0  0  0  0  0  0  0  0
    1.9208   -6.6559    1.0241 C   0  0  0  0  0  0  0  0  0  0  0  0
    0.7178   -7.2973    0.9815 O   0  0  0  0  0  0  0  0  0  0  0  0
    0.2096   -7.6954    2.1790 C   0  0  0  0  0  0  0  0  0  0  0  0
   -0.9795   -7.1353    2.5003 N   0  0  0  0  0  0  0  0  0  0  0  0
   -1.5361   -7.5060    3.6720 C   0  0  0  0  0  0  0  0  0  0  0  0
   -0.9212   -8.3952    4.5676 C   0  0  0  0  0  0  0  0  0  0  0  0
    0.3070   -8.9798    4.2238 C   0  0  0  0  0  0  0  0  0  0  0  0
    0.8918   -8.6315    2.9899 C   0  0  0  0  0  0  0  0  0  0  0  0
    2.1025   -9.2290    2.5640 N   0  0  0  0  0  0  0  0  0  0  0  0
    2.2745  -10.5788    2.9488 O   0  0  0  0  0  0  0  0  0  0  0  0
    5.2396   -6.8572    1.8080 H   0  0  0  0  0  0  0  0  0  0  0  0
    5.1163   -4.5434    0.8679 H   0  0  0  0  0  0  0  0  0  0  0  0
    2.9102   -3.7072    0.0212 H   0  0  0  0  0  0  0  0  0  0  0  0
   -2.4980   -7.0729    3.8977 H   0  0  0  0  0  0  0  0  0  0  0  0
   -1.3956   -8.6692    5.4954 H   0  0  0  0  0  0  0  0  0  0  0  0
    0.7794   -9.6745    4.9030 H   0  0  0  0  0  0  0  0  0  0  0  0
    1.4160  -10.8458    3.2378 H   0  0  0  0  0  0  0  0  0  0  0  0
  1  2  2  0
  2 16  1  0
  2  3  1  0
  3  8  2  0
  3  4  1  0
  4  5  2  0
  4 18  1  0
  5  6  1  0
  5 19  1  0
  6  7  2  0
  6 20  1  0
  7  8  1  0
  8  9  1  0
  9 10  1  0
 10 15  2  0
 10 11  1  0
 11 12  2  0
 12 13  1  0
 12 21  1  0
 13 14  2  0
 13 22  1  0
 14 15  1  0
 14 23  1  0
 15 16  1  0
 16 17  1  0
 17 24  1  0
M  END
>  <i_m_ct_stereo_status>  (105) 
1

>  <s_m_source_file>  (105) 
/var/tmp/pbs.5076255.sched01/tmpio9qf6gp/4214r_5_m5.sdf

>  <i_m_source_file_index>  (105) 
3

>  <i_lp_mmshare_version>  (105) 
48012

>  <i_f3d_flags>  (105) 
0

>  <s_epik_input>  (105) 
bjFbY0hdW2NIXVtjSF1jKE4oQzI9TylbT0hdKWMxT2MoYzIzKW5bY0hdW2NIXVtjSF0z

>  <s_epik_cmdline>  (105) 
J2VwaWtfcHl0aG9uJywgJy1waHQnLCAnMi4wJywgJy1waCcsICc3LjAnLCAnLXRuJywgJzgnLCAnLW1hJywgJzIwMCcsICctaW1hZScsICc8aW5maWxlLm1hZT4nLCAnLW9tYWUnLCAnPG91dGZpbGUubWFlPic=

>  <r_lp_tautomer_probability>  (105) 
1

>  <r_epik_Ionization_Penalty>  (105) 
0.109366

>  <r_epik_Ionization_Penalty_Charging>  (105) 
0

>  <r_epik_Ionization_Penalty_Neutral>  (105) 
0.109366

>  <r_epik_State_Penalty>  (105) 
0.0991388

>  <r_epik_Charging_Adjusted_Penalty>  (105) 
0.0991388

>  <i_epik_Tot_Q>  (105) 
0

>  <i_epik_Tot_abs_Q>  (105) 
0

>  <s_epik_Chemistry_Notes>  (105) 
This compound has a N-S or N-O group and may undergo hydrolysis at high or low pH.

>  <s_lp_Force_Field>  (105) 
OPLS3e

>  <r_lp_Energy>  (105) 
49.873

>  <b_lp_Chiralities_Consistent>  (105) 
1

>  <s_lp_Variant>  (105) 
33:0-1

>  <s_i_glide_gridfile>  (105) 
pfpi4k_grid

>  <i_i_glide_lignum>  (105) 
3

>  <i_i_glide_rotatable_bonds>  (105) 
1

>  <r_i_docking_score>  (105) 
-3.96985

>  <r_i_glide_ligand_efficiency>  (105) 
-0.233521

>  <r_i_glide_ligand_efficiency_sa>  (105) 
-0.600448

>  <r_i_glide_ligand_efficiency_ln>  (105) 
-1.03565

>  <r_i_glide_gscore>  (105) 
-3.96985

>  <r_i_glide_lipo>  (105) 
-0.161247

>  <r_i_glide_hbond>  (105) 
-0.246673

>  <r_i_glide_metal>  (105) 
-0

>  <r_i_glide_rewards>  (105) 
-1.89911

>  <r_i_glide_evdw>  (105) 
-20.5394

>  <r_i_glide_ecoul>  (105) 
-4.09598

>  <r_i_glide_erotb>  (105) 
0

>  <r_i_glide_esite>  (105) 
-0.0214513

>  <r_i_glide_emodel>  (105) 
-31.8227

>  <r_i_glide_energy>  (105) 
-24.6354

>  <r_i_glide_einternal>  (105) 
0.000477538

>  <r_i_glide_intrahb_reward>  (105) 
-0

>  <i_i_glide_confnum>  (105) 
2

>  <i_i_glide_posenum>  (105) 
33

>  <r_i_glide_eff_state_penalty>  (105) 
0

>  <ligand_id>  (105) 
33

>  <original_smiles>  (105) 
O=C1c2cccnc2Oc2ncccc2N1O

>  <smiles>  (105) 
[H]ON1C(=O)c2c(nc([H])c([H])c2[H])Oc2nc([H])c([H])c([H])c21

$$$$
33:0:2
     RDKit          3D

 24 26  0  0  1  0  0  0  0  0999 V2000
    5.3294   -7.9946    1.3537 O   0  0  0  0  0  0  0  0  0  0  0  0
    4.1811   -7.5604    1.4772 C   0  0  0  0  0  0  0  0  0  0  0  0
    3.9639   -6.0696    1.4145 C   0  0  0  0  0  0  0  0  0  0  0  0
    5.0155   -5.1934    1.7805 C   0  0  0  0  0  0  0  0  0  0  0  0
    4.8353   -3.8038    1.6223 C   0  0  0  0  0  0  0  0  0  0  0  0
    3.6246   -3.3452    1.0858 C   0  0  0  0  0  0  0  0  0  0  0  0
    2.6191   -4.1631    0.7249 N   0  0  0  0  0  0  0  0  0  0  0  0
    2.7810   -5.4920    0.8905 C   0  0  0  0  0  0  0  0  0  0  0  0
    1.6911   -6.2276    0.4970 O   0  0  0  0  0  0  0  0  0  0  0  0
    1.0998   -6.9967    1.4548 C   0  0  0  0  0  0  0  0  0  0  0  0
   -0.1958   -6.6955    1.7000 N   0  0  0  0  0  0  0  0  0  0  0  0
   -0.8514   -7.4538    2.6043 C   0  0  0  0  0  0  0  0  0  0  0  0
   -0.2479   -8.5045    3.3215 C   0  0  0  0  0  0  0  0  0  0  0  0
    1.0976   -8.8104    3.0540 C   0  0  0  0  0  0  0  0  0  0  0  0
    1.7913   -8.0501    2.0894 C   0  0  0  0  0  0  0  0  0  0  0  0
    3.1227   -8.3650    1.7237 N   0  0  0  0  0  0  0  0  0  0  0  0
    3.4505   -9.7340    1.7976 O   0  0  0  0  0  0  0  0  0  0  0  0
    5.9517   -5.5694    2.1788 H   0  0  0  0  0  0  0  0  0  0  0  0
    5.6143   -3.1041    1.8862 H   0  0  0  0  0  0  0  0  0  0  0  0
    3.4397   -2.2969    0.9281 H   0  0  0  0  0  0  0  0  0  0  0  0
   -1.8881   -7.1961    2.7767 H   0  0  0  0  0  0  0  0  0  0  0  0
   -0.8080   -9.0553    4.0666 H   0  0  0  0  0  0  0  0  0  0  0  0
    1.5864   -9.6067    3.5971 H   0  0  0  0  0  0  0  0  0  0  0  0
    2.6137  -10.1738    1.7803 H   0  0  0  0  0  0  0  0  0  0  0  0
  1  2  2  0
  2 16  1  0
  2  3  1  0
  3  8  2  0
  3  4  1  0
  4  5  2  0
  4 18  1  0
  5  6  1  0
  5 19  1  0
  6  7  2  0
  6 20  1  0
  7  8  1  0
  8  9  1  0
  9 10  1  0
 10 15  2  0
 10 11  1  0
 11 12  2  0
 12 13  1  0
 12 21  1  0
 13 14  2  0
 13 22  1  0
 14 15  1  0
 14 23  1  0
 15 16  1  0
 16 17  1  0
 17 24  1  0
M  END
>  <i_m_ct_stereo_status>  (106) 
1

>  <s_m_source_file>  (106) 
/var/tmp/pbs.5076255.sched01/tmpio9qf6gp/4214r_5_m5.sdf

>  <i_m_source_file_index>  (106) 
3

>  <i_lp_mmshare_version>  (106) 
48012

>  <i_f3d_flags>  (106) 
0

>  <s_epik_input>  (106) 
bjFbY0hdW2NIXVtjSF1jKE4oQzI9TylbT0hdKWMxT2MoYzIzKW5bY0hdW2NIXVtjSF0z

>  <s_epik_cmdline>  (106) 
J2VwaWtfcHl0aG9uJywgJy1waHQnLCAnMi4wJywgJy1waCcsICc3LjAnLCAnLXRuJywgJzgnLCAnLW1hJywgJzIwMCcsICctaW1hZScsICc8aW5maWxlLm1hZT4nLCAnLW9tYWUnLCAnPG91dGZpbGUubWFlPic=

>  <r_lp_tautomer_probability>  (106) 
1

>  <r_epik_Ionization_Penalty>  (106) 
0.109366

>  <r_epik_Ionization_Penalty_Charging>  (106) 
0

>  <r_epik_Ionization_Penalty_Neutral>  (106) 
0.109366

>  <r_epik_State_Penalty>  (106) 
0.0991388

>  <r_epik_Charging_Adjusted_Penalty>  (106) 
0.0991388

>  <i_epik_Tot_Q>  (106) 
0

>  <i_epik_Tot_abs_Q>  (106) 
0

>  <s_epik_Chemistry_Notes>  (106) 
This compound has a N-S or N-O group and may undergo hydrolysis at high or low pH.

>  <s_lp_Force_Field>  (106) 
OPLS3e

>  <r_lp_Energy>  (106) 
49.873

>  <b_lp_Chiralities_Consistent>  (106) 
1

>  <s_lp_Variant>  (106) 
33:0-1

>  <s_i_glide_gridfile>  (106) 
pfpi4k_grid

>  <i_i_glide_lignum>  (106) 
3

>  <i_i_glide_rotatable_bonds>  (106) 
1

>  <r_i_docking_score>  (106) 
-3.73827

>  <r_i_glide_ligand_efficiency>  (106) 
-0.219898

>  <r_i_glide_ligand_efficiency_sa>  (106) 
-0.565421

>  <r_i_glide_ligand_efficiency_ln>  (106) 
-0.975232

>  <r_i_glide_gscore>  (106) 
-3.73827

>  <r_i_glide_lipo>  (106) 
-0.107329

>  <r_i_glide_hbond>  (106) 
-0.225192

>  <r_i_glide_metal>  (106) 
-0

>  <r_i_glide_rewards>  (106) 
-1.91838

>  <r_i_glide_evdw>  (106) 
-20.7725

>  <r_i_glide_ecoul>  (106) 
-2.88523

>  <r_i_glide_erotb>  (106) 
0

>  <r_i_glide_esite>  (106) 
-0.0159616

>  <r_i_glide_emodel>  (106) 
-30.4429

>  <r_i_glide_energy>  (106) 
-23.6577

>  <r_i_glide_einternal>  (106) 
0.00907094

>  <r_i_glide_intrahb_reward>  (106) 
-0

>  <i_i_glide_confnum>  (106) 
2

>  <i_i_glide_posenum>  (106) 
40

>  <r_i_glide_eff_state_penalty>  (106) 
0

>  <ligand_id>  (106) 
33

>  <original_smiles>  (106) 
O=C1c2cccnc2Oc2ncccc2N1O

>  <smiles>  (106) 
[H]ON1C(=O)c2c(nc([H])c([H])c2[H])Oc2nc([H])c([H])c([H])c21

$$$$
33:1:0
     RDKit          3D

 23 25  0  0  1  0  0  0  0  0999 V2000
    6.3221   -5.8402    1.0075 O   0  0  0  0  0  0  0  0  0  0  0  0
    5.0920   -5.8073    1.0960 C   0  0  0  0  0  0  0  0  0  0  0  0
    4.4328   -4.4597    1.2400 C   0  0  0  0  0  0  0  0  0  0  0  0
    5.1573   -3.3943    1.8223 C   0  0  0  0  0  0  0  0  0  0  0  0
    4.5912   -2.1069    1.8518 C   0  0  0  0  0  0  0  0  0  0  0  0
    3.3168   -1.9276    1.2823 C   0  0  0  0  0  0  0  0  0  0  0  0
    2.6172   -2.9328    0.7242 N   0  0  0  0  0  0  0  0  0  0  0  0
    3.1600   -4.1661    0.7007 C   0  0  0  0  0  0  0  0  0  0  0  0
    2.3705   -5.1066    0.1004 O   0  0  0  0  0  0  0  0  0  0  0  0
    2.0007   -6.1565    0.8897 C   0  0  0  0  0  0  0  0  0  0  0  0
    0.6614   -6.2681    1.0770 N   0  0  0  0  0  0  0  0  0  0  0  0
    0.2249   -7.2825    1.8524 C   0  0  0  0  0  0  0  0  0  0  0  0
    1.0811   -8.2037    2.4775 C   0  0  0  0  0  0  0  0  0  0  0  0
    2.4665   -8.0935    2.2539 C   0  0  0  0  0  0  0  0  0  0  0  0
    2.9556   -7.0455    1.4365 C   0  0  0  0  0  0  0  0  0  0  0  0
    4.3476   -6.9419    1.1301 N   0  0  0  0  0  0  0  0  0  0  0  0
    4.8657   -8.1697    0.9038 O   0  0  0  0  0  0  0  0  0  0  0  0
    6.1437   -3.5455    2.2291 H   0  0  0  0  0  0  0  0  0  0  0  0
    5.1235   -1.2709    2.2837 H   0  0  0  0  0  0  0  0  0  0  0  0
    2.8438   -0.9535    1.2757 H   0  0  0  0  0  0  0  0  0  0  0  0
   -0.8395   -7.3450    2.0024 H   0  0  0  0  0  0  0  0  0  0  0  0
    0.6854   -8.9888    3.1040 H   0  0  0  0  0  0  0  0  0  0  0  0
    3.1430   -8.8083    2.7051 H   0  0  0  0  0  0  0  0  0  0  0  0
  1  2  2  0
  2 16  1  0
  2  3  1  0
  3  8  2  0
  3  4  1  0
  4  5  2  0
  4 18  1  0
  5  6  1  0
  5 19  1  0
  6  7  2  0
  6 20  1  0
  7  8  1  0
  8  9  1  0
  9 10  1  0
 10 15  2  0
 10 11  1  0
 11 12  2  0
 12 13  1  0
 12 21  1  0
 13 14  2  0
 13 22  1  0
 14 15  1  0
 14 23  1  0
 15 16  1  0
 16 17  1  0
M  CHG  1  17  -1
M  END
>  <i_m_ct_stereo_status>  (107) 
1

>  <s_m_source_file>  (107) 
/var/tmp/pbs.5076255.sched01/tmpio9qf6gp/4214r_5_m5.sdf

>  <i_m_source_file_index>  (107) 
4

>  <i_lp_mmshare_version>  (107) 
48012

>  <i_f3d_flags>  (107) 
0

>  <s_epik_input>  (107) 
bjFbY0hdW2NIXVtjSF1jKE4oQzI9TylbT0hdKWMxT2MoYzIzKW5bY0hdW2NIXVtjSF0z

>  <s_epik_cmdline>  (107) 
J2VwaWtfcHl0aG9uJywgJy1waHQnLCAnMi4wJywgJy1waCcsICc3LjAnLCAnLXRuJywgJzgnLCAnLW1hJywgJzIwMCcsICctaW1hZScsICc8aW5maWxlLm1hZT4nLCAnLW9tYWUnLCAnPG91dGZpbGUubWFlPic=

>  <r_lp_tautomer_probability>  (107) 
1

>  <r_epik_Ionization_Penalty>  (107) 
1.23314

>  <r_epik_Ionization_Penalty_Charging>  (107) 
1.05493

>  <r_epik_Ionization_Penalty_Neutral>  (107) 
0.178209

>  <r_epik_State_Penalty>  (107) 
1.10813

>  <r_epik_Charging_Adjusted_Penalty>  (107) 
2.16305

>  <i_epik_Tot_Q>  (107) 
-1

>  <i_epik_Tot_abs_Q>  (107) 
1

>  <s_lp_Force_Field>  (107) 
OPLS3e

>  <r_lp_Energy>  (107) 
60.0555

>  <b_lp_Chiralities_Consistent>  (107) 
1

>  <s_lp_Variant>  (107) 
33:0-2

>  <s_i_glide_gridfile>  (107) 
pfpi4k_grid

>  <i_i_glide_lignum>  (107) 
4

>  <i_i_glide_rotatable_bonds>  (107) 
0

>  <r_i_docking_score>  (107) 
-3.66015

>  <r_i_glide_ligand_efficiency>  (107) 
-0.215303

>  <r_i_glide_ligand_efficiency_sa>  (107) 
-0.553604

>  <r_i_glide_ligand_efficiency_ln>  (107) 
-0.954851

>  <r_i_glide_gscore>  (107) 
-3.66015

>  <r_i_glide_lipo>  (107) 
-0.138418

>  <r_i_glide_hbond>  (107) 
-0.16

>  <r_i_glide_metal>  (107) 
-0

>  <r_i_glide_rewards>  (107) 
-2.09906

>  <r_i_glide_evdw>  (107) 
-17.4198

>  <r_i_glide_ecoul>  (107) 
-2.61117

>  <r_i_glide_erotb>  (107) 
0

>  <r_i_glide_esite>  (107) 
0

>  <r_i_glide_emodel>  (107) 
-28.0477

>  <r_i_glide_energy>  (107) 
-20.0309

>  <r_i_glide_einternal>  (107) 
0

>  <r_i_glide_intrahb_reward>  (107) 
-0

>  <i_i_glide_confnum>  (107) 
2

>  <i_i_glide_posenum>  (107) 
30

>  <r_i_glide_eff_state_penalty>  (107) 
0

>  <ligand_id>  (107) 
33

>  <original_smiles>  (107) 
O=C1c2cccnc2Oc2ncccc2N1O

>  <smiles>  (107) 
[H]c1nc2c(c([H])c1[H])C(=O)N([O-])c1c(nc([H])c([H])c1[H])O2

$$$$
33:1:1
     RDKit          3D

 23 25  0  0  1  0  0  0  0  0999 V2000
   -2.0703   -0.3832    5.3469 O   0  0  0  0  0  0  0  0  0  0  0  0
   -0.9853   -0.8914    5.0546 C   0  0  0  0  0  0  0  0  0  0  0  0
   -0.1014   -0.1648    4.0792 C   0  0  0  0  0  0  0  0  0  0  0  0
   -0.6807    0.7105    3.1385 C   0  0  0  0  0  0  0  0  0  0  0  0
    0.1532    1.4652    2.3006 C   0  0  0  0  0  0  0  0  0  0  0  0
    1.5468    1.3424    2.4451 C   0  0  0  0  0  0  0  0  0  0  0  0
    2.1192    0.5223    3.3498 N   0  0  0  0  0  0  0  0  0  0  0  0
    1.3139   -0.2197    4.1396 C   0  0  0  0  0  0  0  0  0  0  0  0
    1.9878   -1.0116    5.0225 O   0  0  0  0  0  0  0  0  0  0  0  0
    1.7572   -2.3498    4.9063 C   0  0  0  0  0  0  0  0  0  0  0  0
    2.8553   -3.0789    4.5945 N   0  0  0  0  0  0  0  0  0  0  0  0
    2.7092   -4.4085    4.4357 C   0  0  0  0  0  0  0  0  0  0  0  0
    1.4805   -5.0716    4.5887 C   0  0  0  0  0  0  0  0  0  0  0  0
    0.3561   -4.3099    4.9562 C   0  0  0  0  0  0  0  0  0  0  0  0
    0.4724   -2.9069    5.1195 C   0  0  0  0  0  0  0  0  0  0  0  0
   -0.6553   -2.1174    5.5204 N   0  0  0  0  0  0  0  0  0  0  0  0
   -1.3858   -2.8029    6.4328 O   0  0  0  0  0  0  0  0  0  0  0  0
   -1.7552    0.8144    3.0549 H   0  0  0  0  0  0  0  0  0  0  0  0
   -0.2607    2.1421    1.5653 H   0  0  0  0  0  0  0  0  0  0  0  0
    2.2171    1.9237    1.8264 H   0  0  0  0  0  0  0  0  0  0  0  0
    3.5951   -4.9659    4.1724 H   0  0  0  0  0  0  0  0  0  0  0  0
    1.4038   -6.1438    4.4469 H   0  0  0  0  0  0  0  0  0  0  0  0
   -0.5849   -4.8180    5.0990 H   0  0  0  0  0  0  0  0  0  0  0  0
  1  2  2  0
  2 16  1  0
  2  3  1  0
  3  8  2  0
  3  4  1  0
  4  5  2  0
  4 18  1  0
  5  6  1  0
  5 19  1  0
  6  7  2  0
  6 20  1  0
  7  8  1  0
  8  9  1  0
  9 10  1  0
 10 15  2  0
 10 11  1  0
 11 12  2  0
 12 13  1  0
 12 21  1  0
 13 14  2  0
 13 22  1  0
 14 15  1  0
 14 23  1  0
 15 16  1  0
 16 17  1  0
M  CHG  1  17  -1
M  END
>  <i_m_ct_stereo_status>  (108) 
1

>  <s_m_source_file>  (108) 
/var/tmp/pbs.5076255.sched01/tmpio9qf6gp/4214r_5_m5.sdf

>  <i_m_source_file_index>  (108) 
4

>  <i_lp_mmshare_version>  (108) 
48012

>  <i_f3d_flags>  (108) 
0

>  <s_epik_input>  (108) 
bjFbY0hdW2NIXVtjSF1jKE4oQzI9TylbT0hdKWMxT2MoYzIzKW5bY0hdW2NIXVtjSF0z

>  <s_epik_cmdline>  (108) 
J2VwaWtfcHl0aG9uJywgJy1waHQnLCAnMi4wJywgJy1waCcsICc3LjAnLCAnLXRuJywgJzgnLCAnLW1hJywgJzIwMCcsICctaW1hZScsICc8aW5maWxlLm1hZT4nLCAnLW9tYWUnLCAnPG91dGZpbGUubWFlPic=

>  <r_lp_tautomer_probability>  (108) 
1

>  <r_epik_Ionization_Penalty>  (108) 
1.23314

>  <r_epik_Ionization_Penalty_Charging>  (108) 
1.05493

>  <r_epik_Ionization_Penalty_Neutral>  (108) 
0.178209

>  <r_epik_State_Penalty>  (108) 
1.10813

>  <r_epik_Charging_Adjusted_Penalty>  (108) 
2.16305

>  <i_epik_Tot_Q>  (108) 
-1

>  <i_epik_Tot_abs_Q>  (108) 
1

>  <s_lp_Force_Field>  (108) 
OPLS3e

>  <r_lp_Energy>  (108) 
60.0555

>  <b_lp_Chiralities_Consistent>  (108) 
1

>  <s_lp_Variant>  (108) 
33:0-2

>  <s_i_glide_gridfile>  (108) 
pfpi4k_grid

>  <i_i_glide_lignum>  (108) 
4

>  <i_i_glide_rotatable_bonds>  (108) 
0

>  <r_i_docking_score>  (108) 
-3.17241

>  <r_i_glide_ligand_efficiency>  (108) 
-0.186612

>  <r_i_glide_ligand_efficiency_sa>  (108) 
-0.479833

>  <r_i_glide_ligand_efficiency_ln>  (108) 
-0.827611

>  <r_i_glide_gscore>  (108) 
-3.17241

>  <r_i_glide_lipo>  (108) 
0

>  <r_i_glide_hbond>  (108) 
0

>  <r_i_glide_metal>  (108) 
-0

>  <r_i_glide_rewards>  (108) 
-1.85329

>  <r_i_glide_evdw>  (108) 
-15.6272

>  <r_i_glide_ecoul>  (108) 
-3.1563

>  <r_i_glide_erotb>  (108) 
0

>  <r_i_glide_esite>  (108) 
-0.0643085

>  <r_i_glide_emodel>  (108) 
-25.7383

>  <r_i_glide_energy>  (108) 
-18.7835

>  <r_i_glide_einternal>  (108) 
0

>  <r_i_glide_intrahb_reward>  (108) 
-0

>  <i_i_glide_confnum>  (108) 
1

>  <i_i_glide_posenum>  (108) 
22

>  <r_i_glide_eff_state_penalty>  (108) 
0

>  <ligand_id>  (108) 
33

>  <original_smiles>  (108) 
O=C1c2cccnc2Oc2ncccc2N1O

>  <smiles>  (108) 
[H]c1nc2c(c([H])c1[H])C(=O)N([O-])c1c(nc([H])c([H])c1[H])O2

$$$$
33:1:2
     RDKit          3D

 23 25  0  0  1  0  0  0  0  0999 V2000
   -2.7016    2.8456    3.5186 O   0  0  0  0  0  0  0  0  0  0  0  0
   -1.7408    2.6677    4.2753 C   0  0  0  0  0  0  0  0  0  0  0  0
   -0.4466    2.1954    3.6718 C   0  0  0  0  0  0  0  0  0  0  0  0
   -0.4626    1.4354    2.4796 C   0  0  0  0  0  0  0  0  0  0  0  0
    0.7537    1.1050    1.8585 C   0  0  0  0  0  0  0  0  0  0  0  0
    1.9497    1.5702    2.4341 C   0  0  0  0  0  0  0  0  0  0  0  0
    1.9879    2.2979    3.5668 N   0  0  0  0  0  0  0  0  0  0  0  0
    0.8184    2.6066    4.1661 C   0  0  0  0  0  0  0  0  0  0  0  0
    0.9592    3.3578    5.2966 O   0  0  0  0  0  0  0  0  0  0  0  0
    0.4765    2.7920    6.4403 C   0  0  0  0  0  0  0  0  0  0  0  0
    1.4166    2.5701    7.3941 N   0  0  0  0  0  0  0  0  0  0  0  0
    1.0213    1.9945    8.5440 C   0  0  0  0  0  0  0  0  0  0  0  0
   -0.3088    1.6189    8.8077 C   0  0  0  0  0  0  0  0  0  0  0  0
   -1.2854    1.8883    7.8250 C   0  0  0  0  0  0  0  0  0  0  0  0
   -0.8975    2.4874    6.6030 C   0  0  0  0  0  0  0  0  0  0  0  0
   -1.8786    2.8189    5.6139 N   0  0  0  0  0  0  0  0  0  0  0  0
   -2.9879    3.3161    6.2245 O   0  0  0  0  0  0  0  0  0  0  0  0
   -1.3939    1.1254    2.0254 H   0  0  0  0  0  0  0  0  0  0  0  0
    0.7654    0.5508    0.9296 H   0  0  0  0  0  0  0  0  0  0  0  0
    2.9046    1.3542    1.9706 H   0  0  0  0  0  0  0  0  0  0  0  0
    1.7917    1.8172    9.2781 H   0  0  0  0  0  0  0  0  0  0  0  0
   -0.5746    1.1614    9.7519 H   0  0  0  0  0  0  0  0  0  0  0  0
   -2.3220    1.6348    8.0153 H   0  0  0  0  0  0  0  0  0  0  0  0
  1  2  2  0
  2 16  1  0
  2  3  1  0
  3  8  2  0
  3  4  1  0
  4  5  2  0
  4 18  1  0
  5  6  1  0
  5 19  1  0
  6  7  2  0
  6 20  1  0
  7  8  1  0
  8  9  1  0
  9 10  1  0
 10 15  2  0
 10 11  1  0
 11 12  2  0
 12 13  1  0
 12 21  1  0
 13 14  2  0
 13 22  1  0
 14 15  1  0
 14 23  1  0
 15 16  1  0
 16 17  1  0
M  CHG  1  17  -1
M  END
>  <i_m_ct_stereo_status>  (109) 
1

>  <s_m_source_file>  (109) 
/var/tmp/pbs.5076255.sched01/tmpio9qf6gp/4214r_5_m5.sdf

>  <i_m_source_file_index>  (109) 
4

>  <i_lp_mmshare_version>  (109) 
48012

>  <i_f3d_flags>  (109) 
0

>  <s_epik_input>  (109) 
bjFbY0hdW2NIXVtjSF1jKE4oQzI9TylbT0hdKWMxT2MoYzIzKW5bY0hdW2NIXVtjSF0z

>  <s_epik_cmdline>  (109) 
J2VwaWtfcHl0aG9uJywgJy1waHQnLCAnMi4wJywgJy1waCcsICc3LjAnLCAnLXRuJywgJzgnLCAnLW1hJywgJzIwMCcsICctaW1hZScsICc8aW5maWxlLm1hZT4nLCAnLW9tYWUnLCAnPG91dGZpbGUubWFlPic=

>  <r_lp_tautomer_probability>  (109) 
1

>  <r_epik_Ionization_Penalty>  (109) 
1.23314

>  <r_epik_Ionization_Penalty_Charging>  (109) 
1.05493

>  <r_epik_Ionization_Penalty_Neutral>  (109) 
0.178209

>  <r_epik_State_Penalty>  (109) 
1.10813

>  <r_epik_Charging_Adjusted_Penalty>  (109) 
2.16305

>  <i_epik_Tot_Q>  (109) 
-1

>  <i_epik_Tot_abs_Q>  (109) 
1

>  <s_lp_Force_Field>  (109) 
OPLS3e

>  <r_lp_Energy>  (109) 
60.0555

>  <b_lp_Chiralities_Consistent>  (109) 
1

>  <s_lp_Variant>  (109) 
33:0-2

>  <s_i_glide_gridfile>  (109) 
pfpi4k_grid

>  <i_i_glide_lignum>  (109) 
4

>  <i_i_glide_rotatable_bonds>  (109) 
0

>  <r_i_docking_score>  (109) 
-3.05667

>  <r_i_glide_ligand_efficiency>  (109) 
-0.179804

>  <r_i_glide_ligand_efficiency_sa>  (109) 
-0.462327

>  <r_i_glide_ligand_efficiency_ln>  (109) 
-0.797418

>  <r_i_glide_gscore>  (109) 
-3.05667

>  <r_i_glide_lipo>  (109) 
-0.0470141

>  <r_i_glide_hbond>  (109) 
0

>  <r_i_glide_metal>  (109) 
-0

>  <r_i_glide_rewards>  (109) 
-1.91236

>  <r_i_glide_evdw>  (109) 
-17.7524

>  <r_i_glide_ecoul>  (109) 
-1.22949

>  <r_i_glide_erotb>  (109) 
0

>  <r_i_glide_esite>  (109) 
-0.0252578

>  <r_i_glide_emodel>  (109) 
-25.6597

>  <r_i_glide_energy>  (109) 
-18.9819

>  <r_i_glide_einternal>  (109) 
0

>  <r_i_glide_intrahb_reward>  (109) 
-0

>  <i_i_glide_confnum>  (109) 
1

>  <i_i_glide_posenum>  (109) 
3

>  <r_i_glide_eff_state_penalty>  (109) 
0

>  <ligand_id>  (109) 
33

>  <original_smiles>  (109) 
O=C1c2cccnc2Oc2ncccc2N1O

>  <smiles>  (109) 
[H]c1nc2c(c([H])c1[H])C(=O)N([O-])c1c(nc([H])c([H])c1[H])O2

$$$$
34:0:0
     RDKit          3D

 23 22  0  0  1  0  0  0  0  0999 V2000
    4.3997   -0.0053    1.3942 C   0  0  0  0  0  0  0  0  0  0  0  0
    3.8318   -0.9335    0.4923 O   0  0  0  0  0  0  0  0  0  0  0  0
    4.5565   -1.3687   -0.5460 C   0  0  0  0  0  0  0  0  0  0  0  0
    5.7288   -1.0654   -0.7798 O   0  0  0  0  0  0  0  0  0  0  0  0
    3.7085   -2.3060   -1.4209 C   0  0  2  0  0  0  0  0  0  0  0  0
    4.0424   -3.7105   -1.1742 N   0  0  0  0  0  0  0  0  0  0  0  0
    3.8552   -1.9804   -2.9169 C   0  0  0  0  0  0  0  0  0  0  0  0
    3.4413   -0.5440   -3.2921 C   0  0  0  0  0  0  0  0  0  0  0  0
    3.4237   -0.2578   -5.0826 S   0  0  0  0  0  0  0  0  0  0  0  0
    2.7241    1.3985   -5.1867 C   0  0  0  0  0  0  0  0  0  0  0  0
    3.6985    0.1969    2.2041 H   0  0  0  0  0  0  0  0  0  0  0  0
    4.5964    0.9339    0.8794 H   0  0  0  0  0  0  0  0  0  0  0  0
    5.3313   -0.3777    1.8242 H   0  0  0  0  0  0  0  0  0  0  0  0
    2.6593   -2.1546   -1.1551 H   0  0  0  0  0  0  0  0  0  0  0  0
    3.8213   -3.9794   -0.2254 H   0  0  0  0  0  0  0  0  0  0  0  0
    3.5395   -4.3630   -1.7742 H   0  0  0  0  0  0  0  0  0  0  0  0
    4.8735   -2.1748   -3.2457 H   0  0  0  0  0  0  0  0  0  0  0  0
    3.2214   -2.6753   -3.4685 H   0  0  0  0  0  0  0  0  0  0  0  0
    2.4578   -0.3278   -2.8795 H   0  0  0  0  0  0  0  0  0  0  0  0
    4.1215    0.1835   -2.8462 H   0  0  0  0  0  0  0  0  0  0  0  0
    2.6017    1.7000   -6.2190 H   0  0  0  0  0  0  0  0  0  0  0  0
    3.3935    2.1211   -4.7305 H   0  0  0  0  0  0  0  0  0  0  0  0
    1.7415    1.4223   -4.7258 H   0  0  0  0  0  0  0  0  0  0  0  0
  1  2  1  0
  1 11  1  0
  1 12  1  0
  1 13  1  0
  2  3  1  0
  3  4  2  0
  3  5  1  0
  5  6  1  0
  5  7  1  0
  5 14  1  1
  6 15  1  0
  6 16  1  0
  7  8  1  0
  7 17  1  0
  7 18  1  0
  8  9  1  0
  8 19  1  0
  8 20  1  0
  9 10  1  0
 10 21  1  0
 10 22  1  0
 10 23  1  0
M  END
>  <i_m_ct_stereo_status>  (110) 
1

>  <s_m_source_file>  (110) 
/var/tmp/pbs.5076255.sched01/tmpio9qf6gp/4214r_5_m5.sdf

>  <i_m_source_file_index>  (110) 
5

>  <i_lp_mmshare_version>  (110) 
48012

>  <i_f3d_flags>  (110) 
0

>  <s_epik_input>  (110) 
W0NIM11PQyg9TylbQ0BIXShbTkgyXSlbQ0gyXVtDSDJdU1tDSDNd

>  <s_epik_cmdline>  (110) 
J2VwaWtfcHl0aG9uJywgJy1waHQnLCAnMi4wJywgJy1waCcsICc3LjAnLCAnLXRuJywgJzgnLCAnLW1hJywgJzIwMCcsICctaW1hZScsICc8aW5maWxlLm1hZT4nLCAnLW9tYWUnLCAnPG91dGZpbGUubWFlPic=

>  <r_epik_Ionization_Penalty>  (110) 
0.284503

>  <r_epik_Ionization_Penalty_Charging>  (110) 
0

>  <r_epik_Ionization_Penalty_Neutral>  (110) 
0.284503

>  <r_epik_State_Penalty>  (110) 
0.277243

>  <r_epik_Charging_Adjusted_Penalty>  (110) 
0.277243

>  <i_epik_Tot_Q>  (110) 
0

>  <i_epik_Tot_abs_Q>  (110) 
0

>  <s_epik_Chemistry_Notes>  (110) 
This compound has an ester and may undergo hydrolysis at high or low pH.

>  <s_lp_Force_Field>  (110) 
OPLS3e

>  <r_lp_Energy>  (110) 
7.42497

>  <b_lp_Chiralities_Consistent>  (110) 
1

>  <s_lp_Variant>  (110) 
34:0-1

>  <s_i_glide_gridfile>  (110) 
pfpi4k_grid

>  <i_i_glide_lignum>  (110) 
5

>  <i_i_glide_rotatable_bonds>  (110) 
5

>  <r_i_docking_score>  (110) 
-2.91961

>  <r_i_glide_ligand_efficiency>  (110) 
-0.291961

>  <r_i_glide_ligand_efficiency_sa>  (110) 
-0.62901

>  <r_i_glide_ligand_efficiency_ln>  (110) 
-0.884037

>  <r_i_glide_gscore>  (110) 
-2.91961

>  <r_i_glide_lipo>  (110) 
-0.400024

>  <r_i_glide_hbond>  (110) 
-0.351028

>  <r_i_glide_metal>  (110) 
-0

>  <r_i_glide_rewards>  (110) 
-2.25

>  <r_i_glide_evdw>  (110) 
-18.2493

>  <r_i_glide_ecoul>  (110) 
-4.53066

>  <r_i_glide_erotb>  (110) 
1.71046

>  <r_i_glide_esite>  (110) 
-0.0369506

>  <r_i_glide_emodel>  (110) 
-26.808

>  <r_i_glide_energy>  (110) 
-22.78

>  <r_i_glide_einternal>  (110) 
1.40953

>  <r_i_glide_intrahb_reward>  (110) 
-0

>  <i_i_glide_confnum>  (110) 
3

>  <i_i_glide_posenum>  (110) 
19

>  <r_i_glide_eff_state_penalty>  (110) 
0

>  <ligand_id>  (110) 
34

>  <original_smiles>  (110) 
COC(=O)C(N)CCSC

>  <smiles>  (110) 
[H]N([H])C([H])(C(=O)OC([H])([H])[H])C([H])([H])C([H])([H])SC([H])([H])[H]

$$$$
34:0:1
     RDKit          3D

 23 22  0  0  1  0  0  0  0  0999 V2000
   -4.5232    3.4837    2.0759 C   0  0  0  0  0  0  0  0  0  0  0  0
   -3.3754    2.9466    2.6985 O   0  0  0  0  0  0  0  0  0  0  0  0
   -2.3460    3.7288    3.0030 C   0  0  0  0  0  0  0  0  0  0  0  0
   -2.3445    4.9438    2.8718 O   0  0  0  0  0  0  0  0  0  0  0  0
   -1.1514    2.9245    3.5524 C   0  0  2  0  0  0  0  0  0  0  0  0
   -0.5445    2.1054    2.5049 N   0  0  0  0  0  0  0  0  0  0  0  0
   -1.5217    2.0581    4.7786 C   0  0  0  0  0  0  0  0  0  0  0  0
   -2.0092    2.8649    5.9981 C   0  0  0  0  0  0  0  0  0  0  0  0
   -2.1855    1.8570    7.4944 S   0  0  0  0  0  0  0  0  0  0  0  0
   -2.8288    3.1025    8.6449 C   0  0  0  0  0  0  0  0  0  0  0  0
   -5.2312    2.6805    1.8793 H   0  0  0  0  0  0  0  0  0  0  0  0
   -4.2695    3.9452    1.1209 H   0  0  0  0  0  0  0  0  0  0  0  0
   -5.0070    4.2250    2.7154 H   0  0  0  0  0  0  0  0  0  0  0  0
   -0.4002    3.6516    3.8671 H   0  0  0  0  0  0  0  0  0  0  0  0
   -0.1943    2.7272    1.7709 H   0  0  0  0  0  0  0  0  0  0  0  0
    0.2449    1.5590    2.8153 H   0  0  0  0  0  0  0  0  0  0  0  0
   -2.2683    1.3147    4.4954 H   0  0  0  0  0  0  0  0  0  0  0  0
   -0.6330    1.4991    5.0739 H   0  0  0  0  0  0  0  0  0  0  0  0
   -1.3136    3.6763    6.2182 H   0  0  0  0  0  0  0  0  0  0  0  0
   -2.9749    3.3251    5.7816 H   0  0  0  0  0  0  0  0  0  0  0  0
   -3.0176    2.6597    9.6224 H   0  0  0  0  0  0  0  0  0  0  0  0
   -3.7658    3.5169    8.2775 H   0  0  0  0  0  0  0  0  0  0  0  0
   -2.1147    3.9155    8.7699 H   0  0  0  0  0  0  0  0  0  0  0  0
  1  2  1  0
  1 11  1  0
  1 12  1  0
  1 13  1  0
  2  3  1  0
  3  4  2  0
  3  5  1  0
  5  6  1  0
  5  7  1  0
  5 14  1  1
  6 15  1  0
  6 16  1  0
  7  8  1  0
  7 17  1  0
  7 18  1  0
  8  9  1  0
  8 19  1  0
  8 20  1  0
  9 10  1  0
 10 21  1  0
 10 22  1  0
 10 23  1  0
M  END
>  <i_m_ct_stereo_status>  (111) 
1

>  <s_m_source_file>  (111) 
/var/tmp/pbs.5076255.sched01/tmpio9qf6gp/4214r_5_m5.sdf

>  <i_m_source_file_index>  (111) 
5

>  <i_lp_mmshare_version>  (111) 
48012

>  <i_f3d_flags>  (111) 
0

>  <s_epik_input>  (111) 
W0NIM11PQyg9TylbQ0BIXShbTkgyXSlbQ0gyXVtDSDJdU1tDSDNd

>  <s_epik_cmdline>  (111) 
J2VwaWtfcHl0aG9uJywgJy1waHQnLCAnMi4wJywgJy1waCcsICc3LjAnLCAnLXRuJywgJzgnLCAnLW1hJywgJzIwMCcsICctaW1hZScsICc8aW5maWxlLm1hZT4nLCAnLW9tYWUnLCAnPG91dGZpbGUubWFlPic=

>  <r_epik_Ionization_Penalty>  (111) 
0.284503

>  <r_epik_Ionization_Penalty_Charging>  (111) 
0

>  <r_epik_Ionization_Penalty_Neutral>  (111) 
0.284503

>  <r_epik_State_Penalty>  (111) 
0.277243

>  <r_epik_Charging_Adjusted_Penalty>  (111) 
0.277243

>  <i_epik_Tot_Q>  (111) 
0

>  <i_epik_Tot_abs_Q>  (111) 
0

>  <s_epik_Chemistry_Notes>  (111) 
This compound has an ester and may undergo hydrolysis at high or low pH.

>  <s_lp_Force_Field>  (111) 
OPLS3e

>  <r_lp_Energy>  (111) 
7.42497

>  <b_lp_Chiralities_Consistent>  (111) 
1

>  <s_lp_Variant>  (111) 
34:0-1

>  <s_i_glide_gridfile>  (111) 
pfpi4k_grid

>  <i_i_glide_lignum>  (111) 
5

>  <i_i_glide_rotatable_bonds>  (111) 
5

>  <r_i_docking_score>  (111) 
-2.80257

>  <r_i_glide_ligand_efficiency>  (111) 
-0.280257

>  <r_i_glide_ligand_efficiency_sa>  (111) 
-0.603795

>  <r_i_glide_ligand_efficiency_ln>  (111) 
-0.848598

>  <r_i_glide_gscore>  (111) 
-2.80257

>  <r_i_glide_lipo>  (111) 
-0.354269

>  <r_i_glide_hbond>  (111) 
-0.32

>  <r_i_glide_metal>  (111) 
-0

>  <r_i_glide_rewards>  (111) 
-2.25

>  <r_i_glide_evdw>  (111) 
-14.6916

>  <r_i_glide_ecoul>  (111) 
-5.17677

>  <r_i_glide_erotb>  (111) 
1.71046

>  <r_i_glide_esite>  (111) 
-0.0776642

>  <r_i_glide_emodel>  (111) 
-24.2591

>  <r_i_glide_energy>  (111) 
-19.8684

>  <r_i_glide_einternal>  (111) 
0.330025

>  <r_i_glide_intrahb_reward>  (111) 
-0

>  <i_i_glide_confnum>  (111) 
1

>  <i_i_glide_posenum>  (111) 
2

>  <r_i_glide_eff_state_penalty>  (111) 
0

>  <ligand_id>  (111) 
34

>  <original_smiles>  (111) 
COC(=O)C(N)CCSC

>  <smiles>  (111) 
[H]N([H])C([H])(C(=O)OC([H])([H])[H])C([H])([H])C([H])([H])SC([H])([H])[H]

$$$$
34:0:2
     RDKit          3D

 23 22  0  0  1  0  0  0  0  0999 V2000
    7.4371   -3.0438   -1.7923 C   0  0  0  0  0  0  0  0  0  0  0  0
    6.0468   -3.3035   -1.7294 O   0  0  0  0  0  0  0  0  0  0  0  0
    5.2353   -2.4013   -1.1536 C   0  0  0  0  0  0  0  0  0  0  0  0
    5.5961   -1.3017   -0.7336 O   0  0  0  0  0  0  0  0  0  0  0  0
    3.7880   -2.9283   -1.0896 C   0  0  2  0  0  0  0  0  0  0  0  0
    3.7228   -4.1606   -0.2907 N   0  0  0  0  0  0  0  0  0  0  0  0
    3.1741   -3.1897   -2.4899 C   0  0  0  0  0  0  0  0  0  0  0  0
    2.7893   -1.9285   -3.2777 C   0  0  0  0  0  0  0  0  0  0  0  0
    4.1711   -1.0713   -4.0745 S   0  0  0  0  0  0  0  0  0  0  0  0
    3.3110    0.2338   -4.9780 C   0  0  0  0  0  0  0  0  0  0  0  0
    7.9423   -3.8495   -2.3208 H   0  0  0  0  0  0  0  0  0  0  0  0
    7.8510   -2.9715   -0.7869 H   0  0  0  0  0  0  0  0  0  0  0  0
    7.6422   -2.1122   -2.3232 H   0  0  0  0  0  0  0  0  0  0  0  0
    3.1647   -2.1831   -0.5866 H   0  0  0  0  0  0  0  0  0  0  0  0
    3.9492   -4.0059    0.6810 H   0  0  0  0  0  0  0  0  0  0  0  0
    2.8073   -4.5986   -0.3151 H   0  0  0  0  0  0  0  0  0  0  0  0
    3.8136   -3.8352   -3.0947 H   0  0  0  0  0  0  0  0  0  0  0  0
    2.2540   -3.7581   -2.3587 H   0  0  0  0  0  0  0  0  0  0  0  0
    2.1067   -2.2186   -4.0708 H   0  0  0  0  0  0  0  0  0  0  0  0
    2.2301   -1.2485   -2.6345 H   0  0  0  0  0  0  0  0  0  0  0  0
    4.0347    0.9069   -5.4338 H   0  0  0  0  0  0  0  0  0  0  0  0
    2.6733    0.8164   -4.3197 H   0  0  0  0  0  0  0  0  0  0  0  0
    2.7002   -0.2014   -5.7622 H   0  0  0  0  0  0  0  0  0  0  0  0
  1  2  1  0
  1 11  1  0
  1 12  1  0
  1 13  1  0
  2  3  1  0
  3  4  2  0
  3  5  1  0
  5  6  1  0
  5  7  1  0
  5 14  1  1
  6 15  1  0
  6 16  1  0
  7  8  1  0
  7 17  1  0
  7 18  1  0
  8  9  1  0
  8 19  1  0
  8 20  1  0
  9 10  1  0
 10 21  1  0
 10 22  1  0
 10 23  1  0
M  END
>  <i_m_ct_stereo_status>  (112) 
1

>  <s_m_source_file>  (112) 
/var/tmp/pbs.5076255.sched01/tmpio9qf6gp/4214r_5_m5.sdf

>  <i_m_source_file_index>  (112) 
5

>  <i_lp_mmshare_version>  (112) 
48012

>  <i_f3d_flags>  (112) 
0

>  <s_epik_input>  (112) 
W0NIM11PQyg9TylbQ0BIXShbTkgyXSlbQ0gyXVtDSDJdU1tDSDNd

>  <s_epik_cmdline>  (112) 
J2VwaWtfcHl0aG9uJywgJy1waHQnLCAnMi4wJywgJy1waCcsICc3LjAnLCAnLXRuJywgJzgnLCAnLW1hJywgJzIwMCcsICctaW1hZScsICc8aW5maWxlLm1hZT4nLCAnLW9tYWUnLCAnPG91dGZpbGUubWFlPic=

>  <r_epik_Ionization_Penalty>  (112) 
0.284503

>  <r_epik_Ionization_Penalty_Charging>  (112) 
0

>  <r_epik_Ionization_Penalty_Neutral>  (112) 
0.284503

>  <r_epik_State_Penalty>  (112) 
0.277243

>  <r_epik_Charging_Adjusted_Penalty>  (112) 
0.277243

>  <i_epik_Tot_Q>  (112) 
0

>  <i_epik_Tot_abs_Q>  (112) 
0

>  <s_epik_Chemistry_Notes>  (112) 
This compound has an ester and may undergo hydrolysis at high or low pH.

>  <s_lp_Force_Field>  (112) 
OPLS3e

>  <r_lp_Energy>  (112) 
7.42497

>  <b_lp_Chiralities_Consistent>  (112) 
1

>  <s_lp_Variant>  (112) 
34:0-1

>  <s_i_glide_gridfile>  (112) 
pfpi4k_grid

>  <i_i_glide_lignum>  (112) 
5

>  <i_i_glide_rotatable_bonds>  (112) 
5

>  <r_i_docking_score>  (112) 
-2.09813

>  <r_i_glide_ligand_efficiency>  (112) 
-0.209813

>  <r_i_glide_ligand_efficiency_sa>  (112) 
-0.452028

>  <r_i_glide_ligand_efficiency_ln>  (112) 
-0.635298

>  <r_i_glide_gscore>  (112) 
-2.09813

>  <r_i_glide_lipo>  (112) 
-0.270446

>  <r_i_glide_hbond>  (112) 
0

>  <r_i_glide_metal>  (112) 
-0

>  <r_i_glide_rewards>  (112) 
-2.25

>  <r_i_glide_evdw>  (112) 
-18.5272

>  <r_i_glide_ecoul>  (112) 
-2.29503

>  <r_i_glide_erotb>  (112) 
1.71046

>  <r_i_glide_esite>  (112) 
-0.0175287

>  <r_i_glide_emodel>  (112) 
-23.2881

>  <r_i_glide_energy>  (112) 
-20.8222

>  <r_i_glide_einternal>  (112) 
1.83952

>  <r_i_glide_intrahb_reward>  (112) 
-0

>  <i_i_glide_confnum>  (112) 
4

>  <i_i_glide_posenum>  (112) 
16

>  <r_i_glide_eff_state_penalty>  (112) 
0

>  <ligand_id>  (112) 
34

>  <original_smiles>  (112) 
COC(=O)C(N)CCSC

>  <smiles>  (112) 
[H]N([H])C([H])(C(=O)OC([H])([H])[H])C([H])([H])C([H])([H])SC([H])([H])[H]

$$$$
34:1:0
     RDKit          3D

 24 23  0  0  1  0  0  0  0  0999 V2000
    5.7411   -3.2204    0.9189 C   0  0  0  0  0  0  0  0  0  0  0  0
    4.5236   -2.9485    0.2447 O   0  0  0  0  0  0  0  0  0  0  0  0
    4.5301   -2.8408   -1.0970 C   0  0  0  0  0  0  0  0  0  0  0  0
    5.5367   -2.9441   -1.8013 O   0  0  0  0  0  0  0  0  0  0  0  0
    3.1092   -2.5795   -1.6253 C   0  0  2  0  0  0  0  0  0  0  0  0
    2.3436   -3.8171   -1.3968 N   0  0  0  0  0  0  0  0  0  0  0  0
    3.0521   -2.1687   -3.1117 C   0  0  0  0  0  0  0  0  0  0  0  0
    3.2831   -0.6646   -3.3280 C   0  0  0  0  0  0  0  0  0  0  0  0
    3.4167   -0.2552   -5.0876 S   0  0  0  0  0  0  0  0  0  0  0  0
    2.7748    1.4295   -5.1224 C   0  0  0  0  0  0  0  0  0  0  0  0
    5.5702   -3.2578    1.9941 H   0  0  0  0  0  0  0  0  0  0  0  0
    6.4855   -2.4482    0.7149 H   0  0  0  0  0  0  0  0  0  0  0  0
    6.1472   -4.1827    0.6018 H   0  0  0  0  0  0  0  0  0  0  0  0
    2.6645   -1.7884   -1.0215 H   0  0  0  0  0  0  0  0  0  0  0  0
    2.4053   -4.0367   -0.4170 H   0  0  0  0  0  0  0  0  0  0  0  0
    2.7244   -4.5893   -1.9399 H   0  0  0  0  0  0  0  0  0  0  0  0
    3.7516   -2.7713   -3.6930 H   0  0  0  0  0  0  0  0  0  0  0  0
    2.0720   -2.4146   -3.5253 H   0  0  0  0  0  0  0  0  0  0  0  0
    2.4536   -0.1253   -2.8706 H   0  0  0  0  0  0  0  0  0  0  0  0
    4.1827   -0.3275   -2.8098 H   0  0  0  0  0  0  0  0  0  0  0  0
    2.7111    1.7717   -6.1470 H   0  0  0  0  0  0  0  0  0  0  0  0
    3.4371    2.0871   -4.5598 H   0  0  0  0  0  0  0  0  0  0  0  0
    1.7622    1.4438   -4.7221 H   0  0  0  0  0  0  0  0  0  0  0  0
    1.3911   -3.6637   -1.6827 H   0  0  0  0  0  0  0  0  0  0  0  0
  1  2  1  0
  1 11  1  0
  1 12  1  0
  1 13  1  0
  2  3  1  0
  3  4  2  0
  3  5  1  0
  5  6  1  0
  5  7  1  0
  5 14  1  1
  6 15  1  0
  6 16  1  0
  6 24  1  0
  7  8  1  0
  7 17  1  0
  7 18  1  0
  8  9  1  0
  8 19  1  0
  8 20  1  0
  9 10  1  0
 10 21  1  0
 10 22  1  0
 10 23  1  0
M  CHG  1   6   1
M  END
>  <i_m_ct_stereo_status>  (113) 
1

>  <s_m_source_file>  (113) 
/var/tmp/pbs.5076255.sched01/tmpio9qf6gp/4214r_5_m5.sdf

>  <i_m_source_file_index>  (113) 
6

>  <i_lp_mmshare_version>  (113) 
48012

>  <i_f3d_flags>  (113) 
0

>  <s_epik_input>  (113) 
W0NIM11PQyg9TylbQ0BIXShbTkgyXSlbQ0gyXVtDSDJdU1tDSDNd

>  <s_epik_cmdline>  (113) 
J2VwaWtfcHl0aG9uJywgJy1waHQnLCAnMi4wJywgJy1waCcsICc3LjAnLCAnLXRuJywgJzgnLCAnLW1hJywgJzIwMCcsICctaW1hZScsICc8aW5maWxlLm1hZT4nLCAnLW9tYWUnLCAnPG91dGZpbGUubWFlPic=

>  <r_epik_Ionization_Penalty>  (113) 
0.571207

>  <r_epik_Ionization_Penalty_Charging>  (113) 
0.571207

>  <r_epik_Ionization_Penalty_Neutral>  (113) 
0

>  <r_epik_State_Penalty>  (113) 
0.583179

>  <r_epik_Charging_Adjusted_Penalty>  (113) 
1.15439

>  <i_epik_Tot_Q>  (113) 
1

>  <i_epik_Tot_abs_Q>  (113) 
1

>  <s_epik_Chemistry_Notes>  (113) 
This compound has an ester and may undergo hydrolysis at high or low pH.

>  <s_lp_Force_Field>  (113) 
OPLS3e

>  <r_lp_Energy>  (113) 
9.70625

>  <b_lp_Chiralities_Consistent>  (113) 
1

>  <s_lp_Variant>  (113) 
34:0-2

>  <s_i_glide_gridfile>  (113) 
pfpi4k_grid

>  <i_i_glide_lignum>  (113) 
6

>  <i_i_glide_rotatable_bonds>  (113) 
5

>  <r_i_docking_score>  (113) 
-3.08008

>  <r_i_glide_ligand_efficiency>  (113) 
-0.308008

>  <r_i_glide_ligand_efficiency_sa>  (113) 
-0.663583

>  <r_i_glide_ligand_efficiency_ln>  (113) 
-0.932627

>  <r_i_glide_gscore>  (113) 
-3.08008

>  <r_i_glide_lipo>  (113) 
-0.379919

>  <r_i_glide_hbond>  (113) 
0

>  <r_i_glide_metal>  (113) 
-0

>  <r_i_glide_rewards>  (113) 
-2.25

>  <r_i_glide_evdw>  (113) 
-15.3022

>  <r_i_glide_ecoul>  (113) 
-9.08295

>  <r_i_glide_erotb>  (113) 
1.69348

>  <r_i_glide_esite>  (113) 
-0.0160894

>  <r_i_glide_emodel>  (113) 
-29.1613

>  <r_i_glide_energy>  (113) 
-24.3851

>  <r_i_glide_einternal>  (113) 
1.51373

>  <r_i_glide_intrahb_reward>  (113) 
-0

>  <i_i_glide_confnum>  (113) 
2

>  <i_i_glide_posenum>  (113) 
13

>  <r_i_glide_eff_state_penalty>  (113) 
0

>  <ligand_id>  (113) 
34

>  <original_smiles>  (113) 
COC(=O)C(N)CCSC

>  <smiles>  (113) 
[H]C([H])([H])OC(=O)C([H])(C([H])([H])C([H])([H])SC([H])([H])[H])[N+]([H])([H])[H]

$$$$
34:1:1
     RDKit          3D

 24 23  0  0  1  0  0  0  0  0999 V2000
    6.9054   -3.2758   -1.5867 C   0  0  0  0  0  0  0  0  0  0  0  0
    5.5196   -3.1662   -1.8375 O   0  0  0  0  0  0  0  0  0  0  0  0
    4.7482   -2.4502   -1.0150 C   0  0  0  0  0  0  0  0  0  0  0  0
    5.1365   -1.8875    0.0102 O   0  0  0  0  0  0  0  0  0  0  0  0
    3.3004   -2.4270   -1.5090 C   0  0  2  0  0  0  0  0  0  0  0  0
    2.7258   -3.7446   -1.2059 N   0  0  0  0  0  0  0  0  0  0  0  0
    3.1542   -2.0823   -3.0074 C   0  0  0  0  0  0  0  0  0  0  0  0
    3.3279   -0.5823   -3.2913 C   0  0  0  0  0  0  0  0  0  0  0  0
    3.4220   -0.2492   -5.0696 S   0  0  0  0  0  0  0  0  0  0  0  0
    2.7498    1.4199   -5.1432 C   0  0  0  0  0  0  0  0  0  0  0  0
    7.3680   -3.8084   -2.4145 H   0  0  0  0  0  0  0  0  0  0  0  0
    7.1042   -3.8284   -0.6679 H   0  0  0  0  0  0  0  0  0  0  0  0
    7.3804   -2.2984   -1.5132 H   0  0  0  0  0  0  0  0  0  0  0  0
    2.7686   -1.6790   -0.9226 H   0  0  0  0  0  0  0  0  0  0  0  0
    2.8031   -3.9254   -0.2163 H   0  0  0  0  0  0  0  0  0  0  0  0
    3.2104   -4.4812   -1.7192 H   0  0  0  0  0  0  0  0  0  0  0  0
    3.8399   -2.6752   -3.6224 H   0  0  0  0  0  0  0  0  0  0  0  0
    2.1576   -2.3661   -3.3520 H   0  0  0  0  0  0  0  0  0  0  0  0
    2.4796   -0.0500   -2.8504 H   0  0  0  0  0  0  0  0  0  0  0  0
    4.2278   -0.1883   -2.8104 H   0  0  0  0  0  0  0  0  0  0  0  0
    2.6357    1.7173   -6.1805 H   0  0  0  0  0  0  0  0  0  0  0  0
    3.4052    2.1303   -4.6349 H   0  0  0  0  0  0  0  0  0  0  0  0
    1.7500    1.4408   -4.7209 H   0  0  0  0  0  0  0  0  0  0  0  0
    1.7591   -3.7406   -1.4890 H   0  0  0  0  0  0  0  0  0  0  0  0
  1  2  1  0
  1 11  1  0
  1 12  1  0
  1 13  1  0
  2  3  1  0
  3  4  2  0
  3  5  1  0
  5  6  1  0
  5  7  1  0
  5 14  1  1
  6 15  1  0
  6 16  1  0
  6 24  1  0
  7  8  1  0
  7 17  1  0
  7 18  1  0
  8  9  1  0
  8 19  1  0
  8 20  1  0
  9 10  1  0
 10 21  1  0
 10 22  1  0
 10 23  1  0
M  CHG  1   6   1
M  END
>  <i_m_ct_stereo_status>  (114) 
1

>  <s_m_source_file>  (114) 
/var/tmp/pbs.5076255.sched01/tmpio9qf6gp/4214r_5_m5.sdf

>  <i_m_source_file_index>  (114) 
6

>  <i_lp_mmshare_version>  (114) 
48012

>  <i_f3d_flags>  (114) 
0

>  <s_epik_input>  (114) 
W0NIM11PQyg9TylbQ0BIXShbTkgyXSlbQ0gyXVtDSDJdU1tDSDNd

>  <s_epik_cmdline>  (114) 
J2VwaWtfcHl0aG9uJywgJy1waHQnLCAnMi4wJywgJy1waCcsICc3LjAnLCAnLXRuJywgJzgnLCAnLW1hJywgJzIwMCcsICctaW1hZScsICc8aW5maWxlLm1hZT4nLCAnLW9tYWUnLCAnPG91dGZpbGUubWFlPic=

>  <r_epik_Ionization_Penalty>  (114) 
0.571207

>  <r_epik_Ionization_Penalty_Charging>  (114) 
0.571207

>  <r_epik_Ionization_Penalty_Neutral>  (114) 
0

>  <r_epik_State_Penalty>  (114) 
0.583179

>  <r_epik_Charging_Adjusted_Penalty>  (114) 
1.15439

>  <i_epik_Tot_Q>  (114) 
1

>  <i_epik_Tot_abs_Q>  (114) 
1

>  <s_epik_Chemistry_Notes>  (114) 
This compound has an ester and may undergo hydrolysis at high or low pH.

>  <s_lp_Force_Field>  (114) 
OPLS3e

>  <r_lp_Energy>  (114) 
9.70625

>  <b_lp_Chiralities_Consistent>  (114) 
1

>  <s_lp_Variant>  (114) 
34:0-2

>  <s_i_glide_gridfile>  (114) 
pfpi4k_grid

>  <i_i_glide_lignum>  (114) 
6

>  <i_i_glide_rotatable_bonds>  (114) 
5

>  <r_i_docking_score>  (114) 
-2.88032

>  <r_i_glide_ligand_efficiency>  (114) 
-0.288032

>  <r_i_glide_ligand_efficiency_sa>  (114) 
-0.620546

>  <r_i_glide_ligand_efficiency_ln>  (114) 
-0.872141

>  <r_i_glide_gscore>  (114) 
-2.88032

>  <r_i_glide_lipo>  (114) 
-0.39398

>  <r_i_glide_hbond>  (114) 
0

>  <r_i_glide_metal>  (114) 
-0

>  <r_i_glide_rewards>  (114) 
-2.25

>  <r_i_glide_evdw>  (114) 
-16.5406

>  <r_i_glide_ecoul>  (114) 
-7.21781

>  <r_i_glide_erotb>  (114) 
1.69348

>  <r_i_glide_esite>  (114) 
-0.0201175

>  <r_i_glide_emodel>  (114) 
-28.1571

>  <r_i_glide_energy>  (114) 
-23.7585

>  <r_i_glide_einternal>  (114) 
1.357

>  <r_i_glide_intrahb_reward>  (114) 
-0

>  <i_i_glide_confnum>  (114) 
1

>  <i_i_glide_posenum>  (114) 
7

>  <r_i_glide_eff_state_penalty>  (114) 
0

>  <ligand_id>  (114) 
34

>  <original_smiles>  (114) 
COC(=O)C(N)CCSC

>  <smiles>  (114) 
[H]C([H])([H])OC(=O)C([H])(C([H])([H])C([H])([H])SC([H])([H])[H])[N+]([H])([H])[H]

$$$$
34:1:2
     RDKit          3D

 24 23  0  0  1  0  0  0  0  0999 V2000
    7.8479   -2.8756   -1.3073 C   0  0  0  0  0  0  0  0  0  0  0  0
    6.4579   -2.6681   -1.0734 O   0  0  0  0  0  0  0  0  0  0  0  0
    5.5585   -2.9498   -2.0430 C   0  0  0  0  0  0  0  0  0  0  0  0
    5.8082   -3.4742   -3.1206 O   0  0  0  0  0  0  0  0  0  0  0  0
    4.1445   -2.5450   -1.6030 C   0  0  2  0  0  0  0  0  0  0  0  0
    3.5528   -3.7355   -0.9727 N   0  0  0  0  0  0  0  0  0  0  0  0
    3.2670   -2.0745   -2.7682 C   0  0  0  0  0  0  0  0  0  0  0  0
    3.7748   -0.7837   -3.4284 C   0  0  0  0  0  0  0  0  0  0  0  0
    2.6687   -0.1726   -4.7201 S   0  0  0  0  0  0  0  0  0  0  0  0
    3.4912    1.3556   -5.1599 C   0  0  0  0  0  0  0  0  0  0  0  0
    8.4148   -2.7007   -0.3923 H   0  0  0  0  0  0  0  0  0  0  0  0
    8.2036   -2.2056   -2.0805 H   0  0  0  0  0  0  0  0  0  0  0  0
    8.0562   -3.8812   -1.6393 H   0  0  0  0  0  0  0  0  0  0  0  0
    4.2106   -1.7333   -0.8782 H   0  0  0  0  0  0  0  0  0  0  0  0
    4.1388   -4.0445   -0.2129 H   0  0  0  0  0  0  0  0  0  0  0  0
    3.4595   -4.5012   -1.6402 H   0  0  0  0  0  0  0  0  0  0  0  0
    3.1535   -2.8556   -3.5264 H   0  0  0  0  0  0  0  0  0  0  0  0
    2.2541   -1.8940   -2.3934 H   0  0  0  0  0  0  0  0  0  0  0  0
    3.9053    0.0039   -2.6855 H   0  0  0  0  0  0  0  0  0  0  0  0
    4.7467   -0.9578   -3.8841 H   0  0  0  0  0  0  0  0  0  0  0  0
    2.8732    1.8898   -5.8816 H   0  0  0  0  0  0  0  0  0  0  0  0
    4.4389    1.0939   -5.6151 H   0  0  0  0  0  0  0  0  0  0  0  0
    3.6967    2.0112   -4.3165 H   0  0  0  0  0  0  0  0  0  0  0  0
    2.6321   -3.5117   -0.6281 H   0  0  0  0  0  0  0  0  0  0  0  0
  1  2  1  0
  1 11  1  0
  1 12  1  0
  1 13  1  0
  2  3  1  0
  3  4  2  0
  3  5  1  0
  5  6  1  0
  5  7  1  0
  5 14  1  1
  6 15  1  0
  6 16  1  0
  6 24  1  0
  7  8  1  0
  7 17  1  0
  7 18  1  0
  8  9  1  0
  8 19  1  0
  8 20  1  0
  9 10  1  0
 10 21  1  0
 10 22  1  0
 10 23  1  0
M  CHG  1   6   1
M  END
>  <i_m_ct_stereo_status>  (115) 
1

>  <s_m_source_file>  (115) 
/var/tmp/pbs.5076255.sched01/tmpio9qf6gp/4214r_5_m5.sdf

>  <i_m_source_file_index>  (115) 
6

>  <i_lp_mmshare_version>  (115) 
48012

>  <i_f3d_flags>  (115) 
0

>  <s_epik_input>  (115) 
W0NIM11PQyg9TylbQ0BIXShbTkgyXSlbQ0gyXVtDSDJdU1tDSDNd

>  <s_epik_cmdline>  (115) 
J2VwaWtfcHl0aG9uJywgJy1waHQnLCAnMi4wJywgJy1waCcsICc3LjAnLCAnLXRuJywgJzgnLCAnLW1hJywgJzIwMCcsICctaW1hZScsICc8aW5maWxlLm1hZT4nLCAnLW9tYWUnLCAnPG91dGZpbGUubWFlPic=

>  <r_epik_Ionization_Penalty>  (115) 
0.571207

>  <r_epik_Ionization_Penalty_Charging>  (115) 
0.571207

>  <r_epik_Ionization_Penalty_Neutral>  (115) 
0

>  <r_epik_State_Penalty>  (115) 
0.583179

>  <r_epik_Charging_Adjusted_Penalty>  (115) 
1.15439

>  <i_epik_Tot_Q>  (115) 
1

>  <i_epik_Tot_abs_Q>  (115) 
1

>  <s_epik_Chemistry_Notes>  (115) 
This compound has an ester and may undergo hydrolysis at high or low pH.

>  <s_lp_Force_Field>  (115) 
OPLS3e

>  <r_lp_Energy>  (115) 
9.70625

>  <b_lp_Chiralities_Consistent>  (115) 
1

>  <s_lp_Variant>  (115) 
34:0-2

>  <s_i_glide_gridfile>  (115) 
pfpi4k_grid

>  <i_i_glide_lignum>  (115) 
6

>  <i_i_glide_rotatable_bonds>  (115) 
5

>  <r_i_docking_score>  (115) 
-2.50097

>  <r_i_glide_ligand_efficiency>  (115) 
-0.250097

>  <r_i_glide_ligand_efficiency_sa>  (115) 
-0.538817

>  <r_i_glide_ligand_efficiency_ln>  (115) 
-0.757275

>  <r_i_glide_gscore>  (115) 
-2.50097

>  <r_i_glide_lipo>  (115) 
-0.313462

>  <r_i_glide_hbond>  (115) 
0

>  <r_i_glide_metal>  (115) 
-0

>  <r_i_glide_rewards>  (115) 
-2.38492

>  <r_i_glide_evdw>  (115) 
-16.4752

>  <r_i_glide_ecoul>  (115) 
-4.44915

>  <r_i_glide_erotb>  (115) 
1.69348

>  <r_i_glide_esite>  (115) 
-0.00493046

>  <r_i_glide_emodel>  (115) 
-25.1159

>  <r_i_glide_energy>  (115) 
-20.9244

>  <r_i_glide_einternal>  (115) 
0.723102

>  <r_i_glide_intrahb_reward>  (115) 
-0

>  <i_i_glide_confnum>  (115) 
2

>  <i_i_glide_posenum>  (115) 
23

>  <r_i_glide_eff_state_penalty>  (115) 
0

>  <ligand_id>  (115) 
34

>  <original_smiles>  (115) 
COC(=O)C(N)CCSC

>  <smiles>  (115) 
[H]C([H])([H])OC(=O)C([H])(C([H])([H])C([H])([H])SC([H])([H])[H])[N+]([H])([H])[H]

$$$$
35:0:0
     RDKit          3D

 56 63  0  0  1  0  0  0  0  0999 V2000
    3.6130   -0.6887    8.7929 C   0  0  0  0  0  0  0  0  0  0  0  0
    2.5029   -0.2555    8.0152 O   0  0  0  0  0  0  0  0  0  0  0  0
    2.5187   -0.3118    6.5707 C   0  0  2  0  0  0  0  0  0  0  0  0
    3.6896    0.5404    5.9791 C   0  0  0  0  0  0  0  0  0  0  0  0
    3.5857    2.0676    6.2224 C   0  0  0  0  0  0  0  0  0  0  0  0
    2.4593    2.4585    7.1813 C   0  0  0  0  0  0  0  0  0  0  0  0
    2.6583    3.2002    8.1334 O   0  0  0  0  0  0  0  0  0  0  0  0
    1.0683    1.8687    6.8834 C   0  0  1  0  0  0  0  0  0  0  0  0
    0.4734    2.7279    5.9094 O   0  0  0  0  0  0  0  0  0  0  0  0
    0.5360    2.0749    4.7139 C   0  0  0  0  0  0  0  0  0  0  0  0
    0.2237    2.5830    3.4413 C   0  0  0  0  0  0  0  0  0  0  0  0
   -0.1631    3.8828    3.2832 O   0  0  0  0  0  0  0  0  0  0  0  0
    0.3192    1.7200    2.3274 C   0  0  0  0  0  0  0  0  0  0  0  0
    0.6961    0.3630    2.4803 C   0  0  0  0  0  0  0  0  0  0  0  0
    0.9761   -0.1973    3.7474 C   0  0  0  0  0  0  0  0  0  0  0  0
    0.9128    0.7360    4.7981 C   0  0  0  0  0  0  0  0  0  0  0  0
    1.1339    0.4137    6.2645 C   0  0  1  0  0  0  0  0  0  0  0  0
   -0.0313   -0.5046    6.7194 C   0  0  1  0  0  0  0  0  0  0  0  0
   -1.3264   -0.2348    6.1067 O   0  0  0  0  0  0  0  0  0  0  0  0
   -1.3741   -1.5812    5.5649 C   0  0  0  0  0  0  0  0  0  0  0  0
   -0.0150   -1.9311    6.1668 C   0  0  1  0  0  0  0  0  0  0  0  0
    1.2313   -2.2689    5.3241 C   0  0  2  0  0  0  0  0  0  0  0  0
    1.2551   -1.6466    3.8980 C   0  0  0  0  0  0  0  0  0  0  0  0
    1.4533   -2.3726    2.9236 O   0  0  0  0  0  0  0  0  0  0  0  0
    1.5963   -3.7192    5.2006 C   0  0  0  0  0  0  0  0  0  0  0  0
    0.7606   -4.8014    4.8698 C   0  0  0  0  0  0  0  0  0  0  0  0
    1.3483   -6.0645    4.6803 C   0  0  0  0  0  0  0  0  0  0  0  0
    2.7450   -6.2199    4.8044 C   0  0  0  0  0  0  0  0  0  0  0  0
    3.5769   -5.1233    5.1376 C   0  0  0  0  0  0  0  0  0  0  0  0
    2.9879   -3.8569    5.3413 C   0  0  0  0  0  0  0  0  0  0  0  0
    3.6034   -2.6353    5.6959 N   0  0  0  0  0  0  0  0  0  0  0  0
    4.8341   -2.7342    6.4737 C   0  0  0  0  0  0  0  0  0  0  0  0
    2.4481   -1.8470    6.1716 C   0  0  1  0  0  0  0  0  0  0  0  0
    3.4273   -0.4336    9.8361 H   0  0  0  0  0  0  0  0  0  0  0  0
    4.5502   -0.2071    8.5212 H   0  0  0  0  0  0  0  0  0  0  0  0
    3.7388   -1.7678    8.7715 H   0  0  0  0  0  0  0  0  0  0  0  0
    4.6514    0.2259    6.3679 H   0  0  0  0  0  0  0  0  0  0  0  0
    3.7420    0.3701    4.9024 H   0  0  0  0  0  0  0  0  0  0  0  0
    4.5287    2.4743    6.5896 H   0  0  0  0  0  0  0  0  0  0  0  0
    3.3880    2.5711    5.2786 H   0  0  0  0  0  0  0  0  0  0  0  0
    0.4776    1.8870    7.8030 H   0  0  0  0  0  0  0  0  0  0  0  0
   -0.1643    4.1263    2.3394 H   0  0  0  0  0  0  0  0  0  0  0  0
    0.0708    2.0717    1.3362 H   0  0  0  0  0  0  0  0  0  0  0  0
    0.7289   -0.2640    1.5991 H   0  0  0  0  0  0  0  0  0  0  0  0
   -0.1206   -0.5381    7.8039 H   0  0  0  0  0  0  0  0  0  0  0  0
   -2.1893   -2.1754    5.9836 H   0  0  0  0  0  0  0  0  0  0  0  0
   -1.3950   -1.5949    4.4760 H   0  0  0  0  0  0  0  0  0  0  0  0
   -0.1521   -2.6256    7.0034 H   0  0  0  0  0  0  0  0  0  0  0  0
   -0.2987   -4.6598    4.7424 H   0  0  0  0  0  0  0  0  0  0  0  0
    0.7340   -6.9155    4.4209 H   0  0  0  0  0  0  0  0  0  0  0  0
    3.1753   -7.1921    4.6435 H   0  0  0  0  0  0  0  0  0  0  0  0
    4.6462   -5.2712    5.2308 H   0  0  0  0  0  0  0  0  0  0  0  0
    5.6204   -3.2398    5.9175 H   0  0  0  0  0  0  0  0  0  0  0  0
    4.6623   -3.2652    7.4064 H   0  0  0  0  0  0  0  0  0  0  0  0
    5.2075   -1.7484    6.7191 H   0  0  0  0  0  0  0  0  0  0  0  0
    2.2516   -2.3282    7.1358 H   0  0  0  0  0  0  0  0  0  0  0  0
  1  2  1  0
  1 34  1  0
  1 35  1  0
  1 36  1  0
  3  2  1  1
  3 17  1  0
  3 33  1  0
  3  4  1  0
  4  5  1  0
  4 37  1  0
  4 38  1  0
  5  6  1  0
  5 39  1  0
  5 40  1  0
  6  7  2  0
  6  8  1  0
  8 17  1  0
  8  9  1  0
  8 41  1  1
  9 10  1  0
 10 16  2  0
 10 11  1  0
 11 12  1  0
 11 13  2  0
 12 42  1  0
 13 14  1  0
 13 43  1  0
 14 15  2  0
 14 44  1  0
 15 23  1  0
 15 16  1  0
 17 16  1  6
 17 18  1  0
 18 21  1  0
 18 19  1  0
 18 45  1  1
 19 20  1  0
 20 21  1  0
 20 46  1  0
 20 47  1  0
 21 22  1  0
 21 48  1  1
 22 33  1  0
 22 23  1  0
 22 25  1  6
 23 24  2  0
 25 30  2  0
 25 26  1  0
 26 27  2  0
 26 49  1  0
 27 28  1  0
 27 50  1  0
 28 29  2  0
 28 51  1  0
 29 30  1  0
 29 52  1  0
 30 31  1  0
 31 32  1  0
 31 33  1  0
 32 53  1  0
 32 54  1  0
 32 55  1  0
 33 56  1  1
M  END
>  <i_m_ct_stereo_status>  (116) 
1

>  <s_m_source_file>  (116) 
/var/tmp/pbs.5076255.sched01/tmpio9qf6gp/4214r_5_m5.sdf

>  <i_m_source_file_index>  (116) 
7

>  <i_lp_mmshare_version>  (116) 
48012

>  <i_f3d_flags>  (116) 
0

>  <s_epik_input>  (116) 
W2NIXTFbY0hdW2NIXVtjSF1jKE4yW0NIM10pYzFbQ0BAXShbQ0BIXTNbQ0BASF00T1tDSDJdMykoW0NAQEhdMltDQEBdNShbQ0BAXTQ2NylPW0NIM10pQyg9TyljOGM3YyhjKFtPSF0pW2NIXVtjSF04KU9bQ0BASF02Qyg9TylbQ0gyXVtDSDJdNQ==

>  <s_epik_cmdline>  (116) 
J2VwaWtfcHl0aG9uJywgJy1waHQnLCAnMi4wJywgJy1waCcsICc3LjAnLCAnLXRuJywgJzgnLCAnLW1hJywgJzIwMCcsICctaW1hZScsICc8aW5maWxlLm1hZT4nLCAnLW9tYWUnLCAnPG91dGZpbGUubWFlPic=

>  <r_lp_tautomer_probability>  (116) 
1

>  <r_epik_Ionization_Penalty>  (116) 
0.0365787

>  <r_epik_Ionization_Penalty_Charging>  (116) 
0

>  <r_epik_Ionization_Penalty_Neutral>  (116) 
0.0365787

>  <r_epik_State_Penalty>  (116) 
0.0304567

>  <r_epik_Charging_Adjusted_Penalty>  (116) 
0.0304567

>  <i_epik_Tot_Q>  (116) 
0

>  <i_epik_Tot_abs_Q>  (116) 
0

>  <s_lp_Force_Field>  (116) 
OPLS3e

>  <r_lp_Energy>  (116) 
79.1704

>  <b_lp_Chiralities_Consistent>  (116) 
1

>  <s_lp_Variant>  (116) 
35:0-1

>  <s_i_glide_gridfile>  (116) 
pfpi4k_grid

>  <i_i_glide_lignum>  (116) 
7

>  <i_i_glide_rotatable_bonds>  (116) 
2

>  <r_i_docking_score>  (116) 
-2.29982

>  <r_i_glide_ligand_efficiency>  (116) 
-0.0696916

>  <r_i_glide_ligand_efficiency_sa>  (116) 
-0.223538

>  <r_i_glide_ligand_efficiency_ln>  (116) 
-0.511469

>  <r_i_glide_gscore>  (116) 
-2.29982

>  <r_i_glide_lipo>  (116) 
-0.00169965

>  <r_i_glide_hbond>  (116) 
-0.0912767

>  <r_i_glide_metal>  (116) 
-0

>  <r_i_glide_rewards>  (116) 
-0.372485

>  <r_i_glide_evdw>  (116) 
-16.7724

>  <r_i_glide_ecoul>  (116) 
-6.63828

>  <r_i_glide_erotb>  (116) 
0

>  <r_i_glide_esite>  (116) 
0

>  <r_i_glide_emodel>  (116) 
-27.1503

>  <r_i_glide_energy>  (116) 
-23.4107

>  <r_i_glide_einternal>  (116) 
0.2037

>  <r_i_glide_intrahb_reward>  (116) 
-0

>  <i_i_glide_confnum>  (116) 
1

>  <i_i_glide_posenum>  (116) 
1

>  <r_i_glide_eff_state_penalty>  (116) 
0

>  <ligand_id>  (116) 
35

>  <original_smiles>  (116) 
COC12CCC(=O)C3Oc4c(O)ccc5c4C31C1OCC1C1(C5=O)c3ccccc3N(C)C12

>  <smiles>  (116) 
[H]Oc1c([H])c([H])c2c3c1OC1([H])C(=O)C([H])([H])C([H])([H])C4(OC([H])([H])[H])C5([H])N(C([H])([H])[H])c6c([H])c([H])c([H])c([H])c6C5(C2=O)C2([H])C([H])([H])OC2([H])C314

$$$$
35:0:1
     RDKit          3D

 56 63  0  0  1  0  0  0  0  0999 V2000
    2.7675    4.3471    8.4838 C   0  0  0  0  0  0  0  0  0  0  0  0
    1.6780    3.6583    7.8784 O   0  0  0  0  0  0  0  0  0  0  0  0
    1.7636    3.1140    6.5387 C   0  0  2  0  0  0  0  0  0  0  0  0
    2.0776    4.2375    5.4947 C   0  0  0  0  0  0  0  0  0  0  0  0
    0.9696    5.3093    5.3243 C   0  0  0  0  0  0  0  0  0  0  0  0
   -0.1491    5.1898    6.3543 C   0  0  0  0  0  0  0  0  0  0  0  0
   -0.5512    6.1716    6.9781 O   0  0  0  0  0  0  0  0  0  0  0  0
   -0.7743    3.8001    6.5453 C   0  0  1  0  0  0  0  0  0  0  0  0
   -1.7736    3.6905    5.5279 O   0  0  0  0  0  0  0  0  0  0  0  0
   -1.2520    2.8583    4.5729 C   0  0  0  0  0  0  0  0  0  0  0  0
   -1.7802    2.5505    3.3018 C   0  0  0  0  0  0  0  0  0  0  0  0
   -2.9460    3.1215    2.8906 O   0  0  0  0  0  0  0  0  0  0  0  0
   -1.1012    1.6182    2.4875 C   0  0  0  0  0  0  0  0  0  0  0  0
    0.0845    0.9808    2.9202 C   0  0  0  0  0  0  0  0  0  0  0  0
    0.6368    1.2210    4.2054 C   0  0  0  0  0  0  0  0  0  0  0  0
   -0.0741    2.1944    4.9269 C   0  0  0  0  0  0  0  0  0  0  0  0
    0.2638    2.6201    6.3424 C   0  0  1  0  0  0  0  0  0  0  0  0
    0.0059    1.4121    7.2801 C   0  0  1  0  0  0  0  0  0  0  0  0
   -1.1155    0.5619    6.9030 O   0  0  0  0  0  0  0  0  0  0  0  0
   -0.2281   -0.5799    6.7943 C   0  0  0  0  0  0  0  0  0  0  0  0
    0.9890    0.2518    7.1568 C   0  0  1  0  0  0  0  0  0  0  0  0
    2.1620    0.5135    6.2027 C   0  0  2  0  0  0  0  0  0  0  0  0
    1.8100    0.4528    4.6939 C   0  0  0  0  0  0  0  0  0  0  0  0
    2.4768   -0.2532    3.9382 O   0  0  0  0  0  0  0  0  0  0  0  0
    3.4162   -0.2753    6.4073 C   0  0  0  0  0  0  0  0  0  0  0  0
    3.5233   -1.6775    6.5823 C   0  0  0  0  0  0  0  0  0  0  0  0
    4.8209   -2.2334    6.6259 C   0  0  0  0  0  0  0  0  0  0  0  0
    5.9544   -1.4013    6.4861 C   0  0  0  0  0  0  0  0  0  0  0  0
    5.8250    0.0046    6.3153 C   0  0  0  0  0  0  0  0  0  0  0  0
    4.5200    0.5645    6.2675 C   0  0  0  0  0  0  0  0  0  0  0  0
    4.1542    1.9314    6.1398 N   0  0  0  0  0  0  0  0  0  0  0  0
    5.1198    2.9004    6.6247 C   0  0  0  0  0  0  0  0  0  0  0  0
    2.7520    1.8786    6.6093 C   0  0  1  0  0  0  0  0  0  0  0  0
    2.4275    4.7659    9.4309 H   0  0  0  0  0  0  0  0  0  0  0  0
    3.1340    5.1811    7.8897 H   0  0  0  0  0  0  0  0  0  0  0  0
    3.5898    3.6825    8.7328 H   0  0  0  0  0  0  0  0  0  0  0  0
    2.9886    4.7764    5.7396 H   0  0  0  0  0  0  0  0  0  0  0  0
    2.2643    3.7779    4.5208 H   0  0  0  0  0  0  0  0  0  0  0  0
    1.3842    6.3175    5.3471 H   0  0  0  0  0  0  0  0  0  0  0  0
    0.5135    5.1959    4.3434 H   0  0  0  0  0  0  0  0  0  0  0  0
   -1.2560    3.7588    7.5265 H   0  0  0  0  0  0  0  0  0  0  0  0
   -3.2289    2.7521    2.0656 H   0  0  0  0  0  0  0  0  0  0  0  0
   -1.4920    1.3517    1.5052 H   0  0  0  0  0  0  0  0  0  0  0  0
    0.5545    0.2638    2.2677 H   0  0  0  0  0  0  0  0  0  0  0  0
   -0.0670    1.7032    8.3282 H   0  0  0  0  0  0  0  0  0  0  0  0
   -0.4274   -1.3558    7.5297 H   0  0  0  0  0  0  0  0  0  0  0  0
   -0.2012   -1.0010    5.7942 H   0  0  0  0  0  0  0  0  0  0  0  0
    1.3208   -0.0099    8.1618 H   0  0  0  0  0  0  0  0  0  0  0  0
    2.6486   -2.3061    6.6487 H   0  0  0  0  0  0  0  0  0  0  0  0
    4.9431   -3.3054    6.7516 H   0  0  0  0  0  0  0  0  0  0  0  0
    6.9388   -1.8589    6.5128 H   0  0  0  0  0  0  0  0  0  0  0  0
    6.7138    0.6120    6.2035 H   0  0  0  0  0  0  0  0  0  0  0  0
    6.0560    2.8574    6.0728 H   0  0  0  0  0  0  0  0  0  0  0  0
    5.3181    2.7487    7.6797 H   0  0  0  0  0  0  0  0  0  0  0  0
    4.7247    3.8958    6.5004 H   0  0  0  0  0  0  0  0  0  0  0  0
    2.9079    1.7645    7.6839 H   0  0  0  0  0  0  0  0  0  0  0  0
  1  2  1  0
  1 34  1  0
  1 35  1  0
  1 36  1  0
  3  2  1  1
  3 17  1  0
  3 33  1  0
  3  4  1  0
  4  5  1  0
  4 37  1  0
  4 38  1  0
  5  6  1  0
  5 39  1  0
  5 40  1  0
  6  7  2  0
  6  8  1  0
  8 17  1  0
  8  9  1  0
  8 41  1  1
  9 10  1  0
 10 16  2  0
 10 11  1  0
 11 12  1  0
 11 13  2  0
 12 42  1  0
 13 14  1  0
 13 43  1  0
 14 15  2  0
 14 44  1  0
 15 23  1  0
 15 16  1  0
 17 16  1  6
 17 18  1  0
 18 21  1  0
 18 19  1  0
 18 45  1  1
 19 20  1  0
 20 21  1  0
 20 46  1  0
 20 47  1  0
 21 22  1  0
 21 48  1  1
 22 33  1  0
 22 23  1  0
 22 25  1  6
 23 24  2  0
 25 30  2  0
 25 26  1  0
 26 27  2  0
 26 49  1  0
 27 28  1  0
 27 50  1  0
 28 29  2  0
 28 51  1  0
 29 30  1  0
 29 52  1  0
 30 31  1  0
 31 32  1  0
 31 33  1  0
 32 53  1  0
 32 54  1  0
 32 55  1  0
 33 56  1  1
M  END
>  <i_m_ct_stereo_status>  (117) 
1

>  <s_m_source_file>  (117) 
/var/tmp/pbs.5076255.sched01/tmpio9qf6gp/4214r_5_m5.sdf

>  <i_m_source_file_index>  (117) 
7

>  <i_lp_mmshare_version>  (117) 
48012

>  <i_f3d_flags>  (117) 
0

>  <s_epik_input>  (117) 
W2NIXTFbY0hdW2NIXVtjSF1jKE4yW0NIM10pYzFbQ0BAXShbQ0BIXTNbQ0BASF00T1tDSDJdMykoW0NAQEhdMltDQEBdNShbQ0BAXTQ2NylPW0NIM10pQyg9TyljOGM3YyhjKFtPSF0pW2NIXVtjSF04KU9bQ0BASF02Qyg9TylbQ0gyXVtDSDJdNQ==

>  <s_epik_cmdline>  (117) 
J2VwaWtfcHl0aG9uJywgJy1waHQnLCAnMi4wJywgJy1waCcsICc3LjAnLCAnLXRuJywgJzgnLCAnLW1hJywgJzIwMCcsICctaW1hZScsICc8aW5maWxlLm1hZT4nLCAnLW9tYWUnLCAnPG91dGZpbGUubWFlPic=

>  <r_lp_tautomer_probability>  (117) 
1

>  <r_epik_Ionization_Penalty>  (117) 
0.0365787

>  <r_epik_Ionization_Penalty_Charging>  (117) 
0

>  <r_epik_Ionization_Penalty_Neutral>  (117) 
0.0365787

>  <r_epik_State_Penalty>  (117) 
0.0304567

>  <r_epik_Charging_Adjusted_Penalty>  (117) 
0.0304567

>  <i_epik_Tot_Q>  (117) 
0

>  <i_epik_Tot_abs_Q>  (117) 
0

>  <s_lp_Force_Field>  (117) 
OPLS3e

>  <r_lp_Energy>  (117) 
79.1704

>  <b_lp_Chiralities_Consistent>  (117) 
1

>  <s_lp_Variant>  (117) 
35:0-1

>  <s_i_glide_gridfile>  (117) 
pfpi4k_grid

>  <i_i_glide_lignum>  (117) 
7

>  <i_i_glide_rotatable_bonds>  (117) 
2

>  <r_i_docking_score>  (117) 
-2.1023

>  <r_i_glide_ligand_efficiency>  (117) 
-0.0637062

>  <r_i_glide_ligand_efficiency_sa>  (117) 
-0.20434

>  <r_i_glide_ligand_efficiency_ln>  (117) 
-0.467541

>  <r_i_glide_gscore>  (117) 
-2.1023

>  <r_i_glide_lipo>  (117) 
-0.0868709

>  <r_i_glide_hbond>  (117) 
-0.127804

>  <r_i_glide_metal>  (117) 
-0

>  <r_i_glide_rewards>  (117) 
-0.37215

>  <r_i_glide_evdw>  (117) 
-19.9758

>  <r_i_glide_ecoul>  (117) 
-3.37181

>  <r_i_glide_erotb>  (117) 
0

>  <r_i_glide_esite>  (117) 
-0.0109157

>  <r_i_glide_emodel>  (117) 
-26.7997

>  <r_i_glide_energy>  (117) 
-23.3476

>  <r_i_glide_einternal>  (117) 
0.0265233

>  <r_i_glide_intrahb_reward>  (117) 
-0

>  <i_i_glide_confnum>  (117) 
2

>  <i_i_glide_posenum>  (117) 
9

>  <r_i_glide_eff_state_penalty>  (117) 
0

>  <ligand_id>  (117) 
35

>  <original_smiles>  (117) 
COC12CCC(=O)C3Oc4c(O)ccc5c4C31C1OCC1C1(C5=O)c3ccccc3N(C)C12

>  <smiles>  (117) 
[H]Oc1c([H])c([H])c2c3c1OC1([H])C(=O)C([H])([H])C([H])([H])C4(OC([H])([H])[H])C5([H])N(C([H])([H])[H])c6c([H])c([H])c([H])c([H])c6C5(C2=O)C2([H])C([H])([H])OC2([H])C314

$$$$
35:0:2
     RDKit          3D

 56 63  0  0  1  0  0  0  0  0999 V2000
    2.2282   -4.8626    8.4740 C   0  0  0  0  0  0  0  0  0  0  0  0
    2.5432   -5.8808    7.5309 O   0  0  0  0  0  0  0  0  0  0  0  0
    1.6685   -6.1997    6.4212 C   0  0  2  0  0  0  0  0  0  0  0  0
    0.2525   -6.6288    6.9284 C   0  0  0  0  0  0  0  0  0  0  0  0
    0.2179   -7.9493    7.7418 C   0  0  0  0  0  0  0  0  0  0  0  0
    1.6014   -8.4924    8.0768 C   0  0  0  0  0  0  0  0  0  0  0  0
    1.8948   -8.8139    9.2278 O   0  0  0  0  0  0  0  0  0  0  0  0
    2.6048   -8.6062    6.9183 C   0  0  1  0  0  0  0  0  0  0  0  0
    2.3234   -9.8581    6.2901 O   0  0  0  0  0  0  0  0  0  0  0  0
    1.6466   -9.5720    5.1389 C   0  0  0  0  0  0  0  0  0  0  0  0
    1.0189  -10.4628    4.2389 C   0  0  0  0  0  0  0  0  0  0  0  0
    1.0127  -11.7929    4.5003 O   0  0  0  0  0  0  0  0  0  0  0  0
    0.4315   -9.9592    3.0635 C   0  0  0  0  0  0  0  0  0  0  0  0
    0.4671   -8.5809    2.7617 C   0  0  0  0  0  0  0  0  0  0  0  0
    1.1225   -7.6497    3.6094 C   0  0  0  0  0  0  0  0  0  0  0  0
    1.6324   -8.2275    4.7770 C   0  0  0  0  0  0  0  0  0  0  0  0
    2.4184   -7.4701    5.8308 C   0  0  1  0  0  0  0  0  0  0  0  0
    3.7518   -7.0043    5.1988 C   0  0  1  0  0  0  0  0  0  0  0  0
    4.3023   -7.9351    4.2338 O   0  0  0  0  0  0  0  0  0  0  0  0
    4.2896   -6.9080    3.2121 C   0  0  0  0  0  0  0  0  0  0  0  0
    3.6620   -5.8976    4.1557 C   0  0  1  0  0  0  0  0  0  0  0  0
    2.2504   -5.3236    3.9816 C   0  0  2  0  0  0  0  0  0  0  0  0
    1.2652   -6.2419    3.2077 C   0  0  0  0  0  0  0  0  0  0  0  0
    0.6180   -5.8297    2.2507 O   0  0  0  0  0  0  0  0  0  0  0  0
    2.1258   -3.9363    3.4389 C   0  0  0  0  0  0  0  0  0  0  0  0
    2.7830   -3.4037    2.2994 C   0  0  0  0  0  0  0  0  0  0  0  0
    2.4290   -2.0960    1.8946 C   0  0  0  0  0  0  0  0  0  0  0  0
    1.4536   -1.3693    2.6113 C   0  0  0  0  0  0  0  0  0  0  0  0
    0.8236   -1.9127    3.7647 C   0  0  0  0  0  0  0  0  0  0  0  0
    1.1702   -3.2324    4.1680 C   0  0  0  0  0  0  0  0  0  0  0  0
    0.6922   -3.9538    5.2942 N   0  0  0  0  0  0  0  0  0  0  0  0
    0.2359   -3.1514    6.4160 C   0  0  0  0  0  0  0  0  0  0  0  0
    1.7472   -4.9879    5.4048 C   0  0  1  0  0  0  0  0  0  0  0  0
    2.9686   -4.8926    9.2728 H   0  0  0  0  0  0  0  0  0  0  0  0
    1.2581   -4.9979    8.9455 H   0  0  0  0  0  0  0  0  0  0  0  0
    2.2961   -3.8675    8.0452 H   0  0  0  0  0  0  0  0  0  0  0  0
   -0.1961   -5.8685    7.5608 H   0  0  0  0  0  0  0  0  0  0  0  0
   -0.4129   -6.7305    6.0682 H   0  0  0  0  0  0  0  0  0  0  0  0
   -0.3561   -7.8376    8.6616 H   0  0  0  0  0  0  0  0  0  0  0  0
   -0.2851   -8.7186    7.1612 H   0  0  0  0  0  0  0  0  0  0  0  0
    3.6205   -8.6274    7.3246 H   0  0  0  0  0  0  0  0  0  0  0  0
    1.3240  -11.9676    5.3801 H   0  0  0  0  0  0  0  0  0  0  0  0
   -0.0388  -10.6385    2.3493 H   0  0  0  0  0  0  0  0  0  0  0  0
    0.0293   -8.2465    1.8353 H   0  0  0  0  0  0  0  0  0  0  0  0
    4.4991   -6.7225    5.9388 H   0  0  0  0  0  0  0  0  0  0  0  0
    5.2820   -6.6061    2.8812 H   0  0  0  0  0  0  0  0  0  0  0  0
    3.6679   -7.1660    2.3613 H   0  0  0  0  0  0  0  0  0  0  0  0
    4.4044   -5.1427    4.4163 H   0  0  0  0  0  0  0  0  0  0  0  0
    3.4996   -3.9842    1.7400 H   0  0  0  0  0  0  0  0  0  0  0  0
    2.8843   -1.6615    1.0068 H   0  0  0  0  0  0  0  0  0  0  0  0
    1.1850   -0.3783    2.2539 H   0  0  0  0  0  0  0  0  0  0  0  0
    0.0713   -1.3330    4.2839 H   0  0  0  0  0  0  0  0  0  0  0  0
   -0.6251   -2.5392    6.1545 H   0  0  0  0  0  0  0  0  0  0  0  0
    1.0332   -2.5168    6.7867 H   0  0  0  0  0  0  0  0  0  0  0  0
   -0.0692   -3.7994    7.2210 H   0  0  0  0  0  0  0  0  0  0  0  0
    2.5657   -4.3947    5.8185 H   0  0  0  0  0  0  0  0  0  0  0  0
  1  2  1  0
  1 34  1  0
  1 35  1  0
  1 36  1  0
  3  2  1  1
  3 17  1  0
  3 33  1  0
  3  4  1  0
  4  5  1  0
  4 37  1  0
  4 38  1  0
  5  6  1  0
  5 39  1  0
  5 40  1  0
  6  7  2  0
  6  8  1  0
  8 17  1  0
  8  9  1  0
  8 41  1  1
  9 10  1  0
 10 16  2  0
 10 11  1  0
 11 12  1  0
 11 13  2  0
 12 42  1  0
 13 14  1  0
 13 43  1  0
 14 15  2  0
 14 44  1  0
 15 23  1  0
 15 16  1  0
 17 16  1  6
 17 18  1  0
 18 21  1  0
 18 19  1  0
 18 45  1  1
 19 20  1  0
 20 21  1  0
 20 46  1  0
 20 47  1  0
 21 22  1  0
 21 48  1  1
 22 33  1  0
 22 23  1  0
 22 25  1  6
 23 24  2  0
 25 30  2  0
 25 26  1  0
 26 27  2  0
 26 49  1  0
 27 28  1  0
 27 50  1  0
 28 29  2  0
 28 51  1  0
 29 30  1  0
 29 52  1  0
 30 31  1  0
 31 32  1  0
 31 33  1  0
 32 53  1  0
 32 54  1  0
 32 55  1  0
 33 56  1  1
M  END
>  <i_m_ct_stereo_status>  (118) 
1

>  <s_m_source_file>  (118) 
/var/tmp/pbs.5076255.sched01/tmpio9qf6gp/4214r_5_m5.sdf

>  <i_m_source_file_index>  (118) 
7

>  <i_lp_mmshare_version>  (118) 
48012

>  <i_f3d_flags>  (118) 
0

>  <s_epik_input>  (118) 
W2NIXTFbY0hdW2NIXVtjSF1jKE4yW0NIM10pYzFbQ0BAXShbQ0BIXTNbQ0BASF00T1tDSDJdMykoW0NAQEhdMltDQEBdNShbQ0BAXTQ2NylPW0NIM10pQyg9TyljOGM3YyhjKFtPSF0pW2NIXVtjSF04KU9bQ0BASF02Qyg9TylbQ0gyXVtDSDJdNQ==

>  <s_epik_cmdline>  (118) 
J2VwaWtfcHl0aG9uJywgJy1waHQnLCAnMi4wJywgJy1waCcsICc3LjAnLCAnLXRuJywgJzgnLCAnLW1hJywgJzIwMCcsICctaW1hZScsICc8aW5maWxlLm1hZT4nLCAnLW9tYWUnLCAnPG91dGZpbGUubWFlPic=

>  <r_lp_tautomer_probability>  (118) 
1

>  <r_epik_Ionization_Penalty>  (118) 
0.0365787

>  <r_epik_Ionization_Penalty_Charging>  (118) 
0

>  <r_epik_Ionization_Penalty_Neutral>  (118) 
0.0365787

>  <r_epik_State_Penalty>  (118) 
0.0304567

>  <r_epik_Charging_Adjusted_Penalty>  (118) 
0.0304567

>  <i_epik_Tot_Q>  (118) 
0

>  <i_epik_Tot_abs_Q>  (118) 
0

>  <s_lp_Force_Field>  (118) 
OPLS3e

>  <r_lp_Energy>  (118) 
79.1704

>  <b_lp_Chiralities_Consistent>  (118) 
1

>  <s_lp_Variant>  (118) 
35:0-1

>  <s_i_glide_gridfile>  (118) 
pfpi4k_grid

>  <i_i_glide_lignum>  (118) 
7

>  <i_i_glide_rotatable_bonds>  (118) 
2

>  <r_i_docking_score>  (118) 
-1.9233

>  <r_i_glide_ligand_efficiency>  (118) 
-0.0582819

>  <r_i_glide_ligand_efficiency_sa>  (118) 
-0.186941

>  <r_i_glide_ligand_efficiency_ln>  (118) 
-0.427732

>  <r_i_glide_gscore>  (118) 
-1.9233

>  <r_i_glide_lipo>  (118) 
-0.0442409

>  <r_i_glide_hbond>  (118) 
-0.158655

>  <r_i_glide_metal>  (118) 
-0

>  <r_i_glide_rewards>  (118) 
-0.371837

>  <r_i_glide_evdw>  (118) 
-22.2456

>  <r_i_glide_ecoul>  (118) 
-1.20544

>  <r_i_glide_erotb>  (118) 
0

>  <r_i_glide_esite>  (118) 
-0.0554703

>  <r_i_glide_emodel>  (118) 
-26.5055

>  <r_i_glide_energy>  (118) 
-23.4511

>  <r_i_glide_einternal>  (118) 
0.11185

>  <r_i_glide_intrahb_reward>  (118) 
-0

>  <i_i_glide_confnum>  (118) 
2

>  <i_i_glide_posenum>  (118) 
16

>  <r_i_glide_eff_state_penalty>  (118) 
0

>  <ligand_id>  (118) 
35

>  <original_smiles>  (118) 
COC12CCC(=O)C3Oc4c(O)ccc5c4C31C1OCC1C1(C5=O)c3ccccc3N(C)C12

>  <smiles>  (118) 
[H]Oc1c([H])c([H])c2c3c1OC1([H])C(=O)C([H])([H])C([H])([H])C4(OC([H])([H])[H])C5([H])N(C([H])([H])[H])c6c([H])c([H])c([H])c([H])c6C5(C2=O)C2([H])C([H])([H])OC2([H])C314

$$$$
36:0:0
     RDKit          3D

 76 81  0  0  1  0  0  0  0  0999 V2000
    3.8206   -2.4243    1.4693 C   0  0  0  0  0  0  0  0  0  0  0  0
    3.9452   -3.6871    1.9419 C   0  0  0  0  0  0  0  0  0  0  0  0
    5.2741   -4.1751    2.5594 C   0  0  0  0  0  0  0  0  0  0  0  0
    5.1770   -5.2482    3.7534 C   0  0  1  0  0  0  0  0  0  0  0  0
    5.2626   -4.5602    5.0361 O   0  0  0  0  0  0  0  0  0  0  0  0
    4.3835   -4.8522    6.1242 C   0  0  0  0  0  0  0  0  0  0  0  0
    3.9514   -6.2793    3.6345 C   0  0  2  0  0  0  0  0  0  0  0  0
    4.0875   -6.8641    2.2660 C   0  0  0  0  0  0  0  0  0  0  0  0
    2.7605   -7.1474    1.5009 C   0  0  1  0  0  0  0  0  0  0  0  0
    1.2247   -7.0890    1.9091 C   0  0  0  0  0  0  0  0  0  0  0  0
    2.8218   -5.7438    0.7723 C   0  0  1  0  0  0  0  0  0  0  0  0
    1.8104   -5.4749   -0.1886 O   0  0  0  0  0  0  0  0  0  0  0  0
    2.7595   -4.6517    1.9832 C   0  0  1  0  0  0  0  0  0  0  0  0
    2.7551   -5.2198    3.4957 C   0  0  1  0  0  0  0  0  0  0  0  0
    1.4300   -5.2491    4.3502 C   0  0  0  0  0  0  0  0  0  0  0  0
    0.7885   -3.8808    4.6930 C   0  0  0  0  0  0  0  0  0  0  0  0
    0.0767   -3.7570    5.6817 O   0  0  0  0  0  0  0  0  0  0  0  0
    1.0304   -2.9105    3.7871 O   0  0  0  0  0  0  0  0  0  0  0  0
    0.4573   -1.6206    3.9445 C   0  0  0  0  0  0  0  0  0  0  0  0
    3.0029   -8.7190    1.3184 C   0  0  1  0  0  0  0  0  0  0  0  0
    4.1260   -9.1192    0.5291 O   0  0  0  0  0  0  0  0  0  0  0  0
    3.0436   -9.3814    2.8068 C   0  0  1  0  0  0  0  0  0  0  0  0
    1.9207  -10.4042    3.1567 C   0  0  0  0  0  0  0  0  0  0  0  0
    1.1136  -10.0993    4.4796 C   0  0  2  0  0  0  0  0  0  0  0  0
    0.6297  -11.4362    5.0566 C   0  0  0  0  0  0  0  0  0  0  0  0
   -0.0598   -9.1126    4.3837 C   0  0  0  0  0  0  0  0  0  0  0  0
    0.6865   -8.0563    5.0420 O   0  0  0  0  0  0  0  0  0  0  0  0
    1.6584   -9.0213    5.4823 C   0  0  2  0  0  0  0  0  0  0  0  0
    3.1595   -8.5516    5.5676 C   0  0  1  0  0  0  0  0  0  0  0  0
    4.1494   -9.7527    5.3225 C   0  0  1  0  0  0  0  0  0  0  0  0
    5.3940   -9.9548    6.2438 C   0  0  0  0  0  0  0  0  0  0  0  0
    3.6095  -11.0791    5.4111 O   0  0  0  0  0  0  0  0  0  0  0  0
    4.2034   -9.1402    3.8711 C   0  0  1  0  0  0  0  0  0  0  0  0
    5.4517   -9.5369    3.2769 O   0  0  0  0  0  0  0  0  0  0  0  0
    4.1126   -7.6929    4.5704 C   0  0  1  0  0  0  0  0  0  0  0  0
    5.3300   -7.3676    5.1689 O   0  0  0  0  0  0  0  0  0  0  0  0
    2.8740   -2.0571    1.1068 H   0  0  0  0  0  0  0  0  0  0  0  0
    4.6472   -1.7291    1.4849 H   0  0  0  0  0  0  0  0  0  0  0  0
    5.8669   -4.5711    1.7185 H   0  0  0  0  0  0  0  0  0  0  0  0
    5.8599   -3.3194    2.8941 H   0  0  0  0  0  0  0  0  0  0  0  0
    6.1239   -5.7933    3.6065 H   0  0  0  0  0  0  0  0  0  0  0  0
    4.6699   -4.2203    6.9500 H   0  0  0  0  0  0  0  0  0  0  0  0
    4.4445   -5.8427    6.4722 H   0  0  0  0  0  0  0  0  0  0  0  0
    3.3980   -4.5697    5.8823 H   0  0  0  0  0  0  0  0  0  0  0  0
    4.7907   -6.3305    1.6463 H   0  0  0  0  0  0  0  0  0  0  0  0
    4.8560   -7.6098    2.2171 H   0  0  0  0  0  0  0  0  0  0  0  0
    0.6145   -7.6993    1.2436 H   0  0  0  0  0  0  0  0  0  0  0  0
    0.7352   -6.1171    1.8760 H   0  0  0  0  0  0  0  0  0  0  0  0
    1.0017   -7.4079    2.8940 H   0  0  0  0  0  0  0  0  0  0  0  0
    3.7122   -5.5983    0.1521 H   0  0  0  0  0  0  0  0  0  0  0  0
    2.1920   -5.6309   -1.0456 H   0  0  0  0  0  0  0  0  0  0  0  0
    1.8660   -4.0582    1.8205 H   0  0  0  0  0  0  0  0  0  0  0  0
    3.1293   -4.3549    4.0326 H   0  0  0  0  0  0  0  0  0  0  0  0
    0.6072   -5.8043    3.9337 H   0  0  0  0  0  0  0  0  0  0  0  0
    1.6520   -5.7315    5.2985 H   0  0  0  0  0  0  0  0  0  0  0  0
    0.7699   -0.9884    3.1143 H   0  0  0  0  0  0  0  0  0  0  0  0
    0.7849   -1.1481    4.8694 H   0  0  0  0  0  0  0  0  0  0  0  0
   -0.6310   -1.6622    3.9389 H   0  0  0  0  0  0  0  0  0  0  0  0
    2.1503   -9.1299    0.7795 H   0  0  0  0  0  0  0  0  0  0  0  0
    4.1564  -10.0563    0.4844 H   0  0  0  0  0  0  0  0  0  0  0  0
    2.4330   -8.6325    3.2249 H   0  0  0  0  0  0  0  0  0  0  0  0
    1.2073  -10.4551    2.3246 H   0  0  0  0  0  0  0  0  0  0  0  0
    2.3648  -11.4025    3.1892 H   0  0  0  0  0  0  0  0  0  0  0  0
    0.1142  -11.2952    6.0113 H   0  0  0  0  0  0  0  0  0  0  0  0
    1.4316  -12.1523    5.2364 H   0  0  0  0  0  0  0  0  0  0  0  0
   -0.0831  -11.9369    4.3931 H   0  0  0  0  0  0  0  0  0  0  0  0
   -0.3766   -8.8932    3.3600 H   0  0  0  0  0  0  0  0  0  0  0  0
   -0.9337   -9.3957    4.9798 H   0  0  0  0  0  0  0  0  0  0  0  0
    1.3877   -9.3424    6.4761 H   0  0  0  0  0  0  0  0  0  0  0  0
    3.3060   -8.1438    6.5877 H   0  0  0  0  0  0  0  0  0  0  0  0
    6.3016   -9.4732    5.8836 H   0  0  0  0  0  0  0  0  0  0  0  0
    5.7009  -10.9939    6.3248 H   0  0  0  0  0  0  0  0  0  0  0  0
    5.2086   -9.6047    7.2622 H   0  0  0  0  0  0  0  0  0  0  0  0
    3.1465  -11.1523    6.2278 H   0  0  0  0  0  0  0  0  0  0  0  0
    5.3166  -10.4006    2.9373 H   0  0  0  0  0  0  0  0  0  0  0  0
    5.4924   -8.0053    5.8618 H   0  0  0  0  0  0  0  0  0  0  0  0
  1  2  2  0
  1 37  1  0
  1 38  1  0
  2 13  1  0
  2  3  1  0
  3  4  1  0
  3 39  1  0
  3 40  1  0
  4  5  1  0
  4  7  1  0
  4 41  1  6
  5  6  1  0
  6 42  1  0
  6 43  1  0
  6 44  1  0
  7 14  1  0
  7 35  1  0
  7  8  1  6
  8  9  1  0
  8 45  1  0
  8 46  1  0
  9 10  1  1
  9 11  1  0
  9 20  1  0
 10 47  1  0
 10 48  1  0
 10 49  1  0
 11 12  1  0
 11 13  1  0
 11 50  1  6
 12 51  1  0
 13 14  1  0
 13 52  1  6
 14 15  1  0
 14 53  1  1
 15 16  1  0
 15 54  1  0
 15 55  1  0
 16 17  2  0
 16 18  1  0
 18 19  1  0
 19 56  1  0
 19 57  1  0
 19 58  1  0
 20 21  1  0
 20 22  1  0
 20 59  1  6
 21 60  1  0
 22 33  1  0
 22 23  1  0
 22 61  1  1
 23 24  1  0
 23 62  1  0
 23 63  1  0
 24 28  1  0
 24 25  1  1
 24 26  1  0
 25 64  1  0
 25 65  1  0
 25 66  1  0
 26 27  1  0
 26 67  1  0
 26 68  1  0
 27 28  1  0
 28 29  1  0
 28 69  1  1
 29 35  1  0
 29 30  1  0
 29 70  1  1
 30 31  1  0
 30 32  1  6
 30 33  1  0
 31 71  1  0
 31 72  1  0
 31 73  1  0
 32 74  1  0
 33 34  1  6
 33 35  1  0
 34 75  1  0
 35 36  1  1
 36 76  1  0
M  END
>  <i_m_ct_stereo_status>  (119) 
1

>  <s_m_source_file>  (119) 
/var/tmp/pbs.5076255.sched01/tmpio9qf6gp/4214r_5_m5.sdf

>  <i_m_source_file_index>  (119) 
9

>  <i_lp_mmshare_version>  (119) 
48012

>  <i_f3d_flags>  (119) 
0

>  <s_epik_input>  (119) 
W0NIM11PW0NAQEhdMVtDSDJdQyg9W0NIMl0pW0NASF0oW0NASF0yW0NIMl1DKD1PKU9bQ0gzXSlbQ0BIXShbT0hdKVtDQEBdKFtDSDJdMykoW0NIM10pW0NAQEhdKFtPSF0pW0NASF0oW0NAXTQoW09IXSlbQ0BdNShbQ0gzXSlbT0hdKVtDSDJdW0NAXShbQ0gzXSkoW0NIMl1PNilbQ0BIXTZbQ0BASF01W0NAQF00KFtDQF0xMjMpW09IXQ==

>  <s_epik_cmdline>  (119) 
J2VwaWtfcHl0aG9uJywgJy1waHQnLCAnMi4wJywgJy1waCcsICc3LjAnLCAnLXRuJywgJzgnLCAnLW1hJywgJzIwMCcsICctaW1hZScsICc8aW5maWxlLm1hZT4nLCAnLW9tYWUnLCAnPG91dGZpbGUubWFlPic=

>  <r_lp_tautomer_probability>  (119) 
1

>  <r_epik_Ionization_Penalty>  (119) 
6.86663e-07

>  <r_epik_Ionization_Penalty_Charging>  (119) 
0

>  <r_epik_Ionization_Penalty_Neutral>  (119) 
6.86663e-07

>  <r_epik_State_Penalty>  (119) 
-0

>  <r_epik_Charging_Adjusted_Penalty>  (119) 
0

>  <i_epik_Tot_Q>  (119) 
0

>  <i_epik_Tot_abs_Q>  (119) 
0

>  <s_epik_Chemistry_Notes>  (119) 
This compound has an ester and may undergo hydrolysis at high or low pH.

>  <s_lp_Force_Field>  (119) 
OPLS3e

>  <r_lp_Energy>  (119) 
301.693

>  <b_lp_Chiralities_Consistent>  (119) 
1

>  <s_lp_Variant>  (119) 
36:0-1

>  <s_i_glide_gridfile>  (119) 
pfpi4k_grid

>  <i_i_glide_lignum>  (119) 
9

>  <i_i_glide_rotatable_bonds>  (119) 
9

>  <r_i_docking_score>  (119) 
-3.07934

>  <r_i_glide_ligand_efficiency>  (119) 
-0.0855372

>  <r_i_glide_ligand_efficiency_sa>  (119) 
-0.282438

>  <r_i_glide_ligand_efficiency_ln>  (119) 
-0.671828

>  <r_i_glide_gscore>  (119) 
-3.07934

>  <r_i_glide_lipo>  (119) 
-0.133282

>  <r_i_glide_hbond>  (119) 
-0.350883

>  <r_i_glide_metal>  (119) 
-0

>  <r_i_glide_rewards>  (119) 
-0.00736663

>  <r_i_glide_evdw>  (119) 
-20.9533

>  <r_i_glide_ecoul>  (119) 
-11.323

>  <r_i_glide_erotb>  (119) 
0.158302

>  <r_i_glide_esite>  (119) 
0

>  <r_i_glide_emodel>  (119) 
-25.9832

>  <r_i_glide_energy>  (119) 
-32.2762

>  <r_i_glide_einternal>  (119) 
23.5415

>  <r_i_glide_intrahb_reward>  (119) 
-0

>  <i_i_glide_confnum>  (119) 
3

>  <i_i_glide_posenum>  (119) 
35

>  <r_i_glide_eff_state_penalty>  (119) 
0

>  <ligand_id>  (119) 
36

>  <original_smiles>  (119) 
C=C1CC(OC)C23CC(C)(C(O)C1C2CC(=O)OC)C(O)C1CC2(C)COC2C2C(C)(O)C1(O)C23O

>  <smiles>  (119) 
[H]OC1([H])C2([H])C(=C([H])[H])C([H])([H])C([H])(OC([H])([H])[H])C3(C([H])([H])C1(C([H])([H])[H])C([H])(O[H])C1([H])C([H])([H])C4(C([H])([H])[H])C([H])([H])OC4([H])C4([H])C(O[H])(C([H])([H])[H])C1(O[H])C43O[H])C2([H])C([H])([H])C(=O)OC([H])([H])[H]

$$$$
36:0:1
     RDKit          3D

 76 81  0  0  1  0  0  0  0  0999 V2000
    3.1893   -3.1397   -1.3902 C   0  0  0  0  0  0  0  0  0  0  0  0
    3.5894   -3.9481   -0.4121 C   0  0  0  0  0  0  0  0  0  0  0  0
    5.0313   -4.4921   -0.3571 C   0  0  0  0  0  0  0  0  0  0  0  0
    5.6726   -4.7606    1.0752 C   0  0  1  0  0  0  0  0  0  0  0  0
    6.3714   -3.5726    1.4574 O   0  0  0  0  0  0  0  0  0  0  0  0
    7.5996   -3.3323    0.7857 C   0  0  0  0  0  0  0  0  0  0  0  0
    4.6297   -5.1854    2.2460 C   0  0  2  0  0  0  0  0  0  0  0  0
    3.9824   -6.3893    1.6442 C   0  0  0  0  0  0  0  0  0  0  0  0
    2.4547   -6.5754    1.8947 C   0  0  1  0  0  0  0  0  0  0  0  0
    1.4089   -5.8472    2.8389 C   0  0  0  0  0  0  0  0  0  0  0  0
    2.0899   -5.8365    0.5658 C   0  0  1  0  0  0  0  0  0  0  0  0
    0.7410   -5.8645    0.1738 O   0  0  0  0  0  0  0  0  0  0  0  0
    2.6643   -4.3281    0.7482 C   0  0  1  0  0  0  0  0  0  0  0  0
    3.5464   -4.0274    2.0595 C   0  0  1  0  0  0  0  0  0  0  0  0
    2.9124   -3.1635    3.2009 C   0  0  0  0  0  0  0  0  0  0  0  0
    3.7825   -2.0532    3.8114 C   0  0  0  0  0  0  0  0  0  0  0  0
    3.8299   -1.8796    5.0353 O   0  0  0  0  0  0  0  0  0  0  0  0
    4.4095   -1.2855    2.9052 O   0  0  0  0  0  0  0  0  0  0  0  0
    5.3522   -0.3145    3.3116 C   0  0  0  0  0  0  0  0  0  0  0  0
    2.5885   -8.0090    2.5659 C   0  0  1  0  0  0  0  0  0  0  0  0
    3.0268   -9.0651    1.7254 O   0  0  0  0  0  0  0  0  0  0  0  0
    3.4566   -7.8375    3.9476 C   0  0  1  0  0  0  0  0  0  0  0  0
    2.7526   -8.1626    5.3014 C   0  0  0  0  0  0  0  0  0  0  0  0
    2.7795   -7.0033    6.3752 C   0  0  2  0  0  0  0  0  0  0  0  0
    2.7336   -7.6457    7.7705 C   0  0  0  0  0  0  0  0  0  0  0  0
    1.7134   -5.9044    6.2838 C   0  0  0  0  0  0  0  0  0  0  0  0
    2.6619   -4.9224    5.8121 O   0  0  0  0  0  0  0  0  0  0  0  0
    3.7442   -5.7869    6.1680 C   0  0  2  0  0  0  0  0  0  0  0  0
    5.0234   -5.7720    5.2391 C   0  0  1  0  0  0  0  0  0  0  0  0
    5.7619   -7.1469    5.3263 C   0  0  1  0  0  0  0  0  0  0  0  0
    7.3067   -7.2436    5.4648 C   0  0  0  0  0  0  0  0  0  0  0  0
    5.4485   -7.9932    6.4071 O   0  0  0  0  0  0  0  0  0  0  0  0
    5.0188   -7.4283    3.9866 C   0  0  1  0  0  0  0  0  0  0  0  0
    5.7835   -8.4026    3.3032 O   0  0  0  0  0  0  0  0  0  0  0  0
    5.2609   -5.8651    3.6378 C   0  0  1  0  0  0  0  0  0  0  0  0
    6.6004   -5.5106    3.3844 O   0  0  0  0  0  0  0  0  0  0  0  0
    2.1881   -2.7297   -1.4272 H   0  0  0  0  0  0  0  0  0  0  0  0
    3.8591   -2.8672   -2.1911 H   0  0  0  0  0  0  0  0  0  0  0  0
    5.0341   -5.4129   -0.9377 H   0  0  0  0  0  0  0  0  0  0  0  0
    5.6276   -3.8132   -0.9603 H   0  0  0  0  0  0  0  0  0  0  0  0
    6.4137   -5.5549    0.9443 H   0  0  0  0  0  0  0  0  0  0  0  0
    8.0532   -2.4453    1.2139 H   0  0  0  0  0  0  0  0  0  0  0  0
    7.4750   -3.0970   -0.2695 H   0  0  0  0  0  0  0  0  0  0  0  0
    8.2897   -4.1719    0.8953 H   0  0  0  0  0  0  0  0  0  0  0  0
    4.2181   -6.4955    0.6016 H   0  0  0  0  0  0  0  0  0  0  0  0
    4.6164   -7.2508    1.6993 H   0  0  0  0  0  0  0  0  0  0  0  0
    0.5540   -6.5028    3.0183 H   0  0  0  0  0  0  0  0  0  0  0  0
    0.9618   -4.9315    2.4664 H   0  0  0  0  0  0  0  0  0  0  0  0
    1.7599   -5.5226    3.7908 H   0  0  0  0  0  0  0  0  0  0  0  0
    2.5288   -6.2600   -0.3198 H   0  0  0  0  0  0  0  0  0  0  0  0
    0.7131   -5.5001   -0.7047 H   0  0  0  0  0  0  0  0  0  0  0  0
    1.8393   -3.6101    0.7370 H   0  0  0  0  0  0  0  0  0  0  0  0
    4.1264   -3.2034    1.6760 H   0  0  0  0  0  0  0  0  0  0  0  0
    2.0080   -2.6809    2.8268 H   0  0  0  0  0  0  0  0  0  0  0  0
    2.5854   -3.7789    4.0050 H   0  0  0  0  0  0  0  0  0  0  0  0
    5.7705    0.1513    2.4235 H   0  0  0  0  0  0  0  0  0  0  0  0
    6.1751   -0.7892    3.8401 H   0  0  0  0  0  0  0  0  0  0  0  0
    4.9238    0.4617    3.9492 H   0  0  0  0  0  0  0  0  0  0  0  0
    1.5905   -8.3550    2.8327 H   0  0  0  0  0  0  0  0  0  0  0  0
    3.9089   -8.9214    1.4255 H   0  0  0  0  0  0  0  0  0  0  0  0
    3.1338   -6.8459    4.0740 H   0  0  0  0  0  0  0  0  0  0  0  0
    1.7075   -8.4021    5.0881 H   0  0  0  0  0  0  0  0  0  0  0  0
    3.1601   -9.0923    5.7047 H   0  0  0  0  0  0  0  0  0  0  0  0
    2.8284   -6.8841    8.5483 H   0  0  0  0  0  0  0  0  0  0  0  0
    3.5253   -8.3729    7.9477 H   0  0  0  0  0  0  0  0  0  0  0  0
    1.7777   -8.1473    7.9478 H   0  0  0  0  0  0  0  0  0  0  0  0
    0.9099   -6.1323    5.5850 H   0  0  0  0  0  0  0  0  0  0  0  0
    1.2941   -5.6078    7.2488 H   0  0  0  0  0  0  0  0  0  0  0  0
    4.0945   -5.4944    7.1582 H   0  0  0  0  0  0  0  0  0  0  0  0
    5.6826   -5.0025    5.6346 H   0  0  0  0  0  0  0  0  0  0  0  0
    7.8391   -7.3036    4.5198 H   0  0  0  0  0  0  0  0  0  0  0  0
    7.6284   -8.1491    5.9845 H   0  0  0  0  0  0  0  0  0  0  0  0
    7.7024   -6.4112    6.0418 H   0  0  0  0  0  0  0  0  0  0  0  0
    4.5272   -8.1523    6.3464 H   0  0  0  0  0  0  0  0  0  0  0  0
    5.3522   -8.5797    2.4929 H   0  0  0  0  0  0  0  0  0  0  0  0
    7.1225   -6.0526    3.9493 H   0  0  0  0  0  0  0  0  0  0  0  0
  1  2  2  0
  1 37  1  0
  1 38  1  0
  2 13  1  0
  2  3  1  0
  3  4  1  0
  3 39  1  0
  3 40  1  0
  4  5  1  0
  4  7  1  0
  4 41  1  6
  5  6  1  0
  6 42  1  0
  6 43  1  0
  6 44  1  0
  7 14  1  0
  7 35  1  0
  7  8  1  6
  8  9  1  0
  8 45  1  0
  8 46  1  0
  9 10  1  1
  9 11  1  0
  9 20  1  0
 10 47  1  0
 10 48  1  0
 10 49  1  0
 11 12  1  0
 11 13  1  0
 11 50  1  6
 12 51  1  0
 13 14  1  0
 13 52  1  1
 14 15  1  0
 14 53  1  6
 15 16  1  0
 15 54  1  0
 15 55  1  0
 16 17  2  0
 16 18  1  0
 18 19  1  0
 19 56  1  0
 19 57  1  0
 19 58  1  0
 20 21  1  0
 20 22  1  0
 20 59  1  1
 21 60  1  0
 22 33  1  0
 22 23  1  0
 22 61  1  1
 23 24  1  0
 23 62  1  0
 23 63  1  0
 24 28  1  0
 24 25  1  1
 24 26  1  0
 25 64  1  0
 25 65  1  0
 25 66  1  0
 26 27  1  0
 26 67  1  0
 26 68  1  0
 27 28  1  0
 28 29  1  0
 28 69  1  1
 29 35  1  0
 29 30  1  0
 29 70  1  1
 30 31  1  0
 30 32  1  1
 30 33  1  0
 31 71  1  0
 31 72  1  0
 31 73  1  0
 32 74  1  0
 33 34  1  6
 33 35  1  0
 34 75  1  0
 35 36  1  1
 36 76  1  0
M  END
>  <i_m_ct_stereo_status>  (120) 
1

>  <s_m_source_file>  (120) 
/var/tmp/pbs.5076255.sched01/tmpio9qf6gp/4214r_5_m5.sdf

>  <i_m_source_file_index>  (120) 
9

>  <i_lp_mmshare_version>  (120) 
48012

>  <i_f3d_flags>  (120) 
0

>  <s_epik_input>  (120) 
W0NIM11PW0NAQEhdMVtDSDJdQyg9W0NIMl0pW0NASF0oW0NASF0yW0NIMl1DKD1PKU9bQ0gzXSlbQ0BIXShbT0hdKVtDQEBdKFtDSDJdMykoW0NIM10pW0NAQEhdKFtPSF0pW0NASF0oW0NAXTQoW09IXSlbQ0BdNShbQ0gzXSlbT0hdKVtDSDJdW0NAXShbQ0gzXSkoW0NIMl1PNilbQ0BIXTZbQ0BASF01W0NAQF00KFtDQF0xMjMpW09IXQ==

>  <s_epik_cmdline>  (120) 
J2VwaWtfcHl0aG9uJywgJy1waHQnLCAnMi4wJywgJy1waCcsICc3LjAnLCAnLXRuJywgJzgnLCAnLW1hJywgJzIwMCcsICctaW1hZScsICc8aW5maWxlLm1hZT4nLCAnLW9tYWUnLCAnPG91dGZpbGUubWFlPic=

>  <r_lp_tautomer_probability>  (120) 
1

>  <r_epik_Ionization_Penalty>  (120) 
6.86663e-07

>  <r_epik_Ionization_Penalty_Charging>  (120) 
0

>  <r_epik_Ionization_Penalty_Neutral>  (120) 
6.86663e-07

>  <r_epik_State_Penalty>  (120) 
-0

>  <r_epik_Charging_Adjusted_Penalty>  (120) 
0

>  <i_epik_Tot_Q>  (120) 
0

>  <i_epik_Tot_abs_Q>  (120) 
0

>  <s_epik_Chemistry_Notes>  (120) 
This compound has an ester and may undergo hydrolysis at high or low pH.

>  <s_lp_Force_Field>  (120) 
OPLS3e

>  <r_lp_Energy>  (120) 
301.693

>  <b_lp_Chiralities_Consistent>  (120) 
1

>  <s_lp_Variant>  (120) 
36:0-1

>  <s_i_glide_gridfile>  (120) 
pfpi4k_grid

>  <i_i_glide_lignum>  (120) 
9

>  <i_i_glide_rotatable_bonds>  (120) 
9

>  <r_i_docking_score>  (120) 
-2.12731

>  <r_i_glide_ligand_efficiency>  (120) 
-0.0590918

>  <r_i_glide_ligand_efficiency_sa>  (120) 
-0.195117

>  <r_i_glide_ligand_efficiency_ln>  (120) 
-0.464121

>  <r_i_glide_gscore>  (120) 
-2.12731

>  <r_i_glide_lipo>  (120) 
-0.474622

>  <r_i_glide_hbond>  (120) 
-0.350748

>  <r_i_glide_metal>  (120) 
-0

>  <r_i_glide_rewards>  (120) 
-0.000127889

>  <r_i_glide_evdw>  (120) 
-14.11

>  <r_i_glide_ecoul>  (120) 
-5.03072

>  <r_i_glide_erotb>  (120) 
0.158302

>  <r_i_glide_esite>  (120) 
0

>  <r_i_glide_emodel>  (120) 
-18.6024

>  <r_i_glide_energy>  (120) 
-19.1407

>  <r_i_glide_einternal>  (120) 
8.82531

>  <r_i_glide_intrahb_reward>  (120) 
-0

>  <i_i_glide_confnum>  (120) 
3

>  <i_i_glide_posenum>  (120) 
3

>  <r_i_glide_eff_state_penalty>  (120) 
0

>  <ligand_id>  (120) 
36

>  <original_smiles>  (120) 
C=C1CC(OC)C23CC(C)(C(O)C1C2CC(=O)OC)C(O)C1CC2(C)COC2C2C(C)(O)C1(O)C23O

>  <smiles>  (120) 
[H]OC1([H])C2([H])C(=C([H])[H])C([H])([H])C([H])(OC([H])([H])[H])C3(C([H])([H])C1(C([H])([H])[H])C([H])(O[H])C1([H])C([H])([H])C4(C([H])([H])[H])C([H])([H])OC4([H])C4([H])C(O[H])(C([H])([H])[H])C1(O[H])C43O[H])C2([H])C([H])([H])C(=O)OC([H])([H])[H]

$$$$
36:0:2
     RDKit          3D

 76 81  0  0  1  0  0  0  0  0999 V2000
    4.5213   -0.5646    1.1417 C   0  0  0  0  0  0  0  0  0  0  0  0
    4.5278   -1.7598    1.7440 C   0  0  0  0  0  0  0  0  0  0  0  0
    5.5202   -2.0870    2.8769 C   0  0  0  0  0  0  0  0  0  0  0  0
    4.9737   -3.0487    4.0322 C   0  0  1  0  0  0  0  0  0  0  0  0
    4.3599   -2.3194    5.1155 O   0  0  0  0  0  0  0  0  0  0  0  0
    4.7861   -0.9881    5.3742 C   0  0  0  0  0  0  0  0  0  0  0  0
    3.9446   -4.2150    3.5626 C   0  0  2  0  0  0  0  0  0  0  0  0
    4.6882   -4.8887    2.4519 C   0  0  0  0  0  0  0  0  0  0  0  0
    3.8725   -5.3321    1.1969 C   0  0  1  0  0  0  0  0  0  0  0  0
    2.3244   -5.4075    0.8705 C   0  0  0  0  0  0  0  0  0  0  0  0
    4.1599   -3.9838    0.4384 C   0  0  1  0  0  0  0  0  0  0  0  0
    3.6724   -3.8838   -0.8917 O   0  0  0  0  0  0  0  0  0  0  0  0
    3.4917   -2.8324    1.3923 C   0  0  1  0  0  0  0  0  0  0  0  0
    2.8796   -3.2880    2.8301 C   0  0  1  0  0  0  0  0  0  0  0  0
    1.3338   -3.3832    3.0436 C   0  0  0  0  0  0  0  0  0  0  0  0
    0.8031   -3.2712    4.4791 C   0  0  0  0  0  0  0  0  0  0  0  0
    0.2337   -4.2309    5.0352 O   0  0  0  0  0  0  0  0  0  0  0  0
    0.9299   -2.0702    5.0443 O   0  0  0  0  0  0  0  0  0  0  0  0
    0.4271   -1.8966    6.3554 C   0  0  0  0  0  0  0  0  0  0  0  0
    4.2898   -6.8641    1.2884 C   0  0  1  0  0  0  0  0  0  0  0  0
    5.6579   -7.1661    1.0706 O   0  0  0  0  0  0  0  0  0  0  0  0
    3.7014   -7.4594    2.6953 C   0  0  1  0  0  0  0  0  0  0  0  0
    2.6274   -8.5898    2.6021 C   0  0  0  0  0  0  0  0  0  0  0  0
    1.2736   -8.3036    3.3644 C   0  0  2  0  0  0  0  0  0  0  0  0
    0.6628   -9.6499    3.8116 C   0  0  0  0  0  0  0  0  0  0  0  0
    0.2009   -7.4819    2.6298 C   0  0  0  0  0  0  0  0  0  0  0  0
    0.4680   -6.3076    3.4278 O   0  0  0  0  0  0  0  0  0  0  0  0
    1.2119   -7.1021    4.3699 C   0  0  2  0  0  0  0  0  0  0  0  0
    2.4590   -6.4367    5.1027 C   0  0  1  0  0  0  0  0  0  0  0  0
    3.5192   -7.5318    5.4564 C   0  0  1  0  0  0  0  0  0  0  0  0
    4.2422   -7.5292    6.8322 C   0  0  0  0  0  0  0  0  0  0  0  0
    3.1082   -8.8765    5.4572 O   0  0  0  0  0  0  0  0  0  0  0  0
    4.2228   -7.0043    4.1680 C   0  0  1  0  0  0  0  0  0  0  0  0
    5.6054   -7.2987    4.2790 O   0  0  0  0  0  0  0  0  0  0  0  0
    3.6986   -5.5220    4.5940 C   0  0  1  0  0  0  0  0  0  0  0  0
    4.2968   -4.9650    5.7475 O   0  0  0  0  0  0  0  0  0  0  0  0
    3.8057   -0.3060    0.3692 H   0  0  0  0  0  0  0  0  0  0  0  0
    5.2441    0.1779    1.4295 H   0  0  0  0  0  0  0  0  0  0  0  0
    6.3660   -2.5665    2.3605 H   0  0  0  0  0  0  0  0  0  0  0  0
    5.9245   -1.1524    3.2781 H   0  0  0  0  0  0  0  0  0  0  0  0
    5.8567   -3.5081    4.4666 H   0  0  0  0  0  0  0  0  0  0  0  0
    4.3430   -0.6237    6.2919 H   0  0  0  0  0  0  0  0  0  0  0  0
    4.4827   -0.3395    4.5402 H   0  0  0  0  0  0  0  0  0  0  0  0
    5.8669   -0.9210    5.4835 H   0  0  0  0  0  0  0  0  0  0  0  0
    5.5672   -4.3566    2.1466 H   0  0  0  0  0  0  0  0  0  0  0  0
    5.4492   -5.5408    2.8324 H   0  0  0  0  0  0  0  0  0  0  0  0
    2.1503   -6.1087    0.0541 H   0  0  0  0  0  0  0  0  0  0  0  0
    1.8367   -4.4937    0.5366 H   0  0  0  0  0  0  0  0  0  0  0  0
    1.6955   -5.7154    1.6595 H   0  0  0  0  0  0  0  0  0  0  0  0
    5.2243   -3.8050    0.2709 H   0  0  0  0  0  0  0  0  0  0  0  0
    3.8082   -4.7154   -1.3293 H   0  0  0  0  0  0  0  0  0  0  0  0
    2.6893   -2.3454    0.8267 H   0  0  0  0  0  0  0  0  0  0  0  0
    2.8938   -2.3387    3.3600 H   0  0  0  0  0  0  0  0  0  0  0  0
    0.9063   -2.5318    2.5179 H   0  0  0  0  0  0  0  0  0  0  0  0
    0.8665   -4.2280    2.5723 H   0  0  0  0  0  0  0  0  0  0  0  0
    0.5995   -0.8768    6.6927 H   0  0  0  0  0  0  0  0  0  0  0  0
    0.9256   -2.5933    7.0316 H   0  0  0  0  0  0  0  0  0  0  0  0
   -0.6446   -2.1108    6.3916 H   0  0  0  0  0  0  0  0  0  0  0  0
    3.8058   -7.3947    0.4678 H   0  0  0  0  0  0  0  0  0  0  0  0
    6.1848   -6.7358    1.7189 H   0  0  0  0  0  0  0  0  0  0  0  0
    2.9104   -6.7702    2.7093 H   0  0  0  0  0  0  0  0  0  0  0  0
    2.3815   -8.7566    1.5519 H   0  0  0  0  0  0  0  0  0  0  0  0
    3.0694   -9.5316    2.9222 H   0  0  0  0  0  0  0  0  0  0  0  0
   -0.2335   -9.4932    4.4166 H   0  0  0  0  0  0  0  0  0  0  0  0
    1.3374  -10.2649    4.4051 H   0  0  0  0  0  0  0  0  0  0  0  0
    0.3518  -10.2442    2.9515 H   0  0  0  0  0  0  0  0  0  0  0  0
    0.3815   -7.3621    1.5576 H   0  0  0  0  0  0  0  0  0  0  0  0
   -0.8204   -7.8230    2.8048 H   0  0  0  0  0  0  0  0  0  0  0  0
    0.5304   -7.3897    5.1724 H   0  0  0  0  0  0  0  0  0  0  0  0
    2.0672   -5.9994    6.0260 H   0  0  0  0  0  0  0  0  0  0  0  0
    5.1607   -6.9447    6.8556 H   0  0  0  0  0  0  0  0  0  0  0  0
    4.5653   -8.5254    7.1355 H   0  0  0  0  0  0  0  0  0  0  0  0
    3.5840   -7.1727    7.6213 H   0  0  0  0  0  0  0  0  0  0  0  0
    2.6737   -9.0309    4.6285 H   0  0  0  0  0  0  0  0  0  0  0  0
    6.0337   -6.9250    3.5311 H   0  0  0  0  0  0  0  0  0  0  0  0
    5.2261   -5.0443    5.6211 H   0  0  0  0  0  0  0  0  0  0  0  0
  1  2  2  0
  1 37  1  0
  1 38  1  0
  2 13  1  0
  2  3  1  0
  3  4  1  0
  3 39  1  0
  3 40  1  0
  4  5  1  0
  4  7  1  0
  4 41  1  1
  5  6  1  0
  6 42  1  0
  6 43  1  0
  6 44  1  0
  7 14  1  0
  7 35  1  0
  7  8  1  6
  8  9  1  0
  8 45  1  0
  8 46  1  0
  9 10  1  1
  9 11  1  0
  9 20  1  0
 10 47  1  0
 10 48  1  0
 10 49  1  0
 11 12  1  0
 11 13  1  0
 11 50  1  6
 12 51  1  0
 13 14  1  0
 13 52  1  6
 14 15  1  0
 14 53  1  1
 15 16  1  0
 15 54  1  0
 15 55  1  0
 16 17  2  0
 16 18  1  0
 18 19  1  0
 19 56  1  0
 19 57  1  0
 19 58  1  0
 20 21  1  0
 20 22  1  0
 20 59  1  6
 21 60  1  0
 22 33  1  0
 22 23  1  0
 22 61  1  1
 23 24  1  0
 23 62  1  0
 23 63  1  0
 24 28  1  0
 24 25  1  1
 24 26  1  0
 25 64  1  0
 25 65  1  0
 25 66  1  0
 26 27  1  0
 26 67  1  0
 26 68  1  0
 27 28  1  0
 28 29  1  0
 28 69  1  1
 29 35  1  0
 29 30  1  0
 29 70  1  1
 30 31  1  0
 30 32  1  6
 30 33  1  0
 31 71  1  0
 31 72  1  0
 31 73  1  0
 32 74  1  0
 33 34  1  1
 33 35  1  0
 34 75  1  0
 35 36  1  1
 36 76  1  0
M  END
>  <i_m_ct_stereo_status>  (121) 
1

>  <s_m_source_file>  (121) 
/var/tmp/pbs.5076255.sched01/tmpio9qf6gp/4214r_5_m5.sdf

>  <i_m_source_file_index>  (121) 
9

>  <i_lp_mmshare_version>  (121) 
48012

>  <i_f3d_flags>  (121) 
0

>  <s_epik_input>  (121) 
W0NIM11PW0NAQEhdMVtDSDJdQyg9W0NIMl0pW0NASF0oW0NASF0yW0NIMl1DKD1PKU9bQ0gzXSlbQ0BIXShbT0hdKVtDQEBdKFtDSDJdMykoW0NIM10pW0NAQEhdKFtPSF0pW0NASF0oW0NAXTQoW09IXSlbQ0BdNShbQ0gzXSlbT0hdKVtDSDJdW0NAXShbQ0gzXSkoW0NIMl1PNilbQ0BIXTZbQ0BASF01W0NAQF00KFtDQF0xMjMpW09IXQ==

>  <s_epik_cmdline>  (121) 
J2VwaWtfcHl0aG9uJywgJy1waHQnLCAnMi4wJywgJy1waCcsICc3LjAnLCAnLXRuJywgJzgnLCAnLW1hJywgJzIwMCcsICctaW1hZScsICc8aW5maWxlLm1hZT4nLCAnLW9tYWUnLCAnPG91dGZpbGUubWFlPic=

>  <r_lp_tautomer_probability>  (121) 
1

>  <r_epik_Ionization_Penalty>  (121) 
6.86663e-07

>  <r_epik_Ionization_Penalty_Charging>  (121) 
0

>  <r_epik_Ionization_Penalty_Neutral>  (121) 
6.86663e-07

>  <r_epik_State_Penalty>  (121) 
-0

>  <r_epik_Charging_Adjusted_Penalty>  (121) 
0

>  <i_epik_Tot_Q>  (121) 
0

>  <i_epik_Tot_abs_Q>  (121) 
0

>  <s_epik_Chemistry_Notes>  (121) 
This compound has an ester and may undergo hydrolysis at high or low pH.

>  <s_lp_Force_Field>  (121) 
OPLS3e

>  <r_lp_Energy>  (121) 
301.693

>  <b_lp_Chiralities_Consistent>  (121) 
1

>  <s_lp_Variant>  (121) 
36:0-1

>  <s_i_glide_gridfile>  (121) 
pfpi4k_grid

>  <i_i_glide_lignum>  (121) 
9

>  <i_i_glide_rotatable_bonds>  (121) 
9

>  <r_i_docking_score>  (121) 
-1.99599

>  <r_i_glide_ligand_efficiency>  (121) 
-0.055444

>  <r_i_glide_ligand_efficiency_sa>  (121) 
-0.183072

>  <r_i_glide_ligand_efficiency_ln>  (121) 
-0.43547

>  <r_i_glide_gscore>  (121) 
-1.99599

>  <r_i_glide_lipo>  (121) 
-0.421842

>  <r_i_glide_hbond>  (121) 
-0.259653

>  <r_i_glide_metal>  (121) 
-0

>  <r_i_glide_rewards>  (121) 
-0.0289034

>  <r_i_glide_evdw>  (121) 
-20.4899

>  <r_i_glide_ecoul>  (121) 
-2.79595

>  <r_i_glide_erotb>  (121) 
0.158302

>  <r_i_glide_esite>  (121) 
0

>  <r_i_glide_emodel>  (121) 
-19.9542

>  <r_i_glide_energy>  (121) 
-23.2859

>  <r_i_glide_einternal>  (121) 
13.8984

>  <r_i_glide_intrahb_reward>  (121) 
-0

>  <i_i_glide_confnum>  (121) 
3

>  <i_i_glide_posenum>  (121) 
1

>  <r_i_glide_eff_state_penalty>  (121) 
0

>  <ligand_id>  (121) 
36

>  <original_smiles>  (121) 
C=C1CC(OC)C23CC(C)(C(O)C1C2CC(=O)OC)C(O)C1CC2(C)COC2C2C(C)(O)C1(O)C23O

>  <smiles>  (121) 
[H]OC1([H])C2([H])C(=C([H])[H])C([H])([H])C([H])(OC([H])([H])[H])C3(C([H])([H])C1(C([H])([H])[H])C([H])(O[H])C1([H])C([H])([H])C4(C([H])([H])[H])C([H])([H])OC4([H])C4([H])C(O[H])(C([H])([H])[H])C1(O[H])C43O[H])C2([H])C([H])([H])C(=O)OC([H])([H])[H]

$$$$
36:1:0
     RDKit          3D

 76 81  0  0  1  0  0  0  0  0999 V2000
   -2.9613    3.1136    3.5579 C   0  0  0  0  0  0  0  0  0  0  0  0
   -1.7260    2.7801    3.9478 C   0  0  0  0  0  0  0  0  0  0  0  0
   -0.4970    3.4531    3.3033 C   0  0  0  0  0  0  0  0  0  0  0  0
    0.8524    3.5302    4.1405 C   0  0  1  0  0  0  0  0  0  0  0  0
    0.9356    4.8255    4.7436 O   0  0  0  0  0  0  0  0  0  0  0  0
    1.3376    5.8817    3.8763 C   0  0  0  0  0  0  0  0  0  0  0  0
    1.0255    2.3847    5.2563 C   0  0  2  0  0  0  0  0  0  0  0  0
    0.9538    1.1555    4.3976 C   0  0  0  0  0  0  0  0  0  0  0  0
    0.2845   -0.0407    5.0801 C   0  0  1  0  0  0  0  0  0  0  0  0
   -0.0049   -0.2205    6.5745 C   0  0  0  0  0  0  0  0  0  0  0  0
   -1.1528    0.2884    4.5463 C   0  0  1  0  0  0  0  0  0  0  0  0
   -2.1749   -0.6254    4.9188 O   0  0  0  0  0  0  0  0  0  0  0  0
   -1.4915    1.7882    5.0936 C   0  0  1  0  0  0  0  0  0  0  0  0
   -0.3872    2.5379    5.9948 C   0  0  1  0  0  0  0  0  0  0  0  0
   -0.5216    2.6235    7.5504 C   0  0  0  0  0  0  0  0  0  0  0  0
   -1.8770    3.0720    8.1298 C   0  0  0  0  0  0  0  0  0  0  0  0
   -2.8436    3.3641    7.4314 O   0  0  0  0  0  0  0  0  0  0  0  0
   -1.8651    3.0563    9.4731 O   0  0  0  0  0  0  0  0  0  0  0  0
   -3.0375    3.3848   10.1998 C   0  0  0  0  0  0  0  0  0  0  0  0
    1.4236   -1.0972    4.9029 C   0  0  1  0  0  0  0  0  0  0  0  0
    1.7140   -1.3921    3.5443 O   0  0  0  0  0  0  0  0  0  0  0  0
    2.7477   -0.6754    5.7822 C   0  0  2  0  0  0  0  0  0  0  0  0
    2.7392   -1.3412    7.2430 C   0  0  0  0  0  0  0  0  0  0  0  0
    2.7091   -0.5439    8.6121 C   0  0  2  0  0  0  0  0  0  0  0  0
    3.7112   -1.2312    9.5628 C   0  0  0  0  0  0  0  0  0  0  0  0
    1.3924   -0.3314    9.3841 C   0  0  0  0  0  0  0  0  0  0  0  0
    1.3939    1.0960    9.1390 O   0  0  0  0  0  0  0  0  0  0  0  0
    2.7251    1.0020    8.6073 C   0  0  2  0  0  0  0  0  0  0  0  0
    3.1384    1.8963    7.4001 C   0  0  1  0  0  0  0  0  0  0  0  0
    4.4143    1.3261    6.7060 C   0  0  1  0  0  0  0  0  0  0  0  0
    5.6227    2.2395    6.3689 C   0  0  0  0  0  0  0  0  0  0  0  0
    5.1483    0.3258    7.3654 O   0  0  0  0  0  0  0  0  0  0  0  0
    3.3999    0.8157    5.6348 C   0  0  1  0  0  0  0  0  0  0  0  0
    4.0496    0.7915    4.3711 O   0  0  0  0  0  0  0  0  0  0  0  0
    2.5307    2.1475    5.9387 C   0  0  1  0  0  0  0  0  0  0  0  0
    3.1238    3.3453    5.4746 O   0  0  0  0  0  0  0  0  0  0  0  0
   -3.8301    2.6742    4.0235 H   0  0  0  0  0  0  0  0  0  0  0  0
   -3.1257    3.8264    2.7611 H   0  0  0  0  0  0  0  0  0  0  0  0
   -0.3109    2.8860    2.3947 H   0  0  0  0  0  0  0  0  0  0  0  0
   -0.7965    4.4379    2.9438 H   0  0  0  0  0  0  0  0  0  0  0  0
    1.6704    3.4462    3.4202 H   0  0  0  0  0  0  0  0  0  0  0  0
    1.4219    6.8020    4.4563 H   0  0  0  0  0  0  0  0  0  0  0  0
    0.6190    6.0674    3.0770 H   0  0  0  0  0  0  0  0  0  0  0  0
    2.3124    5.6811    3.4280 H   0  0  0  0  0  0  0  0  0  0  0  0
    0.5129    1.3032    3.4231 H   0  0  0  0  0  0  0  0  0  0  0  0
    1.8578    0.9890    3.8507 H   0  0  0  0  0  0  0  0  0  0  0  0
   -0.0210   -1.2690    6.8714 H   0  0  0  0  0  0  0  0  0  0  0  0
   -0.9697    0.1316    6.9338 H   0  0  0  0  0  0  0  0  0  0  0  0
    0.7652    0.3117    7.0859 H   0  0  0  0  0  0  0  0  0  0  0  0
   -1.2088    0.2502    3.4551 H   0  0  0  0  0  0  0  0  0  0  0  0
   -2.9452   -0.3868    4.4198 H   0  0  0  0  0  0  0  0  0  0  0  0
   -2.4263    1.7194    5.6462 H   0  0  0  0  0  0  0  0  0  0  0  0
   -0.6570    3.5892    5.8959 H   0  0  0  0  0  0  0  0  0  0  0  0
   -0.3717    1.6821    8.0423 H   0  0  0  0  0  0  0  0  0  0  0  0
    0.2407    3.3046    7.9347 H   0  0  0  0  0  0  0  0  0  0  0  0
   -2.8415    3.3421   11.2718 H   0  0  0  0  0  0  0  0  0  0  0  0
   -3.8422    2.6868    9.9741 H   0  0  0  0  0  0  0  0  0  0  0  0
   -3.3726    4.3918    9.9568 H   0  0  0  0  0  0  0  0  0  0  0  0
    1.0789   -2.0710    5.2509 H   0  0  0  0  0  0  0  0  0  0  0  0
    2.0298   -0.6047    3.1220 H   0  0  0  0  0  0  0  0  0  0  0  0
    3.4933   -1.3160    5.3054 H   0  0  0  0  0  0  0  0  0  0  0  0
    1.9642   -2.1012    7.2818 H   0  0  0  0  0  0  0  0  0  0  0  0
    3.6368   -1.9611    7.2544 H   0  0  0  0  0  0  0  0  0  0  0  0
    3.8037   -0.6853   10.5036 H   0  0  0  0  0  0  0  0  0  0  0  0
    4.7166   -1.3131    9.1588 H   0  0  0  0  0  0  0  0  0  0  0  0
    3.3819   -2.2346    9.8238 H   0  0  0  0  0  0  0  0  0  0  0  0
    0.5241   -0.8455    8.9857 H   0  0  0  0  0  0  0  0  0  0  0  0
    1.4650   -0.5356   10.4541 H   0  0  0  0  0  0  0  0  0  0  0  0
    3.4125    1.3101    9.3993 H   0  0  0  0  0  0  0  0  0  0  0  0
    3.3729    2.8696    7.8298 H   0  0  0  0  0  0  0  0  0  0  0  0
    5.4330    3.0629    5.6907 H   0  0  0  0  0  0  0  0  0  0  0  0
    6.4426    1.6844    5.9073 H   0  0  0  0  0  0  0  0  0  0  0  0
    6.0381    2.6805    7.2748 H   0  0  0  0  0  0  0  0  0  0  0  0
    5.7314   -0.0402    6.7193 H   0  0  0  0  0  0  0  0  0  0  0  0
    4.2288    1.6908    4.1493 H   0  0  0  0  0  0  0  0  0  0  0  0
    3.0794    3.3474    4.5289 H   0  0  0  0  0  0  0  0  0  0  0  0
  1  2  2  0
  1 37  1  0
  1 38  1  0
  2 13  1  0
  2  3  1  0
  3  4  1  0
  3 39  1  0
  3 40  1  0
  4  5  1  0
  4  7  1  0
  4 41  1  6
  5  6  1  0
  6 42  1  0
  6 43  1  0
  6 44  1  0
  7 14  1  0
  7 35  1  0
  7  8  1  6
  8  9  1  0
  8 45  1  0
  8 46  1  0
  9 10  1  1
  9 11  1  0
  9 20  1  0
 10 47  1  0
 10 48  1  0
 10 49  1  0
 11 12  1  0
 11 13  1  0
 11 50  1  6
 12 51  1  0
 13 14  1  0
 13 52  1  1
 14 15  1  0
 14 53  1  6
 15 16  1  0
 15 54  1  0
 15 55  1  0
 16 17  2  0
 16 18  1  0
 18 19  1  0
 19 56  1  0
 19 57  1  0
 19 58  1  0
 20 21  1  0
 20 22  1  0
 20 59  1  1
 21 60  1  0
 22 33  1  0
 22 23  1  0
 22 61  1  6
 23 24  1  0
 23 62  1  0
 23 63  1  0
 24 28  1  0
 24 25  1  1
 24 26  1  0
 25 64  1  0
 25 65  1  0
 25 66  1  0
 26 27  1  0
 26 67  1  0
 26 68  1  0
 27 28  1  0
 28 29  1  0
 28 69  1  1
 29 35  1  0
 29 30  1  0
 29 70  1  1
 30 31  1  0
 30 32  1  1
 30 33  1  0
 31 71  1  0
 31 72  1  0
 31 73  1  0
 32 74  1  0
 33 34  1  6
 33 35  1  0
 34 75  1  0
 35 36  1  6
 36 76  1  0
M  END
>  <i_m_ct_stereo_status>  (122) 
1

>  <s_m_source_file>  (122) 
/var/tmp/pbs.5076255.sched01/tmpio9qf6gp/4214r_5_m5.sdf

>  <i_m_source_file_index>  (122) 
10

>  <i_lp_mmshare_version>  (122) 
48012

>  <i_f3d_flags>  (122) 
0

>  <s_epik_input>  (122) 
W0NIM11PW0NAQEhdMVtDSDJdQyg9W0NIMl0pW0NASF0oW0NASF0yW0NIMl1DKD1PKU9bQ0gzXSlbQ0BIXShbT0hdKVtDQEBdKFtDSDJdMykoW0NIM10pW0NAQEhdKFtPSF0pW0NASF0oW0NAXTQoW09IXSlbQ0BdNShbQ0gzXSlbT0hdKVtDSDJdW0NAXShbQ0gzXSkoW0NIMl1PNilbQ0BIXTZbQ0BASF01W0NAQF00KFtDQF0xMjMpW09IXQ==

>  <s_epik_cmdline>  (122) 
J2VwaWtfcHl0aG9uJywgJy1waHQnLCAnMi4wJywgJy1waCcsICc3LjAnLCAnLXRuJywgJzgnLCAnLW1hJywgJzIwMCcsICctaW1hZScsICc8aW5maWxlLm1hZT4nLCAnLW9tYWUnLCAnPG91dGZpbGUubWFlPic=

>  <r_lp_tautomer_probability>  (122) 
1

>  <r_epik_Ionization_Penalty>  (122) 
6.86663e-07

>  <r_epik_Ionization_Penalty_Charging>  (122) 
0

>  <r_epik_Ionization_Penalty_Neutral>  (122) 
6.86663e-07

>  <r_epik_State_Penalty>  (122) 
-0

>  <r_epik_Charging_Adjusted_Penalty>  (122) 
0

>  <i_epik_Tot_Q>  (122) 
0

>  <i_epik_Tot_abs_Q>  (122) 
0

>  <s_epik_Chemistry_Notes>  (122) 
This compound has an ester and may undergo hydrolysis at high or low pH.

>  <s_lp_Force_Field>  (122) 
OPLS3e

>  <r_lp_Energy>  (122) 
271.946

>  <b_lp_Chiralities_Consistent>  (122) 
1

>  <s_lp_Variant>  (122) 
36:0-2

>  <s_i_glide_gridfile>  (122) 
pfpi4k_grid

>  <i_i_glide_lignum>  (122) 
10

>  <i_i_glide_rotatable_bonds>  (122) 
9

>  <r_i_docking_score>  (122) 
-2.03156

>  <r_i_glide_ligand_efficiency>  (122) 
-0.0564322

>  <r_i_glide_ligand_efficiency_sa>  (122) 
-0.186335

>  <r_i_glide_ligand_efficiency_ln>  (122) 
-0.443231

>  <r_i_glide_gscore>  (122) 
-2.03156

>  <r_i_glide_lipo>  (122) 
-0.0294122

>  <r_i_glide_hbond>  (122) 
-0.297386

>  <r_i_glide_metal>  (122) 
-0

>  <r_i_glide_rewards>  (122) 
0

>  <r_i_glide_evdw>  (122) 
-23.4363

>  <r_i_glide_ecoul>  (122) 
-4.57297

>  <r_i_glide_erotb>  (122) 
0.158302

>  <r_i_glide_esite>  (122) 
-0.00529935

>  <r_i_glide_emodel>  (122) 
-29.381

>  <r_i_glide_energy>  (122) 
-28.0093

>  <r_i_glide_einternal>  (122) 
4.51526

>  <r_i_glide_intrahb_reward>  (122) 
-0

>  <i_i_glide_confnum>  (122) 
3

>  <i_i_glide_posenum>  (122) 
21

>  <r_i_glide_eff_state_penalty>  (122) 
0

>  <ligand_id>  (122) 
36

>  <original_smiles>  (122) 
C=C1CC(OC)C23CC(C)(C(O)C1C2CC(=O)OC)C(O)C1CC2(C)COC2C2C(C)(O)C1(O)C23O

>  <smiles>  (122) 
[H]OC1([H])C2([H])C(=C([H])[H])C([H])([H])C([H])(OC([H])([H])[H])C3(C([H])([H])C1(C([H])([H])[H])C([H])(O[H])C1([H])C([H])([H])C4(C([H])([H])[H])C([H])([H])OC4([H])C4([H])C(O[H])(C([H])([H])[H])C1(O[H])C43O[H])C2([H])C([H])([H])C(=O)OC([H])([H])[H]

$$$$
36:1:1
     RDKit          3D

 76 81  0  0  1  0  0  0  0  0999 V2000
   -2.5816    3.3383    3.4415 C   0  0  0  0  0  0  0  0  0  0  0  0
   -1.4274    3.0549    4.0697 C   0  0  0  0  0  0  0  0  0  0  0  0
   -0.1537    3.8810    3.7833 C   0  0  0  0  0  0  0  0  0  0  0  0
    0.9659    3.9707    4.9118 C   0  0  1  0  0  0  0  0  0  0  0  0
    0.7875    5.1971    5.6299 O   0  0  0  0  0  0  0  0  0  0  0  0
    1.2934    6.3528    4.9629 C   0  0  0  0  0  0  0  0  0  0  0  0
    0.9816    2.7430    5.9377 C   0  0  2  0  0  0  0  0  0  0  0  0
    1.2144    1.5989    5.0056 C   0  0  0  0  0  0  0  0  0  0  0  0
    0.5175    0.3011    5.4195 C   0  0  1  0  0  0  0  0  0  0  0  0
   -0.0705   -0.0501    6.7921 C   0  0  0  0  0  0  0  0  0  0  0  0
   -0.7817    0.5643    4.5930 C   0  0  1  0  0  0  0  0  0  0  0  0
   -1.7852   -0.4443    4.6918 O   0  0  0  0  0  0  0  0  0  0  0  0
   -1.3653    1.9714    5.1453 C   0  0  1  0  0  0  0  0  0  0  0  0
   -0.5638    2.7122    6.3211 C   0  0  1  0  0  0  0  0  0  0  0  0
   -1.0145    2.6481    7.7962 C   0  0  0  0  0  0  0  0  0  0  0  0
   -2.4779    2.9757    8.1695 C   0  0  0  0  0  0  0  0  0  0  0  0
   -3.3773    2.9852    7.3221 O   0  0  0  0  0  0  0  0  0  0  0  0
   -2.7784    3.1658    9.4808 O   0  0  0  0  0  0  0  0  0  0  0  0
   -1.7948    3.0338   10.5047 C   0  0  0  0  0  0  0  0  0  0  0  0
    1.7507   -0.6613    5.4461 C   0  0  1  0  0  0  0  0  0  0  0  0
    2.3847   -0.7494    4.1777 O   0  0  0  0  0  0  0  0  0  0  0  0
    2.8126   -0.2389    6.6270 C   0  0  2  0  0  0  0  0  0  0  0  0
    2.5459   -1.0388    8.0025 C   0  0  0  0  0  0  0  0  0  0  0  0
    2.1462   -0.3692    9.3788 C   0  0  2  0  0  0  0  0  0  0  0  0
    2.9694   -1.0706   10.4685 C   0  0  0  0  0  0  0  0  0  0  0  0
    0.6816   -0.3011    9.8415 C   0  0  0  0  0  0  0  0  0  0  0  0
    0.6232    1.1193    9.6953 O   0  0  0  0  0  0  0  0  0  0  0  0
    2.0213    1.1624    9.4927 C   0  0  2  0  0  0  0  0  0  0  0  0
    2.5834    2.1933    8.4852 C   0  0  1  0  0  0  0  0  0  0  0  0
    4.0223    1.8147    8.0457 C   0  0  1  0  0  0  0  0  0  0  0  0
    5.2056    2.8078    8.0733 C   0  0  0  0  0  0  0  0  0  0  0  0
    4.6822    0.8112    8.7914 O   0  0  0  0  0  0  0  0  0  0  0  0
    3.3260    1.3081    6.7597 C   0  0  1  0  0  0  0  0  0  0  0  0
    4.2745    1.4555    5.7025 O   0  0  0  0  0  0  0  0  0  0  0  0
    2.2951    2.5408    6.9448 C   0  0  1  0  0  0  0  0  0  0  0  0
    2.8614    3.8098    6.6919 O   0  0  0  0  0  0  0  0  0  0  0  0
   -3.4857    2.7909    3.6699 H   0  0  0  0  0  0  0  0  0  0  0  0
   -2.6351    4.1154    2.6909 H   0  0  0  0  0  0  0  0  0  0  0  0
    0.2889    3.4309    2.8957 H   0  0  0  0  0  0  0  0  0  0  0  0
   -0.4577    4.8715    3.4431 H   0  0  0  0  0  0  0  0  0  0  0  0
    1.9276    4.0085    4.3982 H   0  0  0  0  0  0  0  0  0  0  0  0
    1.1606    7.2270    5.6040 H   0  0  0  0  0  0  0  0  0  0  0  0
    0.7730    6.5599    4.0254 H   0  0  0  0  0  0  0  0  0  0  0  0
    2.3602    6.2567    4.7486 H   0  0  0  0  0  0  0  0  0  0  0  0
    0.9809    1.8008    3.9728 H   0  0  0  0  0  0  0  0  0  0  0  0
    2.2319    1.5480    4.6842 H   0  0  0  0  0  0  0  0  0  0  0  0
   -0.0660   -1.1194    7.0038 H   0  0  0  0  0  0  0  0  0  0  0  0
   -1.1164    0.2045    6.9474 H   0  0  0  0  0  0  0  0  0  0  0  0
    0.5231    0.4770    7.5017 H   0  0  0  0  0  0  0  0  0  0  0  0
   -0.5923    0.6226    3.5183 H   0  0  0  0  0  0  0  0  0  0  0  0
   -2.4777   -0.1909    4.1161 H   0  0  0  0  0  0  0  0  0  0  0  0
   -2.3908    1.7722    5.4360 H   0  0  0  0  0  0  0  0  0  0  0  0
   -0.9208    3.7413    6.2466 H   0  0  0  0  0  0  0  0  0  0  0  0
   -0.9073    1.6818    8.2369 H   0  0  0  0  0  0  0  0  0  0  0  0
   -0.3401    3.3351    8.3006 H   0  0  0  0  0  0  0  0  0  0  0  0
   -2.2055    3.2489   11.4899 H   0  0  0  0  0  0  0  0  0  0  0  0
   -0.9570    3.7218   10.3518 H   0  0  0  0  0  0  0  0  0  0  0  0
   -1.4266    2.0070   10.5267 H   0  0  0  0  0  0  0  0  0  0  0  0
    1.4297   -1.6929    5.6172 H   0  0  0  0  0  0  0  0  0  0  0  0
    1.7538   -1.0571    3.5534 H   0  0  0  0  0  0  0  0  0  0  0  0
    3.6965   -0.7785    6.2752 H   0  0  0  0  0  0  0  0  0  0  0  0
    1.8468   -1.8462    7.7990 H   0  0  0  0  0  0  0  0  0  0  0  0
    3.4683   -1.6007    8.1552 H   0  0  0  0  0  0  0  0  0  0  0  0
    2.7967   -0.6098   11.4389 H   0  0  0  0  0  0  0  0  0  0  0  0
    4.0439   -1.0467   10.3118 H   0  0  0  0  0  0  0  0  0  0  0  0
    2.6740   -2.1097   10.5768 H   0  0  0  0  0  0  0  0  0  0  0  0
   -0.0178   -0.8507    9.2251 H   0  0  0  0  0  0  0  0  0  0  0  0
    0.5375   -0.5999   10.8746 H   0  0  0  0  0  0  0  0  0  0  0  0
    2.4866    1.4393   10.4385 H   0  0  0  0  0  0  0  0  0  0  0  0
    2.6502    3.1429    9.0165 H   0  0  0  0  0  0  0  0  0  0  0  0
    5.1012    3.6676    7.4171 H   0  0  0  0  0  0  0  0  0  0  0  0
    6.1436    2.3340    7.7667 H   0  0  0  0  0  0  0  0  0  0  0  0
    5.3674    3.1890    9.0812 H   0  0  0  0  0  0  0  0  0  0  0  0
    4.1101    0.0787    8.8006 H   0  0  0  0  0  0  0  0  0  0  0  0
    3.7962    1.4295    4.9028 H   0  0  0  0  0  0  0  0  0  0  0  0
    2.2850    4.4463    7.0698 H   0  0  0  0  0  0  0  0  0  0  0  0
  1  2  2  0
  1 37  1  0
  1 38  1  0
  2 13  1  0
  2  3  1  0
  3  4  1  0
  3 39  1  0
  3 40  1  0
  4  5  1  0
  4  7  1  0
  4 41  1  6
  5  6  1  0
  6 42  1  0
  6 43  1  0
  6 44  1  0
  7 14  1  0
  7 35  1  0
  7  8  1  6
  8  9  1  0
  8 45  1  0
  8 46  1  0
  9 10  1  1
  9 11  1  0
  9 20  1  0
 10 47  1  0
 10 48  1  0
 10 49  1  0
 11 12  1  0
 11 13  1  0
 11 50  1  6
 12 51  1  0
 13 14  1  0
 13 52  1  1
 14 15  1  0
 14 53  1  6
 15 16  1  0
 15 54  1  0
 15 55  1  0
 16 17  2  0
 16 18  1  0
 18 19  1  0
 19 56  1  0
 19 57  1  0
 19 58  1  0
 20 21  1  0
 20 22  1  0
 20 59  1  1
 21 60  1  0
 22 33  1  0
 22 23  1  0
 22 61  1  6
 23 24  1  0
 23 62  1  0
 23 63  1  0
 24 28  1  0
 24 25  1  1
 24 26  1  0
 25 64  1  0
 25 65  1  0
 25 66  1  0
 26 27  1  0
 26 67  1  0
 26 68  1  0
 27 28  1  0
 28 29  1  0
 28 69  1  1
 29 35  1  0
 29 30  1  0
 29 70  1  1
 30 31  1  0
 30 32  1  1
 30 33  1  0
 31 71  1  0
 31 72  1  0
 31 73  1  0
 32 74  1  0
 33 34  1  6
 33 35  1  0
 34 75  1  0
 35 36  1  1
 36 76  1  0
M  END
>  <i_m_ct_stereo_status>  (123) 
1

>  <s_m_source_file>  (123) 
/var/tmp/pbs.5076255.sched01/tmpio9qf6gp/4214r_5_m5.sdf

>  <i_m_source_file_index>  (123) 
10

>  <i_lp_mmshare_version>  (123) 
48012

>  <i_f3d_flags>  (123) 
0

>  <s_epik_input>  (123) 
W0NIM11PW0NAQEhdMVtDSDJdQyg9W0NIMl0pW0NASF0oW0NASF0yW0NIMl1DKD1PKU9bQ0gzXSlbQ0BIXShbT0hdKVtDQEBdKFtDSDJdMykoW0NIM10pW0NAQEhdKFtPSF0pW0NASF0oW0NAXTQoW09IXSlbQ0BdNShbQ0gzXSlbT0hdKVtDSDJdW0NAXShbQ0gzXSkoW0NIMl1PNilbQ0BIXTZbQ0BASF01W0NAQF00KFtDQF0xMjMpW09IXQ==

>  <s_epik_cmdline>  (123) 
J2VwaWtfcHl0aG9uJywgJy1waHQnLCAnMi4wJywgJy1waCcsICc3LjAnLCAnLXRuJywgJzgnLCAnLW1hJywgJzIwMCcsICctaW1hZScsICc8aW5maWxlLm1hZT4nLCAnLW9tYWUnLCAnPG91dGZpbGUubWFlPic=

>  <r_lp_tautomer_probability>  (123) 
1

>  <r_epik_Ionization_Penalty>  (123) 
6.86663e-07

>  <r_epik_Ionization_Penalty_Charging>  (123) 
0

>  <r_epik_Ionization_Penalty_Neutral>  (123) 
6.86663e-07

>  <r_epik_State_Penalty>  (123) 
-0

>  <r_epik_Charging_Adjusted_Penalty>  (123) 
0

>  <i_epik_Tot_Q>  (123) 
0

>  <i_epik_Tot_abs_Q>  (123) 
0

>  <s_epik_Chemistry_Notes>  (123) 
This compound has an ester and may undergo hydrolysis at high or low pH.

>  <s_lp_Force_Field>  (123) 
OPLS3e

>  <r_lp_Energy>  (123) 
271.946

>  <b_lp_Chiralities_Consistent>  (123) 
1

>  <s_lp_Variant>  (123) 
36:0-2

>  <s_i_glide_gridfile>  (123) 
pfpi4k_grid

>  <i_i_glide_lignum>  (123) 
10

>  <i_i_glide_rotatable_bonds>  (123) 
9

>  <r_i_docking_score>  (123) 
-2.01166

>  <r_i_glide_ligand_efficiency>  (123) 
-0.0558796

>  <r_i_glide_ligand_efficiency_sa>  (123) 
-0.18451

>  <r_i_glide_ligand_efficiency_ln>  (123) 
-0.438891

>  <r_i_glide_gscore>  (123) 
-2.01166

>  <r_i_glide_lipo>  (123) 
0

>  <r_i_glide_hbond>  (123) 
-0.279775

>  <r_i_glide_metal>  (123) 
-0

>  <r_i_glide_rewards>  (123) 
-0.0886348

>  <r_i_glide_evdw>  (123) 
-21.5946

>  <r_i_glide_ecoul>  (123) 
-4.81219

>  <r_i_glide_erotb>  (123) 
0.158302

>  <r_i_glide_esite>  (123) 
0

>  <r_i_glide_emodel>  (123) 
-24.4094

>  <r_i_glide_energy>  (123) 
-26.4068

>  <r_i_glide_einternal>  (123) 
10.0712

>  <r_i_glide_intrahb_reward>  (123) 
-0

>  <i_i_glide_confnum>  (123) 
4

>  <i_i_glide_posenum>  (123) 
24

>  <r_i_glide_eff_state_penalty>  (123) 
0

>  <ligand_id>  (123) 
36

>  <original_smiles>  (123) 
C=C1CC(OC)C23CC(C)(C(O)C1C2CC(=O)OC)C(O)C1CC2(C)COC2C2C(C)(O)C1(O)C23O

>  <smiles>  (123) 
[H]OC1([H])C2([H])C(=C([H])[H])C([H])([H])C([H])(OC([H])([H])[H])C3(C([H])([H])C1(C([H])([H])[H])C([H])(O[H])C1([H])C([H])([H])C4(C([H])([H])[H])C([H])([H])OC4([H])C4([H])C(O[H])(C([H])([H])[H])C1(O[H])C43O[H])C2([H])C([H])([H])C(=O)OC([H])([H])[H]

$$$$
36:1:2
     RDKit          3D

 76 81  0  0  1  0  0  0  0  0999 V2000
    5.5987   -1.1137    2.3228 C   0  0  0  0  0  0  0  0  0  0  0  0
    4.7064   -0.7131    3.2434 C   0  0  0  0  0  0  0  0  0  0  0  0
    5.0708   -0.6985    4.7469 C   0  0  0  0  0  0  0  0  0  0  0  0
    4.2818    0.3002    5.7036 C   0  0  1  0  0  0  0  0  0  0  0  0
    5.0849    1.4692    5.8587 O   0  0  0  0  0  0  0  0  0  0  0  0
    6.1528    1.3669    6.7879 C   0  0  0  0  0  0  0  0  0  0  0  0
    2.8093    0.7035    5.2050 C   0  0  2  0  0  0  0  0  0  0  0  0
    2.1681   -0.6498    5.1332 C   0  0  0  0  0  0  0  0  0  0  0  0
    1.1543   -0.8063    3.9970 C   0  0  1  0  0  0  0  0  0  0  0  0
    0.4946    0.2948    3.1646 C   0  0  0  0  0  0  0  0  0  0  0  0
    2.1925   -1.3488    2.9689 C   0  0  1  0  0  0  0  0  0  0  0  0
    1.6756   -1.7666    1.7370 O   0  0  0  0  0  0  0  0  0  0  0  0
    3.3290   -0.1880    2.8310 C   0  0  1  0  0  0  0  0  0  0  0  0
    3.1524    1.1469    3.7188 C   0  0  1  0  0  0  0  0  0  0  0  0
    2.6349    2.4622    3.0527 C   0  0  0  0  0  0  0  0  0  0  0  0
    2.8940    3.7771    3.8102 C   0  0  0  0  0  0  0  0  0  0  0  0
    3.5186    3.8337    4.8758 O   0  0  0  0  0  0  0  0  0  0  0  0
    2.3510    4.8281    3.1935 O   0  0  0  0  0  0  0  0  0  0  0  0
    2.3667    6.1051    3.8004 C   0  0  0  0  0  0  0  0  0  0  0  0
   -0.0830   -1.2681    4.8274 C   0  0  1  0  0  0  0  0  0  0  0  0
    0.0945   -2.4928    5.5176 O   0  0  0  0  0  0  0  0  0  0  0  0
   -0.5991   -0.0634    5.8123 C   0  0  2  0  0  0  0  0  0  0  0  0
   -1.7432    0.8254    5.1320 C   0  0  0  0  0  0  0  0  0  0  0  0
   -1.6411    2.3725    4.8140 C   0  0  2  0  0  0  0  0  0  0  0  0
   -2.9679    3.0238    5.2151 C   0  0  0  0  0  0  0  0  0  0  0  0
   -1.2839    2.8697    3.4060 C   0  0  0  0  0  0  0  0  0  0  0  0
   -0.0266    3.3889    3.8465 O   0  0  0  0  0  0  0  0  0  0  0  0
   -0.3782    3.1433    5.2000 C   0  0  2  0  0  0  0  0  0  0  0  0
    0.7048    2.6646    6.2151 C   0  0  1  0  0  0  0  0  0  0  0  0
    0.0423    2.0368    7.4859 C   0  0  1  0  0  0  0  0  0  0  0  0
    0.4852    2.4651    8.9140 C   0  0  0  0  0  0  0  0  0  0  0  0
   -1.3305    2.1822    7.6789 O   0  0  0  0  0  0  0  0  0  0  0  0
    0.4557    0.6923    6.8146 C   0  0  1  0  0  0  0  0  0  0  0  0
    0.6981   -0.2435    7.8402 O   0  0  0  0  0  0  0  0  0  0  0  0
    1.7569    1.4536    6.2464 C   0  0  1  0  0  0  0  0  0  0  0  0
    2.7132    1.7711    7.2389 O   0  0  0  0  0  0  0  0  0  0  0  0
    5.3643   -1.1179    1.2675 H   0  0  0  0  0  0  0  0  0  0  0  0
    6.5857   -1.4624    2.6065 H   0  0  0  0  0  0  0  0  0  0  0  0
    4.9329   -1.7207    5.1050 H   0  0  0  0  0  0  0  0  0  0  0  0
    6.1457   -0.5415    4.8256 H   0  0  0  0  0  0  0  0  0  0  0  0
    4.1998   -0.1900    6.6747 H   0  0  0  0  0  0  0  0  0  0  0  0
    6.6453    2.3366    6.8676 H   0  0  0  0  0  0  0  0  0  0  0  0
    6.9068    0.6439    6.4778 H   0  0  0  0  0  0  0  0  0  0  0  0
    5.7900    1.0930    7.7784 H   0  0  0  0  0  0  0  0  0  0  0  0
    2.8597   -1.4777    5.1137 H   0  0  0  0  0  0  0  0  0  0  0  0
    1.9071   -1.0225    6.1002 H   0  0  0  0  0  0  0  0  0  0  0  0
   -0.4895    0.0114    2.7921 H   0  0  0  0  0  0  0  0  0  0  0  0
    0.9987    0.5924    2.2463 H   0  0  0  0  0  0  0  0  0  0  0  0
    0.4276    1.1455    3.8016 H   0  0  0  0  0  0  0  0  0  0  0  0
    2.6417   -2.2855    3.3048 H   0  0  0  0  0  0  0  0  0  0  0  0
    1.4263   -1.0358    1.1710 H   0  0  0  0  0  0  0  0  0  0  0  0
    3.4062    0.1065    1.7824 H   0  0  0  0  0  0  0  0  0  0  0  0
    4.1766    1.5246    3.7201 H   0  0  0  0  0  0  0  0  0  0  0  0
    3.1851    2.5501    2.1234 H   0  0  0  0  0  0  0  0  0  0  0  0
    1.6219    2.4626    2.6886 H   0  0  0  0  0  0  0  0  0  0  0  0
    1.8387    6.8215    3.1699 H   0  0  0  0  0  0  0  0  0  0  0  0
    3.3931    6.4441    3.9302 H   0  0  0  0  0  0  0  0  0  0  0  0
    1.8715    6.0909    4.7722 H   0  0  0  0  0  0  0  0  0  0  0  0
   -0.9092   -1.5316    4.1629 H   0  0  0  0  0  0  0  0  0  0  0  0
    0.8773   -2.4260    6.0492 H   0  0  0  0  0  0  0  0  0  0  0  0
   -1.2128   -0.6448    6.5022 H   0  0  0  0  0  0  0  0  0  0  0  0
   -2.1092    0.3196    4.2433 H   0  0  0  0  0  0  0  0  0  0  0  0
   -2.5846    0.6931    5.8238 H   0  0  0  0  0  0  0  0  0  0  0  0
   -2.8803    4.0979    5.1411 H   0  0  0  0  0  0  0  0  0  0  0  0
   -3.2832    2.8183    6.2334 H   0  0  0  0  0  0  0  0  0  0  0  0
   -3.7557    2.7643    4.5151 H   0  0  0  0  0  0  0  0  0  0  0  0
   -1.2170    2.1081    2.6337 H   0  0  0  0  0  0  0  0  0  0  0  0
   -1.9257    3.6671    3.0390 H   0  0  0  0  0  0  0  0  0  0  0  0
   -0.6991    4.0979    5.6221 H   0  0  0  0  0  0  0  0  0  0  0  0
    1.2555    3.5593    6.5085 H   0  0  0  0  0  0  0  0  0  0  0  0
    1.5139    2.2736    9.1815 H   0  0  0  0  0  0  0  0  0  0  0  0
   -0.0993    1.9590    9.6833 H   0  0  0  0  0  0  0  0  0  0  0  0
    0.3309    3.5342    9.0709 H   0  0  0  0  0  0  0  0  0  0  0  0
   -1.4649    3.0392    8.0572 H   0  0  0  0  0  0  0  0  0  0  0  0
    1.2661    0.2049    8.4551 H   0  0  0  0  0  0  0  0  0  0  0  0
    3.0819    0.9577    7.5506 H   0  0  0  0  0  0  0  0  0  0  0  0
  1  2  2  0
  1 37  1  0
  1 38  1  0
  2 13  1  0
  2  3  1  0
  3  4  1  0
  3 39  1  0
  3 40  1  0
  4  5  1  0
  4  7  1  0
  4 41  1  1
  5  6  1  0
  6 42  1  0
  6 43  1  0
  6 44  1  0
  7 14  1  0
  7 35  1  0
  7  8  1  6
  8  9  1  0
  8 45  1  0
  8 46  1  0
  9 10  1  6
  9 11  1  0
  9 20  1  0
 10 47  1  0
 10 48  1  0
 10 49  1  0
 11 12  1  0
 11 13  1  0
 11 50  1  1
 12 51  1  0
 13 14  1  0
 13 52  1  6
 14 15  1  0
 14 53  1  1
 15 16  1  0
 15 54  1  0
 15 55  1  0
 16 17  2  0
 16 18  1  0
 18 19  1  0
 19 56  1  0
 19 57  1  0
 19 58  1  0
 20 21  1  0
 20 22  1  0
 20 59  1  6
 21 60  1  0
 22 33  1  0
 22 23  1  0
 22 61  1  1
 23 24  1  0
 23 62  1  0
 23 63  1  0
 24 28  1  0
 24 25  1  1
 24 26  1  0
 25 64  1  0
 25 65  1  0
 25 66  1  0
 26 27  1  0
 26 67  1  0
 26 68  1  0
 27 28  1  0
 28 29  1  0
 28 69  1  1
 29 35  1  0
 29 30  1  0
 29 70  1  1
 30 31  1  0
 30 32  1  6
 30 33  1  0
 31 71  1  0
 31 72  1  0
 31 73  1  0
 32 74  1  0
 33 34  1  1
 33 35  1  0
 34 75  1  0
 35 36  1  1
 36 76  1  0
M  END
>  <i_m_ct_stereo_status>  (124) 
1

>  <s_m_source_file>  (124) 
/var/tmp/pbs.5076255.sched01/tmpio9qf6gp/4214r_5_m5.sdf

>  <i_m_source_file_index>  (124) 
10

>  <i_lp_mmshare_version>  (124) 
48012

>  <i_f3d_flags>  (124) 
0

>  <s_epik_input>  (124) 
W0NIM11PW0NAQEhdMVtDSDJdQyg9W0NIMl0pW0NASF0oW0NASF0yW0NIMl1DKD1PKU9bQ0gzXSlbQ0BIXShbT0hdKVtDQEBdKFtDSDJdMykoW0NIM10pW0NAQEhdKFtPSF0pW0NASF0oW0NAXTQoW09IXSlbQ0BdNShbQ0gzXSlbT0hdKVtDSDJdW0NAXShbQ0gzXSkoW0NIMl1PNilbQ0BIXTZbQ0BASF01W0NAQF00KFtDQF0xMjMpW09IXQ==

>  <s_epik_cmdline>  (124) 
J2VwaWtfcHl0aG9uJywgJy1waHQnLCAnMi4wJywgJy1waCcsICc3LjAnLCAnLXRuJywgJzgnLCAnLW1hJywgJzIwMCcsICctaW1hZScsICc8aW5maWxlLm1hZT4nLCAnLW9tYWUnLCAnPG91dGZpbGUubWFlPic=

>  <r_lp_tautomer_probability>  (124) 
1

>  <r_epik_Ionization_Penalty>  (124) 
6.86663e-07

>  <r_epik_Ionization_Penalty_Charging>  (124) 
0

>  <r_epik_Ionization_Penalty_Neutral>  (124) 
6.86663e-07

>  <r_epik_State_Penalty>  (124) 
-0

>  <r_epik_Charging_Adjusted_Penalty>  (124) 
0

>  <i_epik_Tot_Q>  (124) 
0

>  <i_epik_Tot_abs_Q>  (124) 
0

>  <s_epik_Chemistry_Notes>  (124) 
This compound has an ester and may undergo hydrolysis at high or low pH.

>  <s_lp_Force_Field>  (124) 
OPLS3e

>  <r_lp_Energy>  (124) 
271.946

>  <b_lp_Chiralities_Consistent>  (124) 
1

>  <s_lp_Variant>  (124) 
36:0-2

>  <s_i_glide_gridfile>  (124) 
pfpi4k_grid

>  <i_i_glide_lignum>  (124) 
10

>  <i_i_glide_rotatable_bonds>  (124) 
9

>  <r_i_docking_score>  (124) 
-1.59707

>  <r_i_glide_ligand_efficiency>  (124) 
-0.0443631

>  <r_i_glide_ligand_efficiency_sa>  (124) 
-0.146484

>  <r_i_glide_ligand_efficiency_ln>  (124) 
-0.348437

>  <r_i_glide_gscore>  (124) 
-1.59707

>  <r_i_glide_lipo>  (124) 
-0.303158

>  <r_i_glide_hbond>  (124) 
-0.0919598

>  <r_i_glide_metal>  (124) 
-0

>  <r_i_glide_rewards>  (124) 
0

>  <r_i_glide_evdw>  (124) 
-22.1857

>  <r_i_glide_ecoul>  (124) 
-1.5667

>  <r_i_glide_erotb>  (124) 
0.158302

>  <r_i_glide_esite>  (124) 
-0.0159623

>  <r_i_glide_emodel>  (124) 
-24.354

>  <r_i_glide_energy>  (124) 
-23.7524

>  <r_i_glide_einternal>  (124) 
3.67454

>  <r_i_glide_intrahb_reward>  (124) 
-0

>  <i_i_glide_confnum>  (124) 
5

>  <i_i_glide_posenum>  (124) 
3

>  <r_i_glide_eff_state_penalty>  (124) 
0

>  <ligand_id>  (124) 
36

>  <original_smiles>  (124) 
C=C1CC(OC)C23CC(C)(C(O)C1C2CC(=O)OC)C(O)C1CC2(C)COC2C2C(C)(O)C1(O)C23O

>  <smiles>  (124) 
[H]OC1([H])C2([H])C(=C([H])[H])C([H])([H])C([H])(OC([H])([H])[H])C3(C([H])([H])C1(C([H])([H])[H])C([H])(O[H])C1([H])C([H])([H])C4(C([H])([H])[H])C([H])([H])OC4([H])C4([H])C(O[H])(C([H])([H])[H])C1(O[H])C43O[H])C2([H])C([H])([H])C(=O)OC([H])([H])[H]

$$$$
37:0:0
     RDKit          3D

 53 56  0  0  1  0  0  0  0  0999 V2000
    3.0753   -6.4295    3.8919 C   0  0  0  0  0  0  0  0  0  0  0  0
    4.1355   -6.0048    2.9582 N   0  0  0  0  0  0  0  0  0  0  0  0
    5.3483   -6.6154    2.9595 C   0  0  0  0  0  0  0  0  0  0  0  0
    5.6342   -7.5401    3.7364 O   0  0  0  0  0  0  0  0  0  0  0  0
    6.4589   -6.1364    2.0202 C   0  0  0  0  0  0  0  0  0  0  0  0
    5.9772   -5.1994    0.9073 C   0  0  0  0  0  0  0  0  0  0  0  0
    4.9600   -4.1540    1.4229 C   0  0  1  0  0  0  0  0  0  0  0  0
    5.6044   -3.2994    2.5446 C   0  0  0  0  0  0  0  0  0  0  0  0
    4.5033   -3.1689    0.2971 C   0  0  1  0  0  0  0  0  0  0  0  0
    5.6393   -2.2954   -0.3147 C   0  0  0  0  0  0  0  0  0  0  0  0
    5.1677   -1.3764   -1.4524 C   0  0  0  0  0  0  0  0  0  0  0  0
    4.4276   -2.1684   -2.5287 C   0  0  2  0  0  0  0  0  0  0  0  0
    5.3746   -3.2136   -3.1994 C   0  0  0  0  0  0  0  0  0  0  0  0
    3.6685   -1.2849   -3.5324 C   0  0  1  0  0  0  0  0  0  0  0  0
    4.3571   -0.8627   -4.6811 O   0  0  0  0  0  0  0  0  0  0  0  0
    2.6111   -2.2205   -4.0780 C   0  0  0  0  0  0  0  0  0  0  0  0
    2.3157   -3.2428   -3.0018 C   0  0  0  0  0  0  0  0  0  0  0  0
    3.2294   -2.8239   -1.8446 C   0  0  1  0  0  0  0  0  0  0  0  0
    3.6398   -3.8664   -0.7934 C   0  0  2  0  0  0  0  0  0  0  0  0
    2.4158   -4.4939   -0.1201 C   0  0  0  0  0  0  0  0  0  0  0  0
    2.8219   -5.5272    0.9261 C   0  0  0  0  0  0  0  0  0  0  0  0
    3.7395   -4.9363    2.0203 C   0  0  1  0  0  0  0  0  0  0  0  0
    3.4294   -7.0814    4.6945 H   0  0  0  0  0  0  0  0  0  0  0  0
    2.3020   -6.9939    3.3655 H   0  0  0  0  0  0  0  0  0  0  0  0
    2.6098   -5.5751    4.3694 H   0  0  0  0  0  0  0  0  0  0  0  0
    7.2055   -5.6240    2.6384 H   0  0  0  0  0  0  0  0  0  0  0  0
    6.9622   -7.0019    1.5982 H   0  0  0  0  0  0  0  0  0  0  0  0
    6.8435   -4.7379    0.4451 H   0  0  0  0  0  0  0  0  0  0  0  0
    5.5195   -5.8243    0.1457 H   0  0  0  0  0  0  0  0  0  0  0  0
    4.9820   -2.4417    2.8008 H   0  0  0  0  0  0  0  0  0  0  0  0
    6.5735   -2.9334    2.2130 H   0  0  0  0  0  0  0  0  0  0  0  0
    5.7576   -3.8646    3.4585 H   0  0  0  0  0  0  0  0  0  0  0  0
    3.8359   -2.4540    0.7820 H   0  0  0  0  0  0  0  0  0  0  0  0
    6.0574   -1.6563    0.4585 H   0  0  0  0  0  0  0  0  0  0  0  0
    6.4529   -2.9229   -0.6762 H   0  0  0  0  0  0  0  0  0  0  0  0
    4.5040   -0.6074   -1.0473 H   0  0  0  0  0  0  0  0  0  0  0  0
    6.0019   -0.8497   -1.9047 H   0  0  0  0  0  0  0  0  0  0  0  0
    4.9079   -3.7520   -4.0340 H   0  0  0  0  0  0  0  0  0  0  0  0
    5.7238   -3.9831   -2.5096 H   0  0  0  0  0  0  0  0  0  0  0  0
    6.3007   -2.7595   -3.5099 H   0  0  0  0  0  0  0  0  0  0  0  0
    3.2019   -0.4180   -3.0478 H   0  0  0  0  0  0  0  0  0  0  0  0
    3.8898   -0.1376   -5.0354 H   0  0  0  0  0  0  0  0  0  0  0  0
    1.7615   -1.6683   -4.4389 H   0  0  0  0  0  0  0  0  0  0  0  0
    3.0531   -2.7853   -4.9018 H   0  0  0  0  0  0  0  0  0  0  0  0
    1.2756   -3.2417   -2.7011 H   0  0  0  0  0  0  0  0  0  0  0  0
    2.5853   -4.1840   -3.4573 H   0  0  0  0  0  0  0  0  0  0  0  0
    2.6899   -2.0325   -1.3095 H   0  0  0  0  0  0  0  0  0  0  0  0
    4.2076   -4.6625   -1.2784 H   0  0  0  0  0  0  0  0  0  0  0  0
    1.8162   -3.7048    0.3262 H   0  0  0  0  0  0  0  0  0  0  0  0
    1.7924   -4.9784   -0.8726 H   0  0  0  0  0  0  0  0  0  0  0  0
    1.9108   -5.9108    1.3840 H   0  0  0  0  0  0  0  0  0  0  0  0
    3.3032   -6.3889    0.4568 H   0  0  0  0  0  0  0  0  0  0  0  0
    3.1320   -4.2238    2.5876 H   0  0  0  0  0  0  0  0  0  0  0  0
  1  2  1  0
  1 23  1  0
  1 24  1  0
  1 25  1  0
  2 22  1  0
  2  3  1  0
  3  4  2  0
  3  5  1  0
  5  6  1  0
  5 26  1  0
  5 27  1  0
  6  7  1  0
  6 28  1  0
  6 29  1  0
  7 22  1  0
  7  8  1  1
  7  9  1  0
  8 30  1  0
  8 31  1  0
  8 32  1  0
  9 19  1  0
  9 10  1  0
  9 33  1  1
 10 11  1  0
 10 34  1  0
 10 35  1  0
 11 12  1  0
 11 36  1  0
 11 37  1  0
 12 18  1  0
 12 13  1  6
 12 14  1  0
 13 38  1  0
 13 39  1  0
 13 40  1  0
 14 15  1  0
 14 16  1  0
 14 41  1  1
 15 42  1  0
 16 17  1  0
 16 43  1  0
 16 44  1  0
 17 18  1  0
 17 45  1  0
 17 46  1  0
 18 19  1  0
 18 47  1  1
 19 20  1  0
 19 48  1  6
 20 21  1  0
 20 49  1  0
 20 50  1  0
 21 22  1  0
 21 51  1  0
 21 52  1  0
 22 53  1  1
M  END
>  <i_m_ct_stereo_status>  (125) 
1

>  <s_m_source_file>  (125) 
/var/tmp/pbs.5076255.sched01/tmpio9qf6gp/4214r_5_m5.sdf

>  <i_m_source_file_index>  (125) 
11

>  <i_lp_mmshare_version>  (125) 
48012

>  <i_f3d_flags>  (125) 
0

>  <s_epik_input>  (125) 
W0NIMl0xW0NIMl1DKD1PKU4oW0NIM10pW0NAQEhdMltDSDJdW0NIMl1bQ0BIXShbQ0BIXTNbQ0BdMTJbQ0gzXSlbQ0BIXTRbQ0BdKFtDSDNdKShbQ0gyXVtDSDJdMylbQ0BASF0oW09IXSlbQ0gyXVtDSDJdNA==

>  <s_epik_cmdline>  (125) 
J2VwaWtfcHl0aG9uJywgJy1waHQnLCAnMi4wJywgJy1waCcsICc3LjAnLCAnLXRuJywgJzgnLCAnLW1hJywgJzIwMCcsICctaW1hZScsICc8aW5maWxlLm1hZT4nLCAnLW9tYWUnLCAnPG91dGZpbGUubWFlPic=

>  <r_lp_tautomer_probability>  (125) 
1

>  <r_epik_Ionization_Penalty>  (125) 
3.05318e-06

>  <r_epik_Ionization_Penalty_Charging>  (125) 
0

>  <r_epik_Ionization_Penalty_Neutral>  (125) 
3.05318e-06

>  <r_epik_State_Penalty>  (125) 
-0

>  <r_epik_Charging_Adjusted_Penalty>  (125) 
0

>  <i_epik_Tot_Q>  (125) 
0

>  <i_epik_Tot_abs_Q>  (125) 
0

>  <s_lp_Force_Field>  (125) 
OPLS3e

>  <r_lp_Energy>  (125) 
52.5698

>  <b_lp_Chiralities_Consistent>  (125) 
1

>  <s_lp_Variant>  (125) 
37:0-1

>  <s_i_glide_gridfile>  (125) 
pfpi4k_grid

>  <i_i_glide_lignum>  (125) 
11

>  <i_i_glide_rotatable_bonds>  (125) 
1

>  <r_i_docking_score>  (125) 
-3.86046

>  <r_i_glide_ligand_efficiency>  (125) 
-0.175475

>  <r_i_glide_ligand_efficiency_sa>  (125) 
-0.491689

>  <r_i_glide_ligand_efficiency_ln>  (125) 
-0.943636

>  <r_i_glide_gscore>  (125) 
-3.86046

>  <r_i_glide_lipo>  (125) 
-0.977519

>  <r_i_glide_hbond>  (125) 
-0.243275

>  <r_i_glide_metal>  (125) 
-0

>  <r_i_glide_rewards>  (125) 
-1.32894

>  <r_i_glide_evdw>  (125) 
-15.8701

>  <r_i_glide_ecoul>  (125) 
-3.44808

>  <r_i_glide_erotb>  (125) 
0

>  <r_i_glide_esite>  (125) 
0

>  <r_i_glide_emodel>  (125) 
-20.6624

>  <r_i_glide_energy>  (125) 
-19.3182

>  <r_i_glide_einternal>  (125) 
0.395143

>  <r_i_glide_intrahb_reward>  (125) 
-0

>  <i_i_glide_confnum>  (125) 
2

>  <i_i_glide_posenum>  (125) 
5

>  <r_i_glide_eff_state_penalty>  (125) 
0

>  <ligand_id>  (125) 
37

>  <original_smiles>  (125) 
CN1C(=O)CCC2(C)C3CCC4(C)C(O)CCC4C3CCC12

>  <smiles>  (125) 
[H]OC1([H])C([H])([H])C([H])([H])C2([H])C3([H])C([H])([H])C([H])([H])C4([H])N(C([H])([H])[H])C(=O)C([H])([H])C([H])([H])C4(C([H])([H])[H])C3([H])C([H])([H])C([H])([H])C12C([H])([H])[H]

$$$$
37:0:1
     RDKit          3D

 53 56  0  0  1  0  0  0  0  0999 V2000
    2.7974   -7.1116    4.1202 C   0  0  0  0  0  0  0  0  0  0  0  0
    3.8475   -6.2813    3.5103 N   0  0  0  0  0  0  0  0  0  0  0  0
    5.1548   -6.5161    3.7817 C   0  0  0  0  0  0  0  0  0  0  0  0
    5.5383   -7.4000    4.5451 O   0  0  0  0  0  0  0  0  0  0  0  0
    6.2370   -5.6175    3.1765 C   0  0  0  0  0  0  0  0  0  0  0  0
    5.7492   -4.7237    2.0310 C   0  0  0  0  0  0  0  0  0  0  0  0
    4.3726   -4.0837    2.3310 C   0  0  1  0  0  0  0  0  0  0  0  0
    4.4581   -3.2336    3.6285 C   0  0  0  0  0  0  0  0  0  0  0  0
    3.8866   -3.1496    1.1630 C   0  0  1  0  0  0  0  0  0  0  0  0
    4.8004   -1.9094    0.9136 C   0  0  0  0  0  0  0  0  0  0  0  0
    4.3327   -1.0220   -0.2592 C   0  0  0  0  0  0  0  0  0  0  0  0
    4.1419   -1.8400   -1.5460 C   0  0  2  0  0  0  0  0  0  0  0  0
    5.5051   -2.4042   -2.0446 C   0  0  0  0  0  0  0  0  0  0  0  0
    3.3951   -1.1129   -2.6833 C   0  0  1  0  0  0  0  0  0  0  0  0
    4.2001   -0.2546   -3.4532 O   0  0  0  0  0  0  0  0  0  0  0  0
    2.7786   -2.2165   -3.5432 C   0  0  0  0  0  0  0  0  0  0  0  0
    2.6679   -3.4267   -2.6100 C   0  0  0  0  0  0  0  0  0  0  0  0
    3.1171   -2.9304   -1.2332 C   0  0  1  0  0  0  0  0  0  0  0  0
    3.5680   -3.9288   -0.1475 C   0  0  2  0  0  0  0  0  0  0  0  0
    2.4931   -4.9742    0.1670 C   0  0  0  0  0  0  0  0  0  0  0  0
    2.9409   -5.9546    1.2474 C   0  0  0  0  0  0  0  0  0  0  0  0
    3.3561   -5.2580    2.5606 C   0  0  1  0  0  0  0  0  0  0  0  0
    3.1497   -7.7307    4.9452 H   0  0  0  0  0  0  0  0  0  0  0  0
    2.3758   -7.7951    3.3846 H   0  0  0  0  0  0  0  0  0  0  0  0
    1.9915   -6.4969    4.5175 H   0  0  0  0  0  0  0  0  0  0  0  0
    6.6070   -5.0074    3.9933 H   0  0  0  0  0  0  0  0  0  0  0  0
    7.0760   -6.2288    2.8465 H   0  0  0  0  0  0  0  0  0  0  0  0
    6.5091   -3.9692    1.8184 H   0  0  0  0  0  0  0  0  0  0  0  0
    5.6868   -5.3411    1.1384 H   0  0  0  0  0  0  0  0  0  0  0  0
    3.5623   -2.6265    3.7683 H   0  0  0  0  0  0  0  0  0  0  0  0
    5.3205   -2.5624    3.6092 H   0  0  0  0  0  0  0  0  0  0  0  0
    4.5595   -3.8469    4.5264 H   0  0  0  0  0  0  0  0  0  0  0  0
    2.9434   -2.7197    1.5077 H   0  0  0  0  0  0  0  0  0  0  0  0
    4.8208   -1.2728    1.8006 H   0  0  0  0  0  0  0  0  0  0  0  0
    5.8306   -2.2121    0.7373 H   0  0  0  0  0  0  0  0  0  0  0  0
    3.3892   -0.5470    0.0157 H   0  0  0  0  0  0  0  0  0  0  0  0
    5.0496   -0.2205   -0.4209 H   0  0  0  0  0  0  0  0  0  0  0  0
    5.4084   -2.9784   -2.9640 H   0  0  0  0  0  0  0  0  0  0  0  0
    5.9808   -3.0581   -1.3187 H   0  0  0  0  0  0  0  0  0  0  0  0
    6.2059   -1.5965   -2.2386 H   0  0  0  0  0  0  0  0  0  0  0  0
    2.5795   -0.5165   -2.2836 H   0  0  0  0  0  0  0  0  0  0  0  0
    3.6552    0.4713   -3.7260 H   0  0  0  0  0  0  0  0  0  0  0  0
    1.8198   -1.9098   -3.9537 H   0  0  0  0  0  0  0  0  0  0  0  0
    3.4105   -2.4699   -4.3944 H   0  0  0  0  0  0  0  0  0  0  0  0
    1.6547   -3.8205   -2.5705 H   0  0  0  0  0  0  0  0  0  0  0  0
    3.3451   -4.1777   -2.9990 H   0  0  0  0  0  0  0  0  0  0  0  0
    2.2457   -2.4347   -0.8091 H   0  0  0  0  0  0  0  0  0  0  0  0
    4.4485   -4.4588   -0.5034 H   0  0  0  0  0  0  0  0  0  0  0  0
    1.6081   -4.4722    0.5310 H   0  0  0  0  0  0  0  0  0  0  0  0
    2.1992   -5.5222   -0.7161 H   0  0  0  0  0  0  0  0  0  0  0  0
    2.1122   -6.6334    1.4396 H   0  0  0  0  0  0  0  0  0  0  0  0
    3.7508   -6.5712    0.8608 H   0  0  0  0  0  0  0  0  0  0  0  0
    2.4507   -4.8257    2.9971 H   0  0  0  0  0  0  0  0  0  0  0  0
  1  2  1  0
  1 23  1  0
  1 24  1  0
  1 25  1  0
  2 22  1  0
  2  3  1  0
  3  4  2  0
  3  5  1  0
  5  6  1  0
  5 26  1  0
  5 27  1  0
  6  7  1  0
  6 28  1  0
  6 29  1  0
  7 22  1  0
  7  8  1  1
  7  9  1  0
  8 30  1  0
  8 31  1  0
  8 32  1  0
  9 19  1  0
  9 10  1  0
  9 33  1  1
 10 11  1  0
 10 34  1  0
 10 35  1  0
 11 12  1  0
 11 36  1  0
 11 37  1  0
 12 18  1  0
 12 13  1  6
 12 14  1  0
 13 38  1  0
 13 39  1  0
 13 40  1  0
 14 15  1  0
 14 16  1  0
 14 41  1  1
 15 42  1  0
 16 17  1  0
 16 43  1  0
 16 44  1  0
 17 18  1  0
 17 45  1  0
 17 46  1  0
 18 19  1  0
 18 47  1  1
 19 20  1  0
 19 48  1  6
 20 21  1  0
 20 49  1  0
 20 50  1  0
 21 22  1  0
 21 51  1  0
 21 52  1  0
 22 53  1  1
M  END
>  <i_m_ct_stereo_status>  (126) 
1

>  <s_m_source_file>  (126) 
/var/tmp/pbs.5076255.sched01/tmpio9qf6gp/4214r_5_m5.sdf

>  <i_m_source_file_index>  (126) 
11

>  <i_lp_mmshare_version>  (126) 
48012

>  <i_f3d_flags>  (126) 
0

>  <s_epik_input>  (126) 
W0NIMl0xW0NIMl1DKD1PKU4oW0NIM10pW0NAQEhdMltDSDJdW0NIMl1bQ0BIXShbQ0BIXTNbQ0BdMTJbQ0gzXSlbQ0BIXTRbQ0BdKFtDSDNdKShbQ0gyXVtDSDJdMylbQ0BASF0oW09IXSlbQ0gyXVtDSDJdNA==

>  <s_epik_cmdline>  (126) 
J2VwaWtfcHl0aG9uJywgJy1waHQnLCAnMi4wJywgJy1waCcsICc3LjAnLCAnLXRuJywgJzgnLCAnLW1hJywgJzIwMCcsICctaW1hZScsICc8aW5maWxlLm1hZT4nLCAnLW9tYWUnLCAnPG91dGZpbGUubWFlPic=

>  <r_lp_tautomer_probability>  (126) 
1

>  <r_epik_Ionization_Penalty>  (126) 
3.05318e-06

>  <r_epik_Ionization_Penalty_Charging>  (126) 
0

>  <r_epik_Ionization_Penalty_Neutral>  (126) 
3.05318e-06

>  <r_epik_State_Penalty>  (126) 
-0

>  <r_epik_Charging_Adjusted_Penalty>  (126) 
0

>  <i_epik_Tot_Q>  (126) 
0

>  <i_epik_Tot_abs_Q>  (126) 
0

>  <s_lp_Force_Field>  (126) 
OPLS3e

>  <r_lp_Energy>  (126) 
52.5698

>  <b_lp_Chiralities_Consistent>  (126) 
1

>  <s_lp_Variant>  (126) 
37:0-1

>  <s_i_glide_gridfile>  (126) 
pfpi4k_grid

>  <i_i_glide_lignum>  (126) 
11

>  <i_i_glide_rotatable_bonds>  (126) 
1

>  <r_i_docking_score>  (126) 
-2.80362

>  <r_i_glide_ligand_efficiency>  (126) 
-0.127437

>  <r_i_glide_ligand_efficiency_sa>  (126) 
-0.357084

>  <r_i_glide_ligand_efficiency_ln>  (126) 
-0.685306

>  <r_i_glide_gscore>  (126) 
-2.80362

>  <r_i_glide_lipo>  (126) 
-0.385452

>  <r_i_glide_hbond>  (126) 
0

>  <r_i_glide_metal>  (126) 
-0

>  <r_i_glide_rewards>  (126) 
-1.32644

>  <r_i_glide_evdw>  (126) 
-14.1153

>  <r_i_glide_ecoul>  (126) 
-2.57303

>  <r_i_glide_erotb>  (126) 
0

>  <r_i_glide_esite>  (126) 
0

>  <r_i_glide_emodel>  (126) 
-17.9583

>  <r_i_glide_energy>  (126) 
-16.6884

>  <r_i_glide_einternal>  (126) 
0.948409

>  <r_i_glide_intrahb_reward>  (126) 
-0

>  <i_i_glide_confnum>  (126) 
1

>  <i_i_glide_posenum>  (126) 
10

>  <r_i_glide_eff_state_penalty>  (126) 
0

>  <ligand_id>  (126) 
37

>  <original_smiles>  (126) 
CN1C(=O)CCC2(C)C3CCC4(C)C(O)CCC4C3CCC12

>  <smiles>  (126) 
[H]OC1([H])C([H])([H])C([H])([H])C2([H])C3([H])C([H])([H])C([H])([H])C4([H])N(C([H])([H])[H])C(=O)C([H])([H])C([H])([H])C4(C([H])([H])[H])C3([H])C([H])([H])C([H])([H])C12C([H])([H])[H]

$$$$
37:0:2
     RDKit          3D

 53 56  0  0  1  0  0  0  0  0999 V2000
    0.7382   -7.2376    2.8951 C   0  0  0  0  0  0  0  0  0  0  0  0
    1.9989   -6.5368    2.5920 N   0  0  0  0  0  0  0  0  0  0  0  0
    3.1855   -6.9595    3.1278 C   0  0  0  0  0  0  0  0  0  0  0  0
    3.2770   -7.9054    3.8832 O   0  0  0  0  0  0  0  0  0  0  0  0
    4.4707   -6.1642    2.8241 C   0  0  0  0  0  0  0  0  0  0  0  0
    4.3600   -5.1546    1.6813 C   0  0  0  0  0  0  0  0  0  0  0  0
    3.0383   -4.3597    1.7422 C   0  0  1  0  0  0  0  0  0  0  0  0
    2.9243   -3.5927    3.0787 C   0  0  0  0  0  0  0  0  0  0  0  0
    2.9335   -3.3135    0.5749 C   0  0  1  0  0  0  0  0  0  0  0  0
    4.0307   -2.2123    0.6171 C   0  0  0  0  0  0  0  0  0  0  0  0
    3.9456   -1.2250   -0.5520 C   0  0  0  0  0  0  0  0  0  0  0  0
    3.9211   -1.9553   -1.8929 C   0  0  2  0  0  0  0  0  0  0  0  0
    5.2935   -2.6408   -2.1735 C   0  0  0  0  0  0  0  0  0  0  0  0
    3.4367   -1.0700   -3.0404 C   0  0  1  0  0  0  0  0  0  0  0  0
    4.4943   -0.3935   -3.5666 O   0  0  0  0  0  0  0  0  0  0  0  0
    2.9310   -2.0046   -4.1377 C   0  0  0  0  0  0  0  0  0  0  0  0
    2.5206   -3.2646   -3.4022 C   0  0  0  0  0  0  0  0  0  0  0  0
    2.7484   -2.9126   -1.9298 C   0  0  1  0  0  0  0  0  0  0  0  0
    2.8083   -3.9759   -0.8267 C   0  0  2  0  0  0  0  0  0  0  0  0
    1.5466   -4.8444   -0.8344 C   0  0  0  0  0  0  0  0  0  0  0  0
    1.6140   -5.9200    0.2646 C   0  0  0  0  0  0  0  0  0  0  0  0
    1.8564   -5.3853    1.6944 C   0  0  1  0  0  0  0  0  0  0  0  0
    0.8117   -7.9386    3.7264 H   0  0  0  0  0  0  0  0  0  0  0  0
    0.4002   -7.8232    2.0387 H   0  0  0  0  0  0  0  0  0  0  0  0
   -0.0510   -6.5382    3.1604 H   0  0  0  0  0  0  0  0  0  0  0  0
    4.7349   -5.6425    3.7443 H   0  0  0  0  0  0  0  0  0  0  0  0
    5.2677   -6.8814    2.6282 H   0  0  0  0  0  0  0  0  0  0  0  0
    5.2276   -4.5070    1.6896 H   0  0  0  0  0  0  0  0  0  0  0  0
    4.4134   -5.7215    0.7554 H   0  0  0  0  0  0  0  0  0  0  0  0
    2.0933   -2.8880    3.0584 H   0  0  0  0  0  0  0  0  0  0  0  0
    3.8369   -3.0412    3.2913 H   0  0  0  0  0  0  0  0  0  0  0  0
    2.7448   -4.2614    3.9179 H   0  0  0  0  0  0  0  0  0  0  0  0
    1.9962   -2.7648    0.7348 H   0  0  0  0  0  0  0  0  0  0  0  0
    3.9090   -1.6141    1.5224 H   0  0  0  0  0  0  0  0  0  0  0  0
    5.0261   -2.6437    0.6438 H   0  0  0  0  0  0  0  0  0  0  0  0
    3.0146   -0.6812   -0.4330 H   0  0  0  0  0  0  0  0  0  0  0  0
    4.7404   -0.4798   -0.5086 H   0  0  0  0  0  0  0  0  0  0  0  0
    5.3211   -3.1430   -3.1348 H   0  0  0  0  0  0  0  0  0  0  0  0
    5.5204   -3.3853   -1.4227 H   0  0  0  0  0  0  0  0  0  0  0  0
    6.1107   -1.9217   -2.1519 H   0  0  0  0  0  0  0  0  0  0  0  0
    2.6447   -0.3613   -2.7419 H   0  0  0  0  0  0  0  0  0  0  0  0
    4.1394    0.3909   -3.9543 H   0  0  0  0  0  0  0  0  0  0  0  0
    2.1234   -1.5060   -4.6768 H   0  0  0  0  0  0  0  0  0  0  0  0
    3.7091   -2.2425   -4.8455 H   0  0  0  0  0  0  0  0  0  0  0  0
    1.4711   -3.4010   -3.5812 H   0  0  0  0  0  0  0  0  0  0  0  0
    3.0997   -4.1263   -3.7363 H   0  0  0  0  0  0  0  0  0  0  0  0
    1.8615   -2.3366   -1.7578 H   0  0  0  0  0  0  0  0  0  0  0  0
    3.6788   -4.6164   -1.0169 H   0  0  0  0  0  0  0  0  0  0  0  0
    0.6744   -4.2329   -0.8623 H   0  0  0  0  0  0  0  0  0  0  0  0
    1.3541   -5.2579   -1.8076 H   0  0  0  0  0  0  0  0  0  0  0  0
    0.7223   -6.5355    0.2050 H   0  0  0  0  0  0  0  0  0  0  0  0
    2.4500   -6.5866    0.0857 H   0  0  0  0  0  0  0  0  0  0  0  0
    0.9975   -4.8586    2.0989 H   0  0  0  0  0  0  0  0  0  0  0  0
  1  2  1  0
  1 23  1  0
  1 24  1  0
  1 25  1  0
  2 22  1  0
  2  3  1  0
  3  4  2  0
  3  5  1  0
  5  6  1  0
  5 26  1  0
  5 27  1  0
  6  7  1  0
  6 28  1  0
  6 29  1  0
  7 22  1  0
  7  8  1  1
  7  9  1  0
  8 30  1  0
  8 31  1  0
  8 32  1  0
  9 19  1  0
  9 10  1  0
  9 33  1  1
 10 11  1  0
 10 34  1  0
 10 35  1  0
 11 12  1  0
 11 36  1  0
 11 37  1  0
 12 18  1  0
 12 13  1  6
 12 14  1  0
 13 38  1  0
 13 39  1  0
 13 40  1  0
 14 15  1  0
 14 16  1  0
 14 41  1  1
 15 42  1  0
 16 17  1  0
 16 43  1  0
 16 44  1  0
 17 18  1  0
 17 45  1  0
 17 46  1  0
 18 19  1  0
 18 47  1  1
 19 20  1  0
 19 48  1  6
 20 21  1  0
 20 49  1  0
 20 50  1  0
 21 22  1  0
 21 51  1  0
 21 52  1  0
 22 53  1  1
M  END
>  <i_m_ct_stereo_status>  (127) 
1

>  <s_m_source_file>  (127) 
/var/tmp/pbs.5076255.sched01/tmpio9qf6gp/4214r_5_m5.sdf

>  <i_m_source_file_index>  (127) 
11

>  <i_lp_mmshare_version>  (127) 
48012

>  <i_f3d_flags>  (127) 
0

>  <s_epik_input>  (127) 
W0NIMl0xW0NIMl1DKD1PKU4oW0NIM10pW0NAQEhdMltDSDJdW0NIMl1bQ0BIXShbQ0BIXTNbQ0BdMTJbQ0gzXSlbQ0BIXTRbQ0BdKFtDSDNdKShbQ0gyXVtDSDJdMylbQ0BASF0oW09IXSlbQ0gyXVtDSDJdNA==

>  <s_epik_cmdline>  (127) 
J2VwaWtfcHl0aG9uJywgJy1waHQnLCAnMi4wJywgJy1waCcsICc3LjAnLCAnLXRuJywgJzgnLCAnLW1hJywgJzIwMCcsICctaW1hZScsICc8aW5maWxlLm1hZT4nLCAnLW9tYWUnLCAnPG91dGZpbGUubWFlPic=

>  <r_lp_tautomer_probability>  (127) 
1

>  <r_epik_Ionization_Penalty>  (127) 
3.05318e-06

>  <r_epik_Ionization_Penalty_Charging>  (127) 
0

>  <r_epik_Ionization_Penalty_Neutral>  (127) 
3.05318e-06

>  <r_epik_State_Penalty>  (127) 
-0

>  <r_epik_Charging_Adjusted_Penalty>  (127) 
0

>  <i_epik_Tot_Q>  (127) 
0

>  <i_epik_Tot_abs_Q>  (127) 
0

>  <s_lp_Force_Field>  (127) 
OPLS3e

>  <r_lp_Energy>  (127) 
52.5698

>  <b_lp_Chiralities_Consistent>  (127) 
1

>  <s_lp_Variant>  (127) 
37:0-1

>  <s_i_glide_gridfile>  (127) 
pfpi4k_grid

>  <i_i_glide_lignum>  (127) 
11

>  <i_i_glide_rotatable_bonds>  (127) 
1

>  <r_i_docking_score>  (127) 
-2.15673

>  <r_i_glide_ligand_efficiency>  (127) 
-0.098033

>  <r_i_glide_ligand_efficiency_sa>  (127) 
-0.274692

>  <r_i_glide_ligand_efficiency_ln>  (127) 
-0.527183

>  <r_i_glide_gscore>  (127) 
-2.15673

>  <r_i_glide_lipo>  (127) 
-0.326098

>  <r_i_glide_hbond>  (127) 
0

>  <r_i_glide_metal>  (127) 
-0

>  <r_i_glide_rewards>  (127) 
-1.32644

>  <r_i_glide_evdw>  (127) 
-4.53474

>  <r_i_glide_ecoul>  (127) 
-1.76299

>  <r_i_glide_erotb>  (127) 
0

>  <r_i_glide_esite>  (127) 
-0.0129993

>  <r_i_glide_emodel>  (127) 
-6.00115

>  <r_i_glide_energy>  (127) 
-6.29773

>  <r_i_glide_einternal>  (127) 
0.844596

>  <r_i_glide_intrahb_reward>  (127) 
-0

>  <i_i_glide_confnum>  (127) 
1

>  <i_i_glide_posenum>  (127) 
12

>  <r_i_glide_eff_state_penalty>  (127) 
0

>  <ligand_id>  (127) 
37

>  <original_smiles>  (127) 
CN1C(=O)CCC2(C)C3CCC4(C)C(O)CCC4C3CCC12

>  <smiles>  (127) 
[H]OC1([H])C([H])([H])C([H])([H])C2([H])C3([H])C([H])([H])C([H])([H])C4([H])N(C([H])([H])[H])C(=O)C([H])([H])C([H])([H])C4(C([H])([H])[H])C3([H])C([H])([H])C([H])([H])C12C([H])([H])[H]

$$$$
38:0:0
     RDKit          3D

 66 71  0  0  1  0  0  0  0  0999 V2000
    7.6397   -8.4328    3.2083 C   0  0  0  0  0  0  0  0  0  0  0  0
    6.1083   -8.4321    3.0315 C   0  0  2  0  0  0  0  0  0  0  0  0
    5.7318   -8.8861    1.5998 C   0  0  0  0  0  0  0  0  0  0  0  0
    4.2830   -8.5878    1.1690 C   0  0  0  0  0  0  0  0  0  0  0  0
    3.7548   -7.2232    1.6853 C   0  0  2  0  0  0  0  0  0  0  0  0
    4.4615   -6.0898    0.8571 C   0  0  1  0  0  0  0  0  0  0  0  0
    3.4630   -5.0533    0.2871 C   0  0  0  0  0  0  0  0  0  0  0  0
    5.8463   -5.6067    1.4356 C   0  0  1  0  0  0  0  0  0  0  0  0
    6.4251   -4.2940    0.8635 C   0  0  0  0  0  0  0  0  0  0  0  0
    7.6498   -4.2876    0.1608 C   0  0  0  0  0  0  0  0  0  0  0  0
    8.0835   -3.0564   -0.3625 C   0  0  0  0  0  0  0  0  0  0  0  0
    7.3680   -1.9244   -0.2033 N   0  0  0  0  0  0  0  0  0  0  0  0
    6.2419   -2.0307    0.5075 C   0  0  0  0  0  0  0  0  0  0  0  0
    5.7453   -3.1410    1.0539 N   0  0  0  0  0  0  0  0  0  0  0  0
    6.0462   -5.8093    2.9717 C   0  0  1  0  0  0  0  0  0  0  0  0
    5.5581   -4.6593    3.8522 C   0  0  0  0  0  0  0  0  0  0  0  0
    4.0763   -4.4250    3.6636 C   0  0  0  0  0  0  0  0  0  0  0  0
    3.1949   -5.7016    3.7701 C   0  0  2  0  0  0  0  0  0  0  0  0
    2.5271   -5.7618    5.1844 C   0  0  1  0  0  0  0  0  0  0  0  0
    1.7127   -4.5411    5.5776 C   0  0  0  0  0  0  0  0  0  0  0  0
    0.4182   -4.7914    5.7294 C   0  0  0  0  0  0  0  0  0  0  0  0
   -0.5490   -3.8407    6.1645 C   0  0  0  0  0  0  0  0  0  0  0  0
   -1.3404   -3.0609    6.4897 N   0  0  0  0  0  0  0  0  0  0  0  0
    0.0679   -6.2199    5.4347 C   0  0  0  0  0  0  0  0  0  0  0  0
    1.4647   -6.8851    5.3353 C   0  0  1  0  0  0  0  0  0  0  0  0
    1.6421   -8.0682    4.3666 C   0  0  1  0  0  0  0  0  0  0  0  0
    0.7786   -8.0479    3.0857 C   0  0  0  0  0  0  0  0  0  0  0  0
    3.1568   -8.2320    4.1105 C   0  0  1  0  0  0  0  0  0  0  0  0
    3.3592   -9.5819    3.7563 O   0  0  0  0  0  0  0  0  0  0  0  0
    3.8620   -7.0766    3.2611 C   0  0  1  0  0  0  0  0  0  0  0  0
    5.4085   -7.1139    3.5146 C   0  0  1  0  0  0  0  0  0  0  0  0
    8.1384   -7.7771    2.4930 H   0  0  0  0  0  0  0  0  0  0  0  0
    8.0393   -9.4344    3.0481 H   0  0  0  0  0  0  0  0  0  0  0  0
    7.9305   -8.1235    4.2131 H   0  0  0  0  0  0  0  0  0  0  0  0
    5.7727   -9.2171    3.7055 H   0  0  0  0  0  0  0  0  0  0  0  0
    6.4183   -8.4399    0.8791 H   0  0  0  0  0  0  0  0  0  0  0  0
    5.9021   -9.9582    1.5071 H   0  0  0  0  0  0  0  0  0  0  0  0
    4.2256   -8.6325    0.0822 H   0  0  0  0  0  0  0  0  0  0  0  0
    3.6176   -9.4001    1.4443 H   0  0  0  0  0  0  0  0  0  0  0  0
    2.7040   -7.2025    1.4063 H   0  0  0  0  0  0  0  0  0  0  0  0
    4.7621   -6.5454   -0.0880 H   0  0  0  0  0  0  0  0  0  0  0  0
    2.9259   -4.4823    1.0363 H   0  0  0  0  0  0  0  0  0  0  0  0
    2.6988   -5.5586   -0.3044 H   0  0  0  0  0  0  0  0  0  0  0  0
    3.9477   -4.3560   -0.3958 H   0  0  0  0  0  0  0  0  0  0  0  0
    6.5416   -6.3338    1.0307 H   0  0  0  0  0  0  0  0  0  0  0  0
    8.2244   -5.1890    0.0132 H   0  0  0  0  0  0  0  0  0  0  0  0
    9.0116   -2.9696   -0.9109 H   0  0  0  0  0  0  0  0  0  0  0  0
    5.6659   -1.1299    0.6431 H   0  0  0  0  0  0  0  0  0  0  0  0
    7.1212   -5.8418    3.1479 H   0  0  0  0  0  0  0  0  0  0  0  0
    5.7719   -4.8655    4.9016 H   0  0  0  0  0  0  0  0  0  0  0  0
    6.0781   -3.7371    3.6139 H   0  0  0  0  0  0  0  0  0  0  0  0
    3.7819   -3.6520    4.3650 H   0  0  0  0  0  0  0  0  0  0  0  0
    3.9357   -3.9354    2.7103 H   0  0  0  0  0  0  0  0  0  0  0  0
    2.3546   -5.5083    3.1079 H   0  0  0  0  0  0  0  0  0  0  0  0
    3.3092   -5.8958    5.9367 H   0  0  0  0  0  0  0  0  0  0  0  0
    2.1624   -3.5799    5.7782 H   0  0  0  0  0  0  0  0  0  0  0  0
   -0.5434   -6.6595    6.2223 H   0  0  0  0  0  0  0  0  0  0  0  0
   -0.4968   -6.2424    4.5045 H   0  0  0  0  0  0  0  0  0  0  0  0
    1.6530   -7.2967    6.3288 H   0  0  0  0  0  0  0  0  0  0  0  0
    1.3025   -8.9506    4.9171 H   0  0  0  0  0  0  0  0  0  0  0  0
    0.8253   -7.0946    2.5638 H   0  0  0  0  0  0  0  0  0  0  0  0
   -0.2684   -8.2431    3.3188 H   0  0  0  0  0  0  0  0  0  0  0  0
    1.0925   -8.8294    2.3921 H   0  0  0  0  0  0  0  0  0  0  0  0
    3.6223   -8.1979    5.0970 H   0  0  0  0  0  0  0  0  0  0  0  0
    2.9606  -10.1387    4.4108 H   0  0  0  0  0  0  0  0  0  0  0  0
    5.5641   -7.0968    4.5934 H   0  0  0  0  0  0  0  0  0  0  0  0
  1  2  1  0
  1 32  1  0
  1 33  1  0
  1 34  1  0
  2 31  1  0
  2  3  1  0
  2 35  1  1
  3  4  1  0
  3 36  1  0
  3 37  1  0
  4  5  1  0
  4 38  1  0
  4 39  1  0
  5 30  1  0
  5  6  1  0
  5 40  1  1
  6  7  1  0
  6  8  1  0
  6 41  1  6
  7 42  1  0
  7 43  1  0
  7 44  1  0
  8  9  1  0
  8 15  1  0
  8 45  1  6
  9 14  1  0
  9 10  2  0
 10 11  1  0
 10 46  1  0
 11 12  2  0
 11 47  1  0
 12 13  1  0
 13 14  2  0
 13 48  1  0
 15 31  1  0
 15 16  1  0
 15 49  1  6
 16 17  1  0
 16 50  1  0
 16 51  1  0
 17 18  1  0
 17 52  1  0
 17 53  1  0
 18 30  1  0
 18 19  1  0
 18 54  1  6
 19 25  1  0
 19 20  1  0
 19 55  1  1
 20 21  2  0
 20 56  1  0
 21 22  1  0
 21 24  1  0
 22 23  3  0
 24 25  1  0
 24 57  1  0
 24 58  1  0
 25 26  1  0
 25 59  1  1
 26 27  1  0
 26 28  1  0
 26 60  1  1
 27 61  1  0
 27 62  1  0
 27 63  1  0
 28 29  1  0
 30 28  1  1
 28 64  1  1
 29 65  1  0
 30 31  1  0
 31 66  1  1
M  END
>  <i_m_ct_stereo_status>  (128) 
1

>  <s_m_source_file>  (128) 
/var/tmp/pbs.5076255.sched01/tmpio9qf6gp/4214r_5_m5.sdf

>  <i_m_source_file_index>  (128) 
12

>  <i_lp_mmshare_version>  (128) 
48012

>  <i_f3d_flags>  (128) 
0

>  <s_epik_input>  (128) 
bjFbY0hdbltjSF1bY0hdYzFbQ0BIXShbQ0BASF0yW0NIM10pW0NASF0oW0NAQEhdM1tDQEhdKFtDSDNdKVtDSDJdW0NIMl1bQ0BIXTJbQ0BAXTM0NSlbQ0gyXVtDSDJdW0NAQEhdNFtDQEBIXTZbQ0BASF0oW0NIMl1DKD1bQ0hdNilDI04pW0NAQEhdKFtDSDNdKVtDQEhdNVtPSF0=

>  <s_epik_cmdline>  (128) 
J2VwaWtfcHl0aG9uJywgJy1waHQnLCAnMi4wJywgJy1waCcsICc3LjAnLCAnLXRuJywgJzgnLCAnLW1hJywgJzIwMCcsICctaW1hZScsICc8aW5maWxlLm1hZT4nLCAnLW9tYWUnLCAnPG91dGZpbGUubWFlPic=

>  <r_lp_tautomer_probability>  (128) 
1

>  <r_epik_Ionization_Penalty>  (128) 
1.80822e-05

>  <r_epik_Ionization_Penalty_Charging>  (128) 
0

>  <r_epik_Ionization_Penalty_Neutral>  (128) 
1.80822e-05

>  <r_epik_State_Penalty>  (128) 
-0

>  <r_epik_Charging_Adjusted_Penalty>  (128) 
0

>  <i_epik_Tot_Q>  (128) 
0

>  <i_epik_Tot_abs_Q>  (128) 
0

>  <s_epik_Chemistry_Notes>  (128) 
This compound contains an electron-poor aromatic ring that is susceptible to covalent hydrolysis at low pH, typically resulting in measured values for nitrogen ring protonation that are around two units higher than predicted values.

>  <s_lp_Force_Field>  (128) 
OPLS3e

>  <r_lp_Energy>  (128) 
88.7317

>  <b_lp_Chiralities_Consistent>  (128) 
1

>  <s_lp_Variant>  (128) 
38:0-1

>  <s_i_glide_gridfile>  (128) 
pfpi4k_grid

>  <i_i_glide_lignum>  (128) 
12

>  <i_i_glide_rotatable_bonds>  (128) 
3

>  <r_i_docking_score>  (128) 
-3.33027

>  <r_i_glide_ligand_efficiency>  (128) 
-0.107428

>  <r_i_glide_ligand_efficiency_sa>  (128) 
-0.337472

>  <r_i_glide_ligand_efficiency_ln>  (128) 
-0.751077

>  <r_i_glide_gscore>  (128) 
-3.33027

>  <r_i_glide_lipo>  (128) 
-0.659974

>  <r_i_glide_hbond>  (128) 
-0.146816

>  <r_i_glide_metal>  (128) 
-0

>  <r_i_glide_rewards>  (128) 
-0.668125

>  <r_i_glide_evdw>  (128) 
-26.2687

>  <r_i_glide_ecoul>  (128) 
-4.26575

>  <r_i_glide_erotb>  (128) 
0.113354

>  <r_i_glide_esite>  (128) 
-0.0154095

>  <r_i_glide_emodel>  (128) 
-37.7727

>  <r_i_glide_energy>  (128) 
-30.5344

>  <r_i_glide_einternal>  (128) 
0.118698

>  <r_i_glide_intrahb_reward>  (128) 
-0

>  <i_i_glide_confnum>  (128) 
3

>  <i_i_glide_posenum>  (128) 
25

>  <r_i_glide_eff_state_penalty>  (128) 
0

>  <ligand_id>  (128) 
38

>  <original_smiles>  (128) 
CC1CCC2C(C)C(c3ccncn3)C3CCC4C5C=C(C#N)CC5C(C)C(O)C24C13

>  <smiles>  (128) 
[H]OC1([H])C([H])(C([H])([H])[H])C2([H])C([H])([H])C(C#N)=C([H])C2([H])C2([H])C([H])([H])C([H])([H])C3([H])C([H])(c4nc([H])nc([H])c4[H])C([H])(C([H])([H])[H])C4([H])C([H])([H])C([H])([H])C([H])(C([H])([H])[H])C3([H])C124

$$$$
38:0:1
     RDKit          3D

 66 71  0  0  1  0  0  0  0  0999 V2000
    7.7905   -8.0902    3.0243 C   0  0  0  0  0  0  0  0  0  0  0  0
    6.2606   -8.2678    3.0277 C   0  0  2  0  0  0  0  0  0  0  0  0
    5.7907   -8.8762    1.6841 C   0  0  0  0  0  0  0  0  0  0  0  0
    4.2811   -8.7712    1.3930 C   0  0  0  0  0  0  0  0  0  0  0  0
    3.6606   -7.4299    1.8697 C   0  0  2  0  0  0  0  0  0  0  0  0
    4.1127   -6.2776    0.8910 C   0  0  1  0  0  0  0  0  0  0  0  0
    2.8987   -5.4125    0.4275 C   0  0  0  0  0  0  0  0  0  0  0  0
    5.5172   -5.6222    1.2487 C   0  0  1  0  0  0  0  0  0  0  0  0
    5.8717   -4.3171    0.4969 C   0  0  0  0  0  0  0  0  0  0  0  0
    5.3992   -4.0486   -0.8008 C   0  0  0  0  0  0  0  0  0  0  0  0
    5.7212   -2.8014   -1.3545 C   0  0  0  0  0  0  0  0  0  0  0  0
    6.5155   -1.9077   -0.7221 N   0  0  0  0  0  0  0  0  0  0  0  0
    6.9983   -2.2994    0.4637 C   0  0  0  0  0  0  0  0  0  0  0  0
    6.7189   -3.4403    1.0954 N   0  0  0  0  0  0  0  0  0  0  0  0
    5.8879   -5.6720    2.7817 C   0  0  1  0  0  0  0  0  0  0  0  0
    5.3690   -4.5177    3.6538 C   0  0  0  0  0  0  0  0  0  0  0  0
    3.8599   -4.4550    3.5918 C   0  0  0  0  0  0  0  0  0  0  0  0
    3.1464   -5.8098    3.8924 C   0  0  2  0  0  0  0  0  0  0  0  0
    2.6379   -5.8290    5.3747 C   0  0  1  0  0  0  0  0  0  0  0  0
    1.7289   -4.6787    5.7713 C   0  0  0  0  0  0  0  0  0  0  0  0
    0.4968   -5.0654    6.0810 C   0  0  0  0  0  0  0  0  0  0  0  0
   -0.5365   -4.1858    6.5378 C   0  0  0  0  0  0  0  0  0  0  0  0
   -1.3675   -3.4686    6.8704 N   0  0  0  0  0  0  0  0  0  0  0  0
    0.2868   -6.5384    5.9346 C   0  0  0  0  0  0  0  0  0  0  0  0
    1.7342   -7.0463    5.7207 C   0  0  1  0  0  0  0  0  0  0  0  0
    1.9425   -8.2790    4.8255 C   0  0  1  0  0  0  0  0  0  0  0  0
    0.9542   -8.4561    3.6514 C   0  0  0  0  0  0  0  0  0  0  0  0
    3.4315   -8.3023    4.4104 C   0  0  1  0  0  0  0  0  0  0  0  0
    3.7676   -9.6456    4.1438 O   0  0  0  0  0  0  0  0  0  0  0  0
    3.9088   -7.1459    3.4092 C   0  0  1  0  0  0  0  0  0  0  0  0
    5.4674   -6.9938    3.4872 C   0  0  1  0  0  0  0  0  0  0  0  0
    8.1330   -7.4432    2.2161 H   0  0  0  0  0  0  0  0  0  0  0  0
    8.2837   -9.0521    2.8877 H   0  0  0  0  0  0  0  0  0  0  0  0
    8.1467   -7.6705    3.9641 H   0  0  0  0  0  0  0  0  0  0  0  0
    6.0924   -9.0277    3.7891 H   0  0  0  0  0  0  0  0  0  0  0  0
    6.3449   -8.4132    0.8750 H   0  0  0  0  0  0  0  0  0  0  0  0
    6.0739   -9.9273    1.6431 H   0  0  0  0  0  0  0  0  0  0  0  0
    4.1219   -8.9070    0.3238 H   0  0  0  0  0  0  0  0  0  0  0  0
    3.7433   -9.6325    1.7896 H   0  0  0  0  0  0  0  0  0  0  0  0
    2.5949   -7.5567    1.7189 H   0  0  0  0  0  0  0  0  0  0  0  0
    4.3600   -6.7793   -0.0444 H   0  0  0  0  0  0  0  0  0  0  0  0
    2.3631   -4.9293    1.2496 H   0  0  0  0  0  0  0  0  0  0  0  0
    2.1561   -6.0984    0.0022 H   0  0  0  0  0  0  0  0  0  0  0  0
    3.1449   -4.6989   -0.3466 H   0  0  0  0  0  0  0  0  0  0  0  0
    6.2732   -6.2717    0.8135 H   0  0  0  0  0  0  0  0  0  0  0  0
    4.7823   -4.7675   -1.3365 H   0  0  0  0  0  0  0  0  0  0  0  0
    5.3240   -2.4947   -2.3123 H   0  0  0  0  0  0  0  0  0  0  0  0
    7.6728   -1.6117    0.9589 H   0  0  0  0  0  0  0  0  0  0  0  0
    6.9716   -5.5876    2.8644 H   0  0  0  0  0  0  0  0  0  0  0  0
    5.6953   -4.6373    4.6884 H   0  0  0  0  0  0  0  0  0  0  0  0
    5.7626   -3.5474    3.3632 H   0  0  0  0  0  0  0  0  0  0  0  0
    3.5411   -3.6703    4.2704 H   0  0  0  0  0  0  0  0  0  0  0  0
    3.5946   -4.0556    2.6186 H   0  0  0  0  0  0  0  0  0  0  0  0
    2.2189   -5.7673    3.3265 H   0  0  0  0  0  0  0  0  0  0  0  0
    3.5016   -5.8155    6.0431 H   0  0  0  0  0  0  0  0  0  0  0  0
    2.0751   -3.6605    5.8543 H   0  0  0  0  0  0  0  0  0  0  0  0
   -0.1842   -6.9764    6.8166 H   0  0  0  0  0  0  0  0  0  0  0  0
   -0.3663   -6.6906    5.0773 H   0  0  0  0  0  0  0  0  0  0  0  0
    2.0708   -7.3516    6.7124 H   0  0  0  0  0  0  0  0  0  0  0  0
    1.7766   -9.1470    5.4693 H   0  0  0  0  0  0  0  0  0  0  0  0
    0.8349   -7.5489    3.0626 H   0  0  0  0  0  0  0  0  0  0  0  0
   -0.0323   -8.7433    4.0163 H   0  0  0  0  0  0  0  0  0  0  0  0
    1.2789   -9.2539    2.9829 H   0  0  0  0  0  0  0  0  0  0  0  0
    3.9906   -8.1309    5.3339 H   0  0  0  0  0  0  0  0  0  0  0  0
    3.2658   -9.9391    3.3912 H   0  0  0  0  0  0  0  0  0  0  0  0
    5.7272   -6.8767    4.5412 H   0  0  0  0  0  0  0  0  0  0  0  0
  1  2  1  0
  1 32  1  0
  1 33  1  0
  1 34  1  0
  2 31  1  0
  2  3  1  0
  2 35  1  1
  3  4  1  0
  3 36  1  0
  3 37  1  0
  4  5  1  0
  4 38  1  0
  4 39  1  0
  5 30  1  0
  5  6  1  0
  5 40  1  1
  6  7  1  0
  6  8  1  0
  6 41  1  6
  7 42  1  0
  7 43  1  0
  7 44  1  0
  8  9  1  0
  8 15  1  0
  8 45  1  6
  9 14  1  0
  9 10  2  0
 10 11  1  0
 10 46  1  0
 11 12  2  0
 11 47  1  0
 12 13  1  0
 13 14  2  0
 13 48  1  0
 15 31  1  0
 15 16  1  0
 15 49  1  6
 16 17  1  0
 16 50  1  0
 16 51  1  0
 17 18  1  0
 17 52  1  0
 17 53  1  0
 18 30  1  0
 18 19  1  0
 18 54  1  6
 19 25  1  0
 19 20  1  0
 19 55  1  1
 20 21  2  0
 20 56  1  0
 21 22  1  0
 21 24  1  0
 22 23  3  0
 24 25  1  0
 24 57  1  0
 24 58  1  0
 25 26  1  0
 25 59  1  1
 26 27  1  0
 26 28  1  0
 26 60  1  1
 27 61  1  0
 27 62  1  0
 27 63  1  0
 28 29  1  0
 30 28  1  1
 28 64  1  1
 29 65  1  0
 30 31  1  0
 31 66  1  1
M  END
>  <i_m_ct_stereo_status>  (129) 
1

>  <s_m_source_file>  (129) 
/var/tmp/pbs.5076255.sched01/tmpio9qf6gp/4214r_5_m5.sdf

>  <i_m_source_file_index>  (129) 
12

>  <i_lp_mmshare_version>  (129) 
48012

>  <i_f3d_flags>  (129) 
0

>  <s_epik_input>  (129) 
bjFbY0hdbltjSF1bY0hdYzFbQ0BIXShbQ0BASF0yW0NIM10pW0NASF0oW0NAQEhdM1tDQEhdKFtDSDNdKVtDSDJdW0NIMl1bQ0BIXTJbQ0BAXTM0NSlbQ0gyXVtDSDJdW0NAQEhdNFtDQEBIXTZbQ0BASF0oW0NIMl1DKD1bQ0hdNilDI04pW0NAQEhdKFtDSDNdKVtDQEhdNVtPSF0=

>  <s_epik_cmdline>  (129) 
J2VwaWtfcHl0aG9uJywgJy1waHQnLCAnMi4wJywgJy1waCcsICc3LjAnLCAnLXRuJywgJzgnLCAnLW1hJywgJzIwMCcsICctaW1hZScsICc8aW5maWxlLm1hZT4nLCAnLW9tYWUnLCAnPG91dGZpbGUubWFlPic=

>  <r_lp_tautomer_probability>  (129) 
1

>  <r_epik_Ionization_Penalty>  (129) 
1.80822e-05

>  <r_epik_Ionization_Penalty_Charging>  (129) 
0

>  <r_epik_Ionization_Penalty_Neutral>  (129) 
1.80822e-05

>  <r_epik_State_Penalty>  (129) 
-0

>  <r_epik_Charging_Adjusted_Penalty>  (129) 
0

>  <i_epik_Tot_Q>  (129) 
0

>  <i_epik_Tot_abs_Q>  (129) 
0

>  <s_epik_Chemistry_Notes>  (129) 
This compound contains an electron-poor aromatic ring that is susceptible to covalent hydrolysis at low pH, typically resulting in measured values for nitrogen ring protonation that are around two units higher than predicted values.

>  <s_lp_Force_Field>  (129) 
OPLS3e

>  <r_lp_Energy>  (129) 
88.7317

>  <b_lp_Chiralities_Consistent>  (129) 
1

>  <s_lp_Variant>  (129) 
38:0-1

>  <s_i_glide_gridfile>  (129) 
pfpi4k_grid

>  <i_i_glide_lignum>  (129) 
12

>  <i_i_glide_rotatable_bonds>  (129) 
3

>  <r_i_docking_score>  (129) 
-3.24508

>  <r_i_glide_ligand_efficiency>  (129) 
-0.10468

>  <r_i_glide_ligand_efficiency_sa>  (129) 
-0.328839

>  <r_i_glide_ligand_efficiency_ln>  (129) 
-0.731864

>  <r_i_glide_gscore>  (129) 
-3.24508

>  <r_i_glide_lipo>  (129) 
-0.411955

>  <r_i_glide_hbond>  (129) 
-0.157258

>  <r_i_glide_metal>  (129) 
-0

>  <r_i_glide_rewards>  (129) 
-0.697363

>  <r_i_glide_evdw>  (129) 
-27.8571

>  <r_i_glide_ecoul>  (129) 
-4.55977

>  <r_i_glide_erotb>  (129) 
0.113354

>  <r_i_glide_esite>  (129) 
-0.0150328

>  <r_i_glide_emodel>  (129) 
-35.1183

>  <r_i_glide_energy>  (129) 
-32.4169

>  <r_i_glide_einternal>  (129) 
7.23925

>  <r_i_glide_intrahb_reward>  (129) 
-0

>  <i_i_glide_confnum>  (129) 
2

>  <i_i_glide_posenum>  (129) 
15

>  <r_i_glide_eff_state_penalty>  (129) 
0

>  <ligand_id>  (129) 
38

>  <original_smiles>  (129) 
CC1CCC2C(C)C(c3ccncn3)C3CCC4C5C=C(C#N)CC5C(C)C(O)C24C13

>  <smiles>  (129) 
[H]OC1([H])C([H])(C([H])([H])[H])C2([H])C([H])([H])C(C#N)=C([H])C2([H])C2([H])C([H])([H])C([H])([H])C3([H])C([H])(c4nc([H])nc([H])c4[H])C([H])(C([H])([H])[H])C4([H])C([H])([H])C([H])([H])C([H])(C([H])([H])[H])C3([H])C124

$$$$
38:0:2
     RDKit          3D

 66 71  0  0  1  0  0  0  0  0999 V2000
    7.5982   -8.5190    3.2370 C   0  0  0  0  0  0  0  0  0  0  0  0
    6.0718   -8.4764    3.0298 C   0  0  2  0  0  0  0  0  0  0  0  0
    5.7138   -8.8758    1.5754 C   0  0  0  0  0  0  0  0  0  0  0  0
    4.2790   -8.5328    1.1293 C   0  0  0  0  0  0  0  0  0  0  0  0
    3.7710   -7.1732    1.6797 C   0  0  2  0  0  0  0  0  0  0  0  0
    4.5199   -6.0311    0.9018 C   0  0  1  0  0  0  0  0  0  0  0  0
    3.5573   -4.9534    0.3464 C   0  0  0  0  0  0  0  0  0  0  0  0
    5.9026   -5.5989    1.5221 C   0  0  1  0  0  0  0  0  0  0  0  0
    6.5186   -4.2843    1.0000 C   0  0  0  0  0  0  0  0  0  0  0  0
    7.7386   -4.2880    0.2892 C   0  0  0  0  0  0  0  0  0  0  0  0
    8.2095   -3.0479   -0.1780 C   0  0  0  0  0  0  0  0  0  0  0  0
    7.5319   -1.9023    0.0351 N   0  0  0  0  0  0  0  0  0  0  0  0
    6.4057   -2.0036    0.7443 C   0  0  0  0  0  0  0  0  0  0  0  0
    5.8740   -3.1210    1.2412 N   0  0  0  0  0  0  0  0  0  0  0  0
    6.0702   -5.8530    3.0556 C   0  0  1  0  0  0  0  0  0  0  0  0
    5.5907   -4.7238    3.9698 C   0  0  0  0  0  0  0  0  0  0  0  0
    4.1189   -4.4462    3.7539 C   0  0  0  0  0  0  0  0  0  0  0  0
    3.2067   -5.7049    3.8017 C   0  0  2  0  0  0  0  0  0  0  0  0
    2.5112   -5.7940    5.2008 C   0  0  1  0  0  0  0  0  0  0  0  0
    1.7161   -4.5702    5.6178 C   0  0  0  0  0  0  0  0  0  0  0  0
    0.4113   -4.7973    5.7338 C   0  0  0  0  0  0  0  0  0  0  0  0
   -0.5487   -3.8425    6.1665 C   0  0  0  0  0  0  0  0  0  0  0  0
   -1.3426   -3.0567    6.4846 N   0  0  0  0  0  0  0  0  0  0  0  0
    0.0407   -6.2090    5.3880 C   0  0  0  0  0  0  0  0  0  0  0  0
    1.4235   -6.8994    5.2914 C   0  0  1  0  0  0  0  0  0  0  0  0
    1.5917   -8.0559    4.2888 C   0  0  1  0  0  0  0  0  0  0  0  0
    0.7504   -7.9734    2.9949 C   0  0  0  0  0  0  0  0  0  0  0  0
    3.1060   -8.2458    4.0545 C   0  0  1  0  0  0  0  0  0  0  0  0
    3.2955   -9.5910    3.6766 O   0  0  0  0  0  0  0  0  0  0  0  0
    3.8521   -7.0786    3.2596 C   0  0  1  0  0  0  0  0  0  0  0  0
    5.3915   -7.1586    3.5421 C   0  0  1  0  0  0  0  0  0  0  0  0
    8.1255   -7.8527    2.5528 H   0  0  0  0  0  0  0  0  0  0  0  0
    7.9767   -9.5246    3.0526 H   0  0  0  0  0  0  0  0  0  0  0  0
    7.8747   -8.2490    4.2562 H   0  0  0  0  0  0  0  0  0  0  0  0
    5.7072   -9.2749    3.6724 H   0  0  0  0  0  0  0  0  0  0  0  0
    6.4202   -8.4270    0.8835 H   0  0  0  0  0  0  0  0  0  0  0  0
    5.8613   -9.9503    1.4543 H   0  0  0  0  0  0  0  0  0  0  0  0
    4.2467   -8.5368    0.0411 H   0  0  0  0  0  0  0  0  0  0  0  0
    3.5919   -9.3415    1.3577 H   0  0  0  0  0  0  0  0  0  0  0  0
    2.7273   -7.1171    1.3810 H   0  0  0  0  0  0  0  0  0  0  0  0
    4.8297   -6.4625   -0.0513 H   0  0  0  0  0  0  0  0  0  0  0  0
    3.0170   -4.3959    1.1033 H   0  0  0  0  0  0  0  0  0  0  0  0
    2.7955   -5.4220   -0.2776 H   0  0  0  0  0  0  0  0  0  0  0  0
    4.0732   -4.2439   -0.3000 H   0  0  0  0  0  0  0  0  0  0  0  0
    6.5901   -6.3294    1.1092 H   0  0  0  0  0  0  0  0  0  0  0  0
    8.2843   -5.2001    0.0958 H   0  0  0  0  0  0  0  0  0  0  0  0
    9.1382   -2.9667   -0.7236 H   0  0  0  0  0  0  0  0  0  0  0  0
    5.8628   -1.0885    0.9253 H   0  0  0  0  0  0  0  0  0  0  0  0
    7.1407   -5.9157    3.2504 H   0  0  0  0  0  0  0  0  0  0  0  0
    5.7731   -4.9747    5.0147 H   0  0  0  0  0  0  0  0  0  0  0  0
    6.1430   -3.8074    3.7930 H   0  0  0  0  0  0  0  0  0  0  0  0
    3.8262   -3.6892    4.4742 H   0  0  0  0  0  0  0  0  0  0  0  0
    4.0073   -3.9240    2.8145 H   0  0  0  0  0  0  0  0  0  0  0  0
    2.3827   -5.4704    3.1312 H   0  0  0  0  0  0  0  0  0  0  0  0
    3.2738   -5.9711    5.9638 H   0  0  0  0  0  0  0  0  0  0  0  0
    2.1785   -3.6241    5.8566 H   0  0  0  0  0  0  0  0  0  0  0  0
   -0.5832   -6.6619    6.1571 H   0  0  0  0  0  0  0  0  0  0  0  0
   -0.5125   -6.1882    4.4499 H   0  0  0  0  0  0  0  0  0  0  0  0
    1.5805   -7.3465    6.2752 H   0  0  0  0  0  0  0  0  0  0  0  0
    1.2272   -8.9485    4.8058 H   0  0  0  0  0  0  0  0  0  0  0  0
    0.8286   -7.0046    2.5071 H   0  0  0  0  0  0  0  0  0  0  0  0
   -0.3046   -8.1506    3.2052 H   0  0  0  0  0  0  0  0  0  0  0  0
    1.0554   -8.7394    2.2810 H   0  0  0  0  0  0  0  0  0  0  0  0
    3.5499   -8.2498    5.0513 H   0  0  0  0  0  0  0  0  0  0  0  0
    2.9045   -9.7287    2.8263 H   0  0  0  0  0  0  0  0  0  0  0  0
    5.5255   -7.1813    4.6236 H   0  0  0  0  0  0  0  0  0  0  0  0
  1  2  1  0
  1 32  1  0
  1 33  1  0
  1 34  1  0
  2 31  1  0
  2  3  1  0
  2 35  1  1
  3  4  1  0
  3 36  1  0
  3 37  1  0
  4  5  1  0
  4 38  1  0
  4 39  1  0
  5 30  1  0
  5  6  1  0
  5 40  1  1
  6  7  1  0
  6  8  1  0
  6 41  1  6
  7 42  1  0
  7 43  1  0
  7 44  1  0
  8  9  1  0
  8 15  1  0
  8 45  1  6
  9 14  1  0
  9 10  2  0
 10 11  1  0
 10 46  1  0
 11 12  2  0
 11 47  1  0
 12 13  1  0
 13 14  2  0
 13 48  1  0
 15 31  1  0
 15 16  1  0
 15 49  1  6
 16 17  1  0
 16 50  1  0
 16 51  1  0
 17 18  1  0
 17 52  1  0
 17 53  1  0
 18 30  1  0
 18 19  1  0
 18 54  1  6
 19 25  1  0
 19 20  1  0
 19 55  1  1
 20 21  2  0
 20 56  1  0
 21 22  1  0
 21 24  1  0
 22 23  3  0
 24 25  1  0
 24 57  1  0
 24 58  1  0
 25 26  1  0
 25 59  1  1
 26 27  1  0
 26 28  1  0
 26 60  1  1
 27 61  1  0
 27 62  1  0
 27 63  1  0
 28 29  1  0
 30 28  1  1
 28 64  1  1
 29 65  1  0
 30 31  1  0
 31 66  1  1
M  END
>  <i_m_ct_stereo_status>  (130) 
1

>  <s_m_source_file>  (130) 
/var/tmp/pbs.5076255.sched01/tmpio9qf6gp/4214r_5_m5.sdf

>  <i_m_source_file_index>  (130) 
12

>  <i_lp_mmshare_version>  (130) 
48012

>  <i_f3d_flags>  (130) 
0

>  <s_epik_input>  (130) 
bjFbY0hdbltjSF1bY0hdYzFbQ0BIXShbQ0BASF0yW0NIM10pW0NASF0oW0NAQEhdM1tDQEhdKFtDSDNdKVtDSDJdW0NIMl1bQ0BIXTJbQ0BAXTM0NSlbQ0gyXVtDSDJdW0NAQEhdNFtDQEBIXTZbQ0BASF0oW0NIMl1DKD1bQ0hdNilDI04pW0NAQEhdKFtDSDNdKVtDQEhdNVtPSF0=

>  <s_epik_cmdline>  (130) 
J2VwaWtfcHl0aG9uJywgJy1waHQnLCAnMi4wJywgJy1waCcsICc3LjAnLCAnLXRuJywgJzgnLCAnLW1hJywgJzIwMCcsICctaW1hZScsICc8aW5maWxlLm1hZT4nLCAnLW9tYWUnLCAnPG91dGZpbGUubWFlPic=

>  <r_lp_tautomer_probability>  (130) 
1

>  <r_epik_Ionization_Penalty>  (130) 
1.80822e-05

>  <r_epik_Ionization_Penalty_Charging>  (130) 
0

>  <r_epik_Ionization_Penalty_Neutral>  (130) 
1.80822e-05

>  <r_epik_State_Penalty>  (130) 
-0

>  <r_epik_Charging_Adjusted_Penalty>  (130) 
0

>  <i_epik_Tot_Q>  (130) 
0

>  <i_epik_Tot_abs_Q>  (130) 
0

>  <s_epik_Chemistry_Notes>  (130) 
This compound contains an electron-poor aromatic ring that is susceptible to covalent hydrolysis at low pH, typically resulting in measured values for nitrogen ring protonation that are around two units higher than predicted values.

>  <s_lp_Force_Field>  (130) 
OPLS3e

>  <r_lp_Energy>  (130) 
88.7317

>  <b_lp_Chiralities_Consistent>  (130) 
1

>  <s_lp_Variant>  (130) 
38:0-1

>  <s_i_glide_gridfile>  (130) 
pfpi4k_grid

>  <i_i_glide_lignum>  (130) 
12

>  <i_i_glide_rotatable_bonds>  (130) 
3

>  <r_i_docking_score>  (130) 
-3.17324

>  <r_i_glide_ligand_efficiency>  (130) 
-0.102362

>  <r_i_glide_ligand_efficiency_sa>  (130) 
-0.32156

>  <r_i_glide_ligand_efficiency_ln>  (130) 
-0.715662

>  <r_i_glide_gscore>  (130) 
-3.17324

>  <r_i_glide_lipo>  (130) 
-0.668205

>  <r_i_glide_hbond>  (130) 
-0.0910167

>  <r_i_glide_metal>  (130) 
-0

>  <r_i_glide_rewards>  (130) 
-0.668762

>  <r_i_glide_evdw>  (130) 
-26.9691

>  <r_i_glide_ecoul>  (130) 
-3.29823

>  <r_i_glide_erotb>  (130) 
0.113354

>  <r_i_glide_esite>  (130) 
-0.0154199

>  <r_i_glide_emodel>  (130) 
-37.3787

>  <r_i_glide_energy>  (130) 
-30.2673

>  <r_i_glide_einternal>  (130) 
-0.288973

>  <r_i_glide_intrahb_reward>  (130) 
-0

>  <i_i_glide_confnum>  (130) 
3

>  <i_i_glide_posenum>  (130) 
37

>  <r_i_glide_eff_state_penalty>  (130) 
0

>  <ligand_id>  (130) 
38

>  <original_smiles>  (130) 
CC1CCC2C(C)C(c3ccncn3)C3CCC4C5C=C(C#N)CC5C(C)C(O)C24C13

>  <smiles>  (130) 
[H]OC1([H])C([H])(C([H])([H])[H])C2([H])C([H])([H])C(C#N)=C([H])C2([H])C2([H])C([H])([H])C([H])([H])C3([H])C([H])(c4nc([H])nc([H])c4[H])C([H])(C([H])([H])[H])C4([H])C([H])([H])C([H])([H])C([H])(C([H])([H])[H])C3([H])C124

$$$$
39:0:0
     RDKit          3D

 65 70  0  0  1  0  0  0  0  0999 V2000
    2.5560   -9.4344    1.7035 C   0  0  0  0  0  0  0  0  0  0  0  0
    2.7675   -7.9821    2.0950 C   0  0  0  0  0  0  0  0  0  0  0  0
    2.0179   -7.1817    2.8823 C   0  0  0  0  0  0  0  0  0  0  0  0
    0.7967   -7.5871    3.6104 C   0  0  0  0  0  0  0  0  0  0  0  0
    0.0800   -6.8159    4.2495 O   0  0  0  0  0  0  0  0  0  0  0  0
    2.6352   -5.8758    2.9011 C   0  0  0  0  0  0  0  0  0  0  0  0
    1.9643   -4.7002    2.9546 C   0  0  0  0  0  0  0  0  0  0  0  0
    2.5443   -3.3966    2.3887 C   0  0  1  0  0  0  0  0  0  0  0  0
    3.1892   -2.5097    3.5258 C   0  0  1  0  0  0  0  0  0  0  0  0
    2.2553   -2.4511    4.7798 C   0  0  0  0  0  0  0  0  0  0  0  0
    4.4789   -3.2282    4.0152 C   0  0  0  0  0  0  0  0  0  0  0  0
    5.3811   -3.8191    2.9050 C   0  0  0  0  0  0  0  0  0  0  0  0
    4.6213   -4.6343    1.8185 C   0  0  1  0  0  0  0  0  0  0  0  0
    4.0809   -5.9970    2.4478 C   0  0  1  0  0  0  0  0  0  0  0  0
    4.9507   -6.5402    3.6290 C   0  0  0  0  0  0  0  0  0  0  0  0
    3.9702   -7.2375    1.5164 C   0  0  0  0  0  0  0  0  0  0  0  0
    3.4751   -3.7421    1.1687 C   0  0  1  0  0  0  0  0  0  0  0  0
    2.6933   -4.5848    0.1038 C   0  0  0  0  0  0  0  0  0  0  0  0
    3.8010   -2.4643    0.2987 C   0  0  1  0  0  0  0  0  0  0  0  0
    4.3290   -1.1044    0.6533 C   0  0  1  0  0  0  0  0  0  0  0  0
    4.6482   -0.8500    2.0896 C   0  0  0  0  0  0  0  0  0  0  0  0
    5.7469   -0.4272    2.4477 O   0  0  0  0  0  0  0  0  0  0  0  0
    3.5142   -1.0195    3.1115 C   0  0  1  0  0  0  0  0  0  0  0  0
    2.3254   -0.1180    2.7803 C   0  0  0  0  0  0  0  0  0  0  0  0
    2.3590    1.2887    2.5293 C   0  0  0  0  0  0  0  0  0  0  0  0
    1.0725    1.6912    2.3101 C   0  0  0  0  0  0  0  0  0  0  0  0
    0.2223    0.6468    2.4075 O   0  0  0  0  0  0  0  0  0  0  0  0
    0.9930   -0.4333    2.6719 C   0  0  0  0  0  0  0  0  0  0  0  0
    5.1157   -1.9820   -0.3317 C   0  0  0  0  0  0  0  0  0  0  0  0
    6.5316   -2.4804   -0.0315 C   0  0  0  0  0  0  0  0  0  0  0  0
    5.0641   -1.5755   -1.7998 C   0  0  0  0  0  0  0  0  0  0  0  0
    3.4222  -10.0311    1.9879 H   0  0  0  0  0  0  0  0  0  0  0  0
    2.4409   -9.5118    0.6226 H   0  0  0  0  0  0  0  0  0  0  0  0
    1.6768   -9.8757    2.1658 H   0  0  0  0  0  0  0  0  0  0  0  0
    0.5443   -8.6442    3.5430 H   0  0  0  0  0  0  0  0  0  0  0  0
    0.9134   -4.6753    3.1844 H   0  0  0  0  0  0  0  0  0  0  0  0
    1.6956   -2.8726    1.9677 H   0  0  0  0  0  0  0  0  0  0  0  0
    2.6593   -1.7658    5.5277 H   0  0  0  0  0  0  0  0  0  0  0  0
    2.1489   -3.4240    5.2636 H   0  0  0  0  0  0  0  0  0  0  0  0
    1.2412   -2.1292    4.5581 H   0  0  0  0  0  0  0  0  0  0  0  0
    5.0702   -2.5540    4.6326 H   0  0  0  0  0  0  0  0  0  0  0  0
    4.1825   -4.0233    4.6957 H   0  0  0  0  0  0  0  0  0  0  0  0
    5.9483   -3.0271    2.4545 H   0  0  0  0  0  0  0  0  0  0  0  0
    6.1785   -4.4027    3.3544 H   0  0  0  0  0  0  0  0  0  0  0  0
    5.3330   -4.9130    1.0450 H   0  0  0  0  0  0  0  0  0  0  0  0
    5.9977   -6.6433    3.3411 H   0  0  0  0  0  0  0  0  0  0  0  0
    4.6236   -7.5284    3.9527 H   0  0  0  0  0  0  0  0  0  0  0  0
    4.9085   -5.9392    4.5348 H   0  0  0  0  0  0  0  0  0  0  0  0
    4.8690   -7.8548    1.5251 H   0  0  0  0  0  0  0  0  0  0  0  0
    3.7786   -6.9874    0.4763 H   0  0  0  0  0  0  0  0  0  0  0  0
    3.3480   -4.8783   -0.7172 H   0  0  0  0  0  0  0  0  0  0  0  0
    1.8636   -4.0327   -0.3401 H   0  0  0  0  0  0  0  0  0  0  0  0
    2.2118   -5.4880    0.4645 H   0  0  0  0  0  0  0  0  0  0  0  0
    2.9475   -2.2684   -0.3445 H   0  0  0  0  0  0  0  0  0  0  0  0
    3.8481   -0.2497    0.1810 H   0  0  0  0  0  0  0  0  0  0  0  0
    3.9268   -0.5624    4.0088 H   0  0  0  0  0  0  0  0  0  0  0  0
    3.2182    1.9458    2.5103 H   0  0  0  0  0  0  0  0  0  0  0  0
    0.5943    2.6288    2.0815 H   0  0  0  0  0  0  0  0  0  0  0  0
    0.4100   -1.3378    2.7678 H   0  0  0  0  0  0  0  0  0  0  0  0
    7.2404   -2.1256   -0.7796 H   0  0  0  0  0  0  0  0  0  0  0  0
    6.5768   -3.5650   -0.0586 H   0  0  0  0  0  0  0  0  0  0  0  0
    6.9196   -2.1071    0.9113 H   0  0  0  0  0  0  0  0  0  0  0  0
    5.8121   -0.8157   -2.0144 H   0  0  0  0  0  0  0  0  0  0  0  0
    4.0915   -1.1479   -2.0507 H   0  0  0  0  0  0  0  0  0  0  0  0
    5.2401   -2.4372   -2.4440 H   0  0  0  0  0  0  0  0  0  0  0  0
  1  2  1  0
  1 32  1  0
  1 33  1  0
  1 34  1  0
  2 16  1  0
  2  3  2  0
  3  4  1  0
  3  6  1  0
  4  5  2  0
  4 35  1  0
  6 14  1  0
  6  7  2  0
  7  8  1  0
  7 36  1  0
  8 17  1  0
  8  9  1  0
  8 37  1  6
  9 23  1  0
  9 10  1  1
  9 11  1  0
 10 38  1  0
 10 39  1  0
 10 40  1  0
 11 12  1  0
 11 41  1  0
 11 42  1  0
 12 13  1  0
 12 43  1  0
 12 44  1  0
 13 14  1  0
 13 17  1  0
 13 45  1  6
 14 15  1  1
 14 16  1  0
 15 46  1  0
 15 47  1  0
 15 48  1  0
 16 49  1  0
 16 50  1  0
 17 18  1  6
 17 19  1  0
 18 51  1  0
 18 52  1  0
 18 53  1  0
 19 29  1  0
 19 20  1  0
 19 54  1  6
 20 21  1  0
 20 29  1  0
 20 55  1  6
 21 22  2  0
 21 23  1  0
 23 24  1  0
 23 56  1  1
 24 28  2  0
 24 25  1  0
 25 26  2  0
 25 57  1  0
 26 27  1  0
 26 58  1  0
 27 28  1  0
 28 59  1  0
 29 30  1  0
 29 31  1  0
 30 60  1  0
 30 61  1  0
 30 62  1  0
 31 63  1  0
 31 64  1  0
 31 65  1  0
M  END
>  <i_m_ct_stereo_status>  (131) 
1

>  <s_m_source_file>  (131) 
/var/tmp/pbs.5076255.sched01/tmpio9qf6gp/4214r_5_m5.sdf

>  <i_m_source_file_index>  (131) 
13

>  <i_lp_mmshare_version>  (131) 
48012

>  <i_f3d_flags>  (131) 
0

>  <s_epik_input>  (131) 
W0NIM11DKFtDSDJdMSk9QyhbQ0hdPU8pQyg9W0NIXTIpW0NAXTEoW0NIM10pW0NASF0oW0NIMl1bQ0gyXTMpW0NAQF0oW0NIM10pKFtDQEBIXTJbQ0BAXTM0W0NIM10pW0NASF01W0NASF0oQzUoW0NIM10pW0NIM10pQyg9TylbQ0BIXTRjNltjSF1bY0hdb1tjSF02

>  <s_epik_cmdline>  (131) 
J2VwaWtfcHl0aG9uJywgJy1waHQnLCAnMi4wJywgJy1waCcsICc3LjAnLCAnLXRuJywgJzgnLCAnLW1hJywgJzIwMCcsICctaW1hZScsICc8aW5maWxlLm1hZT4nLCAnLW9tYWUnLCAnPG91dGZpbGUubWFlPic=

>  <r_lp_tautomer_probability>  (131) 
1

>  <r_epik_Ionization_Penalty>  (131) 
2.17729e-13

>  <r_epik_Ionization_Penalty_Charging>  (131) 
0

>  <r_epik_Ionization_Penalty_Neutral>  (131) 
2.17729e-13

>  <r_epik_State_Penalty>  (131) 
-0

>  <r_epik_Charging_Adjusted_Penalty>  (131) 
0

>  <i_epik_Tot_Q>  (131) 
0

>  <i_epik_Tot_abs_Q>  (131) 
0

>  <s_lp_Force_Field>  (131) 
OPLS3e

>  <r_lp_Energy>  (131) 
99.6859

>  <b_lp_Chiralities_Consistent>  (131) 
1

>  <s_lp_Variant>  (131) 
39:0-1

>  <s_i_glide_gridfile>  (131) 
pfpi4k_grid

>  <i_i_glide_lignum>  (131) 
13

>  <i_i_glide_rotatable_bonds>  (131) 
2

>  <r_i_docking_score>  (131) 
-2.93441

>  <r_i_glide_ligand_efficiency>  (131) 
-0.0946584

>  <r_i_glide_ligand_efficiency_sa>  (131) 
-0.297358

>  <r_i_glide_ligand_efficiency_ln>  (131) 
-0.6618

>  <r_i_glide_gscore>  (131) 
-2.93441

>  <r_i_glide_lipo>  (131) 
-0.186231

>  <r_i_glide_hbond>  (131) 
-0.108956

>  <r_i_glide_metal>  (131) 
-0

>  <r_i_glide_rewards>  (131) 
-0.670915

>  <r_i_glide_evdw>  (131) 
-32.267

>  <r_i_glide_ecoul>  (131) 
-2.97096

>  <r_i_glide_erotb>  (131) 
0.112874

>  <r_i_glide_esite>  (131) 
-0.022188

>  <r_i_glide_emodel>  (131) 
-41.0135

>  <r_i_glide_energy>  (131) 
-35.238

>  <r_i_glide_einternal>  (131) 
0.929305

>  <r_i_glide_intrahb_reward>  (131) 
-0

>  <i_i_glide_confnum>  (131) 
2

>  <i_i_glide_posenum>  (131) 
14

>  <r_i_glide_eff_state_penalty>  (131) 
0

>  <ligand_id>  (131) 
39

>  <original_smiles>  (131) 
CC1=C(C=O)C2=CC3C4(C)CCC(C2(C)C1)C3(C)C1C(C(=O)C4c2ccoc2)C1(C)C

>  <smiles>  (131) 
[H]C(=O)C1=C(C([H])([H])[H])C([H])([H])C2(C([H])([H])[H])C1=C([H])C1([H])C3(C([H])([H])[H])C([H])(c4c([H])oc([H])c4[H])C(=O)C4([H])C([H])(C4(C([H])([H])[H])C([H])([H])[H])C1(C([H])([H])[H])C2([H])C([H])([H])C3([H])[H]

$$$$
39:0:1
     RDKit          3D

 65 70  0  0  1  0  0  0  0  0999 V2000
    2.3065   -9.3660    1.6977 C   0  0  0  0  0  0  0  0  0  0  0  0
    2.5509   -7.9288    2.1362 C   0  0  0  0  0  0  0  0  0  0  0  0
    1.8059   -7.1318    2.9264 C   0  0  0  0  0  0  0  0  0  0  0  0
    0.5528   -7.5208    3.6114 C   0  0  0  0  0  0  0  0  0  0  0  0
   -0.1610   -6.7492    4.2477 O   0  0  0  0  0  0  0  0  0  0  0  0
    2.4588   -5.8425    3.0047 C   0  0  0  0  0  0  0  0  0  0  0  0
    1.8249   -4.6495    3.0734 C   0  0  0  0  0  0  0  0  0  0  0  0
    2.4564   -3.3407    2.5651 C   0  0  1  0  0  0  0  0  0  0  0  0
    3.1134   -2.5181    3.7372 C   0  0  1  0  0  0  0  0  0  0  0  0
    2.1173   -2.4386    4.9314 C   0  0  0  0  0  0  0  0  0  0  0  0
    4.3509   -3.2972    4.2531 C   0  0  0  0  0  0  0  0  0  0  0  0
    5.2643   -3.8815    3.1505 C   0  0  0  0  0  0  0  0  0  0  0  0
    4.5104   -4.6344    2.0168 C   0  0  1  0  0  0  0  0  0  0  0  0
    3.9146   -5.9988    2.5853 C   0  0  1  0  0  0  0  0  0  0  0  0
    4.7354   -6.6081    3.7715 C   0  0  0  0  0  0  0  0  0  0  0  0
    3.7924   -7.2071    1.6121 C   0  0  0  0  0  0  0  0  0  0  0  0
    3.4128   -3.6853    1.3631 C   0  0  1  0  0  0  0  0  0  0  0  0
    2.6369   -4.4715    0.2505 C   0  0  0  0  0  0  0  0  0  0  0  0
    3.8114   -2.3927    0.5478 C   0  0  1  0  0  0  0  0  0  0  0  0
    4.3930   -1.0664    0.9506 C   0  0  1  0  0  0  0  0  0  0  0  0
    4.6721   -0.8585    2.4017 C   0  0  0  0  0  0  0  0  0  0  0  0
    5.7705   -0.4776    2.8060 O   0  0  0  0  0  0  0  0  0  0  0  0
    3.5051   -1.0339    3.3872 C   0  0  1  0  0  0  0  0  0  0  0  0
    2.3316   -0.1061    3.0921 C   0  0  0  0  0  0  0  0  0  0  0  0
    1.6616    0.7473    4.0186 C   0  0  0  0  0  0  0  0  0  0  0  0
    0.6778    1.3951    3.3286 C   0  0  0  0  0  0  0  0  0  0  0  0
    0.6815    1.0217    2.0276 O   0  0  0  0  0  0  0  0  0  0  0  0
    1.6882    0.1212    1.9008 C   0  0  0  0  0  0  0  0  0  0  0  0
    5.1585   -1.9485   -0.0394 C   0  0  0  0  0  0  0  0  0  0  0  0
    6.5498   -2.4949    0.2830 C   0  0  0  0  0  0  0  0  0  0  0  0
    5.1483   -1.4932   -1.4942 C   0  0  0  0  0  0  0  0  0  0  0  0
    3.1455   -9.9992    1.9826 H   0  0  0  0  0  0  0  0  0  0  0  0
    2.2173   -9.4180    0.6133 H   0  0  0  0  0  0  0  0  0  0  0  0
    1.4020   -9.7942    2.1220 H   0  0  0  0  0  0  0  0  0  0  0  0
    0.2765   -8.5694    3.5086 H   0  0  0  0  0  0  0  0  0  0  0  0
    0.7677   -4.5995    3.2790 H   0  0  0  0  0  0  0  0  0  0  0  0
    1.6283   -2.7565    2.1697 H   0  0  0  0  0  0  0  0  0  0  0  0
    2.5080   -1.8046    5.7294 H   0  0  0  0  0  0  0  0  0  0  0  0
    1.9291   -3.4142    5.3834 H   0  0  0  0  0  0  0  0  0  0  0  0
    1.1489   -2.0381    4.6281 H   0  0  0  0  0  0  0  0  0  0  0  0
    4.9456   -2.6614    4.9081 H   0  0  0  0  0  0  0  0  0  0  0  0
    4.0018   -4.1000    4.9004 H   0  0  0  0  0  0  0  0  0  0  0  0
    5.8645   -3.0947    2.7394 H   0  0  0  0  0  0  0  0  0  0  0  0
    6.0315   -4.5016    3.6049 H   0  0  0  0  0  0  0  0  0  0  0  0
    5.2360   -4.9122    1.2569 H   0  0  0  0  0  0  0  0  0  0  0  0
    5.7866   -6.7360    3.5071 H   0  0  0  0  0  0  0  0  0  0  0  0
    4.3710   -7.5960    4.0538 H   0  0  0  0  0  0  0  0  0  0  0  0
    4.6880   -6.0353    4.6951 H   0  0  0  0  0  0  0  0  0  0  0  0
    4.6702   -7.8538    1.6251 H   0  0  0  0  0  0  0  0  0  0  0  0
    3.6351   -6.9222    0.5760 H   0  0  0  0  0  0  0  0  0  0  0  0
    3.3063   -4.7639   -0.5592 H   0  0  0  0  0  0  0  0  0  0  0  0
    1.8390   -3.8816   -0.2021 H   0  0  0  0  0  0  0  0  0  0  0  0
    2.1210   -5.3687    0.5706 H   0  0  0  0  0  0  0  0  0  0  0  0
    2.9857   -2.1506   -0.1153 H   0  0  0  0  0  0  0  0  0  0  0  0
    3.9811   -0.1768    0.4802 H   0  0  0  0  0  0  0  0  0  0  0  0
    3.9081   -0.6175    4.3092 H   0  0  0  0  0  0  0  0  0  0  0  0
    1.8663    0.8710    5.0728 H   0  0  0  0  0  0  0  0  0  0  0  0
   -0.0817    2.1177    3.5857 H   0  0  0  0  0  0  0  0  0  0  0  0
    1.8091   -0.2532    0.8941 H   0  0  0  0  0  0  0  0  0  0  0  0
    7.2877   -2.1310   -0.4318 H   0  0  0  0  0  0  0  0  0  0  0  0
    6.5618   -3.5791    0.2246 H   0  0  0  0  0  0  0  0  0  0  0  0
    6.9145   -2.1625    1.2499 H   0  0  0  0  0  0  0  0  0  0  0  0
    5.9116   -0.7403   -1.6675 H   0  0  0  0  0  0  0  0  0  0  0  0
    4.1952   -1.0243   -1.7486 H   0  0  0  0  0  0  0  0  0  0  0  0
    5.3149   -2.3351   -2.1658 H   0  0  0  0  0  0  0  0  0  0  0  0
  1  2  1  0
  1 32  1  0
  1 33  1  0
  1 34  1  0
  2 16  1  0
  2  3  2  0
  3  4  1  0
  3  6  1  0
  4  5  2  0
  4 35  1  0
  6 14  1  0
  6  7  2  0
  7  8  1  0
  7 36  1  0
  8 17  1  0
  8  9  1  0
  8 37  1  6
  9 23  1  0
  9 10  1  1
  9 11  1  0
 10 38  1  0
 10 39  1  0
 10 40  1  0
 11 12  1  0
 11 41  1  0
 11 42  1  0
 12 13  1  0
 12 43  1  0
 12 44  1  0
 13 14  1  0
 13 17  1  0
 13 45  1  6
 14 15  1  1
 14 16  1  0
 15 46  1  0
 15 47  1  0
 15 48  1  0
 16 49  1  0
 16 50  1  0
 17 18  1  6
 17 19  1  0
 18 51  1  0
 18 52  1  0
 18 53  1  0
 19 29  1  0
 19 20  1  0
 19 54  1  6
 20 21  1  0
 20 29  1  0
 20 55  1  6
 21 22  2  0
 21 23  1  0
 23 24  1  0
 23 56  1  1
 24 28  2  0
 24 25  1  0
 25 26  2  0
 25 57  1  0
 26 27  1  0
 26 58  1  0
 27 28  1  0
 28 59  1  0
 29 30  1  0
 29 31  1  0
 30 60  1  0
 30 61  1  0
 30 62  1  0
 31 63  1  0
 31 64  1  0
 31 65  1  0
M  END
>  <i_m_ct_stereo_status>  (132) 
1

>  <s_m_source_file>  (132) 
/var/tmp/pbs.5076255.sched01/tmpio9qf6gp/4214r_5_m5.sdf

>  <i_m_source_file_index>  (132) 
13

>  <i_lp_mmshare_version>  (132) 
48012

>  <i_f3d_flags>  (132) 
0

>  <s_epik_input>  (132) 
W0NIM11DKFtDSDJdMSk9QyhbQ0hdPU8pQyg9W0NIXTIpW0NAXTEoW0NIM10pW0NASF0oW0NIMl1bQ0gyXTMpW0NAQF0oW0NIM10pKFtDQEBIXTJbQ0BAXTM0W0NIM10pW0NASF01W0NASF0oQzUoW0NIM10pW0NIM10pQyg9TylbQ0BIXTRjNltjSF1bY0hdb1tjSF02

>  <s_epik_cmdline>  (132) 
J2VwaWtfcHl0aG9uJywgJy1waHQnLCAnMi4wJywgJy1waCcsICc3LjAnLCAnLXRuJywgJzgnLCAnLW1hJywgJzIwMCcsICctaW1hZScsICc8aW5maWxlLm1hZT4nLCAnLW9tYWUnLCAnPG91dGZpbGUubWFlPic=

>  <r_lp_tautomer_probability>  (132) 
1

>  <r_epik_Ionization_Penalty>  (132) 
2.17729e-13

>  <r_epik_Ionization_Penalty_Charging>  (132) 
0

>  <r_epik_Ionization_Penalty_Neutral>  (132) 
2.17729e-13

>  <r_epik_State_Penalty>  (132) 
-0

>  <r_epik_Charging_Adjusted_Penalty>  (132) 
0

>  <i_epik_Tot_Q>  (132) 
0

>  <i_epik_Tot_abs_Q>  (132) 
0

>  <s_lp_Force_Field>  (132) 
OPLS3e

>  <r_lp_Energy>  (132) 
99.6859

>  <b_lp_Chiralities_Consistent>  (132) 
1

>  <s_lp_Variant>  (132) 
39:0-1

>  <s_i_glide_gridfile>  (132) 
pfpi4k_grid

>  <i_i_glide_lignum>  (132) 
13

>  <i_i_glide_rotatable_bonds>  (132) 
2

>  <r_i_docking_score>  (132) 
-2.65577

>  <r_i_glide_ligand_efficiency>  (132) 
-0.08567

>  <r_i_glide_ligand_efficiency_sa>  (132) 
-0.269122

>  <r_i_glide_ligand_efficiency_ln>  (132) 
-0.598957

>  <r_i_glide_gscore>  (132) 
-2.65577

>  <r_i_glide_lipo>  (132) 
-0.292052

>  <r_i_glide_hbond>  (132) 
-0.00116885

>  <r_i_glide_metal>  (132) 
-0

>  <r_i_glide_rewards>  (132) 
-0.667912

>  <r_i_glide_evdw>  (132) 
-30.7203

>  <r_i_glide_ecoul>  (132) 
-1.62725

>  <r_i_glide_erotb>  (132) 
0.112874

>  <r_i_glide_esite>  (132) 
-0.0274089

>  <r_i_glide_emodel>  (132) 
-37.7101

>  <r_i_glide_energy>  (132) 
-32.3475

>  <r_i_glide_einternal>  (132) 
0.56796

>  <r_i_glide_intrahb_reward>  (132) 
-0

>  <i_i_glide_confnum>  (132) 
1

>  <i_i_glide_posenum>  (132) 
1

>  <r_i_glide_eff_state_penalty>  (132) 
0

>  <ligand_id>  (132) 
39

>  <original_smiles>  (132) 
CC1=C(C=O)C2=CC3C4(C)CCC(C2(C)C1)C3(C)C1C(C(=O)C4c2ccoc2)C1(C)C

>  <smiles>  (132) 
[H]C(=O)C1=C(C([H])([H])[H])C([H])([H])C2(C([H])([H])[H])C1=C([H])C1([H])C3(C([H])([H])[H])C([H])(c4c([H])oc([H])c4[H])C(=O)C4([H])C([H])(C4(C([H])([H])[H])C([H])([H])[H])C1(C([H])([H])[H])C2([H])C([H])([H])C3([H])[H]

$$$$
39:0:2
     RDKit          3D

 65 70  0  0  1  0  0  0  0  0999 V2000
   -2.5704    2.9272    6.3060 C   0  0  0  0  0  0  0  0  0  0  0  0
   -1.3963    2.2406    5.6407 C   0  0  0  0  0  0  0  0  0  0  0  0
   -0.9652    2.2680    4.3603 C   0  0  0  0  0  0  0  0  0  0  0  0
   -1.5281    3.0651    3.2462 C   0  0  0  0  0  0  0  0  0  0  0  0
   -2.4076    3.9322    3.3521 O   0  0  0  0  0  0  0  0  0  0  0  0
    0.1850    1.4013    4.2509 C   0  0  0  0  0  0  0  0  0  0  0  0
    0.4844    0.6339    3.1727 C   0  0  0  0  0  0  0  0  0  0  0  0
    1.2948   -0.6721    3.2839 C   0  0  1  0  0  0  0  0  0  0  0  0
    2.8242   -0.4536    2.9601 C   0  0  1  0  0  0  0  0  0  0  0  0
    2.9498    0.3977    1.6618 C   0  0  0  0  0  0  0  0  0  0  0  0
    3.4584    0.4146    4.0821 C   0  0  0  0  0  0  0  0  0  0  0  0
    3.0667    0.0077    5.5199 C   0  0  0  0  0  0  0  0  0  0  0  0
    1.5422   -0.2380    5.7228 C   0  0  1  0  0  0  0  0  0  0  0  0
    0.7552    1.1491    5.6453 C   0  0  1  0  0  0  0  0  0  0  0  0
    1.6078    2.3803    6.0850 C   0  0  0  0  0  0  0  0  0  0  0  0
   -0.5281    1.3076    6.4953 C   0  0  0  0  0  0  0  0  0  0  0  0
    1.0097   -1.3239    4.6878 C   0  0  1  0  0  0  0  0  0  0  0  0
   -0.5294   -1.5315    4.8834 C   0  0  0  0  0  0  0  0  0  0  0  0
    1.4943   -2.8267    4.7450 C   0  0  1  0  0  0  0  0  0  0  0  0
    2.8105   -3.4909    4.4757 C   0  0  1  0  0  0  0  0  0  0  0  0
    3.9182   -2.6199    3.9866 C   0  0  0  0  0  0  0  0  0  0  0  0
    5.0317   -2.6483    4.5077 O   0  0  0  0  0  0  0  0  0  0  0  0
    3.6660   -1.7689    2.7289 C   0  0  1  0  0  0  0  0  0  0  0  0
    3.2947   -2.5936    1.4872 C   0  0  0  0  0  0  0  0  0  0  0  0
    3.6157   -2.2877    0.1312 C   0  0  0  0  0  0  0  0  0  0  0  0
    3.0766   -3.2680   -0.6567 C   0  0  0  0  0  0  0  0  0  0  0  0
    2.4791   -4.2041    0.1078 O   0  0  0  0  0  0  0  0  0  0  0  0
    2.6165   -3.7931    1.3837 C   0  0  0  0  0  0  0  0  0  0  0  0
    2.2122   -3.5955    5.8689 C   0  0  0  0  0  0  0  0  0  0  0  0
    2.9564   -3.0483    7.0807 C   0  0  0  0  0  0  0  0  0  0  0  0
    1.6432   -4.9612    6.2436 C   0  0  0  0  0  0  0  0  0  0  0  0
   -2.2296    3.5471    7.1342 H   0  0  0  0  0  0  0  0  0  0  0  0
   -3.2625    2.1825    6.6978 H   0  0  0  0  0  0  0  0  0  0  0  0
   -3.1435    3.5721    5.6370 H   0  0  0  0  0  0  0  0  0  0  0  0
   -1.0929    2.8552    2.2699 H   0  0  0  0  0  0  0  0  0  0  0  0
   -0.0144    0.7922    2.2266 H   0  0  0  0  0  0  0  0  0  0  0  0
    0.8970   -1.3360    2.5212 H   0  0  0  0  0  0  0  0  0  0  0  0
    3.9899    0.4972    1.3457 H   0  0  0  0  0  0  0  0  0  0  0  0
    2.5675    1.4123    1.7767 H   0  0  0  0  0  0  0  0  0  0  0  0
    2.3796   -0.0408    0.8440 H   0  0  0  0  0  0  0  0  0  0  0  0
    4.5396    0.4058    3.9919 H   0  0  0  0  0  0  0  0  0  0  0  0
    3.1798    1.4555    3.9050 H   0  0  0  0  0  0  0  0  0  0  0  0
    3.6295   -0.8576    5.8102 H   0  0  0  0  0  0  0  0  0  0  0  0
    3.4621    0.7323    6.2253 H   0  0  0  0  0  0  0  0  0  0  0  0
    1.3973   -0.6097    6.7329 H   0  0  0  0  0  0  0  0  0  0  0  0
    2.0274    2.2441    7.0810 H   0  0  0  0  0  0  0  0  0  0  0  0
    1.0080    3.2938    6.1326 H   0  0  0  0  0  0  0  0  0  0  0  0
    2.4210    2.6392    5.4108 H   0  0  0  0  0  0  0  0  0  0  0  0
   -0.3346    1.7388    7.4882 H   0  0  0  0  0  0  0  0  0  0  0  0
   -1.0645    0.3791    6.6569 H   0  0  0  0  0  0  0  0  0  0  0  0
   -0.7494   -1.9336    5.8734 H   0  0  0  0  0  0  0  0  0  0  0  0
   -0.9451   -2.2297    4.1572 H   0  0  0  0  0  0  0  0  0  0  0  0
   -1.1527   -0.6546    4.7526 H   0  0  0  0  0  0  0  0  0  0  0  0
    0.7483   -3.4337    4.2493 H   0  0  0  0  0  0  0  0  0  0  0  0
    2.8346   -4.4839    4.0273 H   0  0  0  0  0  0  0  0  0  0  0  0
    4.6699   -1.4221    2.4775 H   0  0  0  0  0  0  0  0  0  0  0  0
    4.1345   -1.4194   -0.2508 H   0  0  0  0  0  0  0  0  0  0  0  0
    3.0129   -3.4450   -1.7162 H   0  0  0  0  0  0  0  0  0  0  0  0
    2.1272   -4.4716    2.0688 H   0  0  0  0  0  0  0  0  0  0  0  0
    3.1985   -3.8517    7.7829 H   0  0  0  0  0  0  0  0  0  0  0  0
    2.3422   -2.3264    7.6125 H   0  0  0  0  0  0  0  0  0  0  0  0
    3.9128   -2.6196    6.8168 H   0  0  0  0  0  0  0  0  0  0  0  0
    2.4318   -5.6325    6.5900 H   0  0  0  0  0  0  0  0  0  0  0  0
    1.1773   -5.4379    5.3812 H   0  0  0  0  0  0  0  0  0  0  0  0
    0.8921   -4.8639    7.0298 H   0  0  0  0  0  0  0  0  0  0  0  0
  1  2  1  0
  1 32  1  0
  1 33  1  0
  1 34  1  0
  2 16  1  0
  2  3  2  0
  3  4  1  0
  3  6  1  0
  4  5  2  0
  4 35  1  0
  6 14  1  0
  6  7  2  0
  7  8  1  0
  7 36  1  0
  8 17  1  0
  8  9  1  0
  8 37  1  6
  9 23  1  0
  9 10  1  6
  9 11  1  0
 10 38  1  0
 10 39  1  0
 10 40  1  0
 11 12  1  0
 11 41  1  0
 11 42  1  0
 12 13  1  0
 12 43  1  0
 12 44  1  0
 13 14  1  0
 13 17  1  0
 13 45  1  1
 14 15  1  1
 14 16  1  0
 15 46  1  0
 15 47  1  0
 15 48  1  0
 16 49  1  0
 16 50  1  0
 17 18  1  1
 17 19  1  0
 18 51  1  0
 18 52  1  0
 18 53  1  0
 19 29  1  0
 19 20  1  0
 19 54  1  6
 20 21  1  0
 20 29  1  0
 20 55  1  6
 21 22  2  0
 21 23  1  0
 23 24  1  0
 23 56  1  6
 24 28  2  0
 24 25  1  0
 25 26  2  0
 25 57  1  0
 26 27  1  0
 26 58  1  0
 27 28  1  0
 28 59  1  0
 29 30  1  0
 29 31  1  0
 30 60  1  0
 30 61  1  0
 30 62  1  0
 31 63  1  0
 31 64  1  0
 31 65  1  0
M  END
>  <i_m_ct_stereo_status>  (133) 
1

>  <s_m_source_file>  (133) 
/var/tmp/pbs.5076255.sched01/tmpio9qf6gp/4214r_5_m5.sdf

>  <i_m_source_file_index>  (133) 
13

>  <i_lp_mmshare_version>  (133) 
48012

>  <i_f3d_flags>  (133) 
0

>  <s_epik_input>  (133) 
W0NIM11DKFtDSDJdMSk9QyhbQ0hdPU8pQyg9W0NIXTIpW0NAXTEoW0NIM10pW0NASF0oW0NIMl1bQ0gyXTMpW0NAQF0oW0NIM10pKFtDQEBIXTJbQ0BAXTM0W0NIM10pW0NASF01W0NASF0oQzUoW0NIM10pW0NIM10pQyg9TylbQ0BIXTRjNltjSF1bY0hdb1tjSF02

>  <s_epik_cmdline>  (133) 
J2VwaWtfcHl0aG9uJywgJy1waHQnLCAnMi4wJywgJy1waCcsICc3LjAnLCAnLXRuJywgJzgnLCAnLW1hJywgJzIwMCcsICctaW1hZScsICc8aW5maWxlLm1hZT4nLCAnLW9tYWUnLCAnPG91dGZpbGUubWFlPic=

>  <r_lp_tautomer_probability>  (133) 
1

>  <r_epik_Ionization_Penalty>  (133) 
2.17729e-13

>  <r_epik_Ionization_Penalty_Charging>  (133) 
0

>  <r_epik_Ionization_Penalty_Neutral>  (133) 
2.17729e-13

>  <r_epik_State_Penalty>  (133) 
-0

>  <r_epik_Charging_Adjusted_Penalty>  (133) 
0

>  <i_epik_Tot_Q>  (133) 
0

>  <i_epik_Tot_abs_Q>  (133) 
0

>  <s_lp_Force_Field>  (133) 
OPLS3e

>  <r_lp_Energy>  (133) 
99.6859

>  <b_lp_Chiralities_Consistent>  (133) 
1

>  <s_lp_Variant>  (133) 
39:0-1

>  <s_i_glide_gridfile>  (133) 
pfpi4k_grid

>  <i_i_glide_lignum>  (133) 
13

>  <i_i_glide_rotatable_bonds>  (133) 
2

>  <r_i_docking_score>  (133) 
-2.59976

>  <r_i_glide_ligand_efficiency>  (133) 
-0.0838631

>  <r_i_glide_ligand_efficiency_sa>  (133) 
-0.263446

>  <r_i_glide_ligand_efficiency_ln>  (133) 
-0.586324

>  <r_i_glide_gscore>  (133) 
-2.59976

>  <r_i_glide_lipo>  (133) 
-0.248717

>  <r_i_glide_hbond>  (133) 
0

>  <r_i_glide_metal>  (133) 
-0

>  <r_i_glide_rewards>  (133) 
-0.55522

>  <r_i_glide_evdw>  (133) 
-27.9462

>  <r_i_glide_ecoul>  (133) 
-2.97635

>  <r_i_glide_erotb>  (133) 
0.112874

>  <r_i_glide_esite>  (133) 
-0.0649314

>  <r_i_glide_emodel>  (133) 
-35.2945

>  <r_i_glide_energy>  (133) 
-30.9225

>  <r_i_glide_einternal>  (133) 
1.62777

>  <r_i_glide_intrahb_reward>  (133) 
-0

>  <i_i_glide_confnum>  (133) 
2

>  <i_i_glide_posenum>  (133) 
28

>  <r_i_glide_eff_state_penalty>  (133) 
0

>  <ligand_id>  (133) 
39

>  <original_smiles>  (133) 
CC1=C(C=O)C2=CC3C4(C)CCC(C2(C)C1)C3(C)C1C(C(=O)C4c2ccoc2)C1(C)C

>  <smiles>  (133) 
[H]C(=O)C1=C(C([H])([H])[H])C([H])([H])C2(C([H])([H])[H])C1=C([H])C1([H])C3(C([H])([H])[H])C([H])(c4c([H])oc([H])c4[H])C(=O)C4([H])C([H])(C4(C([H])([H])[H])C([H])([H])[H])C1(C([H])([H])[H])C2([H])C([H])([H])C3([H])[H]

$$$$
40:0:0
     RDKit          3D

 62 67  0  0  1  0  0  0  0  0999 V2000
   -0.4333    3.6725    9.2366 C   0  0  0  0  0  0  0  0  0  0  0  0
   -0.3337    3.4342    7.8333 O   0  0  0  0  0  0  0  0  0  0  0  0
   -0.8404    2.1711    7.3945 C   0  0  2  0  0  0  0  0  0  0  0  0
    0.1544    1.0355    7.5691 C   0  0  0  0  0  0  0  0  0  0  0  0
    1.0102    0.5342    6.3651 C   0  0  1  0  0  0  0  0  0  0  0  0
    2.2550   -0.0311    7.1469 C   0  0  0  0  0  0  0  0  0  0  0  0
    0.5214   -0.5923    5.4847 C   0  0  2  0  0  0  0  0  0  0  0  0
    1.5643   -0.9165    4.1982 C   0  0  0  0  0  0  0  0  0  0  0  0
    2.2564    0.2956    3.1591 C   0  0  0  0  0  0  0  0  0  0  0  0
    3.7112   -0.1492    2.7953 C   0  0  0  0  0  0  0  0  0  0  0  0
    1.5852    0.2302    1.7486 C   0  0  0  0  0  0  0  0  0  0  0  0
    2.2746    1.9324    3.7493 C   0  0  2  0  0  0  0  0  0  0  0  0
    2.7413    1.5542    5.0374 C   0  0  0  0  0  0  0  0  0  0  0  0
    1.1534    1.4757    5.1570 C   0  0  1  0  0  0  0  0  0  0  0  0
    0.1086    1.1654    3.9520 O   0  0  0  0  0  0  0  0  0  0  0  0
   -0.7311    1.8966    3.1126 C   0  0  0  0  0  0  0  0  0  0  0  0
   -1.3762    1.4053    2.1891 O   0  0  0  0  0  0  0  0  0  0  0  0
   -0.8647    3.3185    3.5182 C   0  0  1  0  0  0  0  0  0  0  0  0
   -2.2398    3.9205    3.1282 C   0  0  0  0  0  0  0  0  0  0  0  0
   -0.4223    3.2278    4.9756 C   0  0  1  0  0  0  0  0  0  0  0  0
   -0.6210    4.5654    5.4110 O   0  0  0  0  0  0  0  0  0  0  0  0
   -1.4063    2.2314    5.9663 C   0  0  2  0  0  0  0  0  0  0  0  0
   -2.7894    2.9368    6.1528 C   0  0  0  0  0  0  0  0  0  0  0  0
   -1.8893    0.6599    5.6655 C   0  0  0  0  0  0  0  0  0  0  0  0
   -1.0007   -0.6264    5.2890 C   0  0  2  0  0  0  0  0  0  0  0  0
   -0.2971   -1.5293    6.1856 O   0  0  0  0  0  0  0  0  0  0  0  0
    1.2123    2.8831    4.8496 C   0  0  2  0  0  0  0  0  0  0  0  0
    1.9648    4.0264    5.6415 C   0  0  0  0  0  0  0  0  0  0  0  0
   -0.0062    4.6486    9.4609 H   0  0  0  0  0  0  0  0  0  0  0  0
    0.1152    2.9371    9.8247 H   0  0  0  0  0  0  0  0  0  0  0  0
   -1.4681    3.6853    9.5840 H   0  0  0  0  0  0  0  0  0  0  0  0
   -1.6597    1.9193    8.0727 H   0  0  0  0  0  0  0  0  0  0  0  0
    0.8243    1.3884    8.3515 H   0  0  0  0  0  0  0  0  0  0  0  0
   -0.3423    0.1827    8.0282 H   0  0  0  0  0  0  0  0  0  0  0  0
    2.8930   -0.7125    6.5843 H   0  0  0  0  0  0  0  0  0  0  0  0
    1.9277   -0.6328    7.9962 H   0  0  0  0  0  0  0  0  0  0  0  0
    2.8832    0.7644    7.5585 H   0  0  0  0  0  0  0  0  0  0  0  0
    2.3865   -1.5002    4.6082 H   0  0  0  0  0  0  0  0  0  0  0  0
    1.0457   -1.6291    3.5569 H   0  0  0  0  0  0  0  0  0  0  0  0
    4.1659    0.5432    2.0849 H   0  0  0  0  0  0  0  0  0  0  0  0
    3.7262   -1.1351    2.3307 H   0  0  0  0  0  0  0  0  0  0  0  0
    4.4055   -0.2241    3.6275 H   0  0  0  0  0  0  0  0  0  0  0  0
    1.5106    1.2177    1.2930 H   0  0  0  0  0  0  0  0  0  0  0  0
    0.5856   -0.1964    1.7798 H   0  0  0  0  0  0  0  0  0  0  0  0
    2.1251   -0.3874    1.0292 H   0  0  0  0  0  0  0  0  0  0  0  0
    2.9792    2.5770    3.2174 H   0  0  0  0  0  0  0  0  0  0  0  0
    3.3188    0.6469    5.0945 H   0  0  0  0  0  0  0  0  0  0  0  0
    3.3538    2.1839    5.6704 H   0  0  0  0  0  0  0  0  0  0  0  0
   -0.1138    3.8862    2.9687 H   0  0  0  0  0  0  0  0  0  0  0  0
   -2.2043    4.2506    2.0928 H   0  0  0  0  0  0  0  0  0  0  0  0
   -2.4955    4.7906    3.7243 H   0  0  0  0  0  0  0  0  0  0  0  0
   -3.0644    3.2085    3.1813 H   0  0  0  0  0  0  0  0  0  0  0  0
   -0.2464    4.6148    6.2803 H   0  0  0  0  0  0  0  0  0  0  0  0
   -3.3819    2.9506    5.2441 H   0  0  0  0  0  0  0  0  0  0  0  0
   -2.7099    3.9594    6.5207 H   0  0  0  0  0  0  0  0  0  0  0  0
   -3.4133    2.4160    6.8803 H   0  0  0  0  0  0  0  0  0  0  0  0
   -2.5341    0.3369    6.4808 H   0  0  0  0  0  0  0  0  0  0  0  0
   -2.5815    0.7276    4.8264 H   0  0  0  0  0  0  0  0  0  0  0  0
   -1.3709   -1.1456    4.4098 H   0  0  0  0  0  0  0  0  0  0  0  0
    1.6327    5.0362    5.4067 H   0  0  0  0  0  0  0  0  0  0  0  0
    3.0139    4.1296    5.3666 H   0  0  0  0  0  0  0  0  0  0  0  0
    1.9127    3.8710    6.7204 H   0  0  0  0  0  0  0  0  0  0  0  0
  1  2  1  0
  1 29  1  0
  1 30  1  0
  1 31  1  0
  2  3  1  0
  3 22  1  0
  3  4  1  0
  3 32  1  1
  4  5  1  0
  4 33  1  0
  4 34  1  0
  5 14  1  0
  5  6  1  1
  5  7  1  0
  6 35  1  0
  6 36  1  0
  6 37  1  0
  7 25  1  0
  7 26  1  1
  7  8  1  0
  8  9  1  0
  8 38  1  0
  8 39  1  0
  9 10  1  0
  9 11  1  0
  9 12  1  0
 10 40  1  0
 10 41  1  0
 10 42  1  0
 11 43  1  0
 11 44  1  0
 11 45  1  0
 12 27  1  0
 12 13  1  0
 12 46  1  6
 13 14  1  0
 13 47  1  0
 13 48  1  0
 14 27  1  0
 14 15  1  6
 15 16  1  0
 16 17  2  0
 16 18  1  0
 18 19  1  0
 18 20  1  0
 18 49  1  6
 19 50  1  0
 19 51  1  0
 19 52  1  0
 20 21  1  1
 20 22  1  0
 20 27  1  0
 21 53  1  0
 22 23  1  1
 22 24  1  0
 23 54  1  0
 23 55  1  0
 23 56  1  0
 24 25  1  0
 24 57  1  0
 24 58  1  0
 25 26  1  0
 25 59  1  6
 27 28  1  1
 28 60  1  0
 28 61  1  0
 28 62  1  0
M  END
>  <i_m_ct_stereo_status>  (134) 
1

>  <s_m_source_file>  (134) 
/var/tmp/pbs.5076255.sched01/tmpio9qf6gp/4214r_5_m5.sdf

>  <i_m_source_file_index>  (134) 
14

>  <i_lp_mmshare_version>  (134) 
48012

>  <i_f3d_flags>  (134) 
0

>  <s_epik_input>  (134) 
W0NIM11PW0NASF0oW0NIMl0xKVtDQF0oW0NIM10pKFtDSDJdW0NAQEhdMk8zKVtDQF0oW09IXSkoW0NAQEhdKEMoTzQpPU8pW0NIM10pW0NAXShbQ0gzXSkoW0NAQEhdKFtDSDJdNSlDKFtDSDJdNikoW0NIM10pW0NIM10pW0NAQF00NVtDQEBdMShbQ0BdMjM2KVtDSDNd

>  <s_epik_cmdline>  (134) 
J2VwaWtfcHl0aG9uJywgJy1waHQnLCAnMi4wJywgJy1waCcsICc3LjAnLCAnLXRuJywgJzgnLCAnLW1hJywgJzIwMCcsICctaW1hZScsICc8aW5maWxlLm1hZT4nLCAnLW9tYWUnLCAnPG91dGZpbGUubWFlPic=

>  <r_lp_tautomer_probability>  (134) 
1

>  <r_epik_Ionization_Penalty>  (134) 
3.13252e-08

>  <r_epik_Ionization_Penalty_Charging>  (134) 
0

>  <r_epik_Ionization_Penalty_Neutral>  (134) 
3.13252e-08

>  <r_epik_State_Penalty>  (134) 
-0

>  <r_epik_Charging_Adjusted_Penalty>  (134) 
0

>  <i_epik_Tot_Q>  (134) 
0

>  <i_epik_Tot_abs_Q>  (134) 
0

>  <s_epik_Chemistry_Notes>  (134) 
This compound has an ester and may undergo hydrolysis at high or low pH.

>  <s_lp_Force_Field>  (134) 
OPLS3e

>  <r_lp_Energy>  (134) 
424.882

>  <b_lp_Chiralities_Consistent>  (134) 
1

>  <s_lp_Variant>  (134) 
40:0-1

>  <s_i_glide_gridfile>  (134) 
pfpi4k_grid

>  <i_i_glide_lignum>  (134) 
14

>  <i_i_glide_rotatable_bonds>  (134) 
2

>  <r_i_docking_score>  (134) 
-2.47525

>  <r_i_glide_ligand_efficiency>  (134) 
-0.0884016

>  <r_i_glide_ligand_efficiency_sa>  (134) 
-0.268439

>  <r_i_glide_ligand_efficiency_ln>  (134) 
-0.571359

>  <r_i_glide_gscore>  (134) 
-2.47525

>  <r_i_glide_lipo>  (134) 
-0.145073

>  <r_i_glide_hbond>  (134) 
0

>  <r_i_glide_metal>  (134) 
-0

>  <r_i_glide_rewards>  (134) 
-1.2465

>  <r_i_glide_evdw>  (134) 
-20.5252

>  <r_i_glide_ecoul>  (134) 
-0.0512713

>  <r_i_glide_erotb>  (134) 
0

>  <r_i_glide_esite>  (134) 
-0.0497185

>  <r_i_glide_emodel>  (134) 
-29.3557

>  <r_i_glide_energy>  (134) 
-20.5765

>  <r_i_glide_einternal>  (134) 
0.0547158

>  <r_i_glide_intrahb_reward>  (134) 
-0.5

>  <i_i_glide_confnum>  (134) 
2

>  <i_i_glide_posenum>  (134) 
6

>  <r_i_glide_eff_state_penalty>  (134) 
0

>  <ligand_id>  (134) 
40

>  <original_smiles>  (134) 
COC1CC2(C)C34CC(C)(C)C5CC26OC(=O)C(C)C(O)(C1(C)CC3O4)C56C

>  <smiles>  (134) 
[H]OC12C([H])(C([H])([H])[H])C(=O)OC34C([H])([H])C([H])(C(C([H])([H])[H])(C([H])([H])[H])C([H])([H])C56OC5([H])C([H])([H])C1(C([H])([H])[H])C([H])(OC([H])([H])[H])C([H])([H])C63C([H])([H])[H])C24C([H])([H])[H]

$$$$
40:0:1
     RDKit          3D

 62 67  0  0  1  0  0  0  0  0999 V2000
    0.4019    6.8768    6.3550 C   0  0  0  0  0  0  0  0  0  0  0  0
    0.3643    5.6651    5.6075 O   0  0  0  0  0  0  0  0  0  0  0  0
    0.1477    4.4632    6.3471 C   0  0  2  0  0  0  0  0  0  0  0  0
    1.4015    3.9508    7.0357 C   0  0  0  0  0  0  0  0  0  0  0  0
    2.2384    2.7969    6.4117 C   0  0  1  0  0  0  0  0  0  0  0  0
    3.6485    3.1346    7.0225 C   0  0  0  0  0  0  0  0  0  0  0  0
    1.9622    1.3553    6.7808 C   0  0  2  0  0  0  0  0  0  0  0  0
    2.9217    0.2602    5.9363 C   0  0  0  0  0  0  0  0  0  0  0  0
    3.1959    0.3117    4.2211 C   0  0  0  0  0  0  0  0  0  0  0  0
    4.6802   -0.1204    3.9507 C   0  0  0  0  0  0  0  0  0  0  0  0
    2.4325   -0.8634    3.5258 C   0  0  0  0  0  0  0  0  0  0  0  0
    2.8728    1.8180    3.4119 C   0  0  2  0  0  0  0  0  0  0  0  0
    3.5376    2.5937    4.4017 C   0  0  0  0  0  0  0  0  0  0  0  0
    2.0324    2.4950    4.9190 C   0  0  1  0  0  0  0  0  0  0  0  0
    0.9849    1.2883    4.6246 O   0  0  0  0  0  0  0  0  0  0  0  0
   -0.0837    1.0558    3.7611 C   0  0  0  0  0  0  0  0  0  0  0  0
   -0.6829   -0.0071    3.6945 O   0  0  0  0  0  0  0  0  0  0  0  0
   -0.5049    2.2730    3.0124 C   0  0  1  0  0  0  0  0  0  0  0  0
   -2.0079    2.2409    2.6632 C   0  0  0  0  0  0  0  0  0  0  0  0
    0.0767    3.3538    3.9205 C   0  0  1  0  0  0  0  0  0  0  0  0
   -0.4168    4.5282    3.2848 O   0  0  0  0  0  0  0  0  0  0  0  0
   -0.5402    3.3676    5.5178 C   0  0  2  0  0  0  0  0  0  0  0  0
   -2.0288    3.8192    5.4534 C   0  0  0  0  0  0  0  0  0  0  0  0
   -0.6588    2.0881    6.5871 C   0  0  0  0  0  0  0  0  0  0  0  0
    0.4766    1.0476    7.0585 C   0  0  2  0  0  0  0  0  0  0  0  0
    1.4699    1.2088    8.1088 O   0  0  0  0  0  0  0  0  0  0  0  0
    1.7246    3.1730    3.6859 C   0  0  2  0  0  0  0  0  0  0  0  0
    2.2460    4.5779    3.1837 C   0  0  0  0  0  0  0  0  0  0  0  0
    0.5961    7.7029    5.6714 H   0  0  0  0  0  0  0  0  0  0  0  0
    1.1950    6.8882    7.1024 H   0  0  0  0  0  0  0  0  0  0  0  0
   -0.5468    7.0826    6.8541 H   0  0  0  0  0  0  0  0  0  0  0  0
   -0.5203    4.7470    7.1637 H   0  0  0  0  0  0  0  0  0  0  0  0
    2.0375    4.8263    7.1208 H   0  0  0  0  0  0  0  0  0  0  0  0
    1.1696    3.7116    8.0736 H   0  0  0  0  0  0  0  0  0  0  0  0
    4.3763    2.3223    7.0002 H   0  0  0  0  0  0  0  0  0  0  0  0
    3.5523    3.3618    8.0845 H   0  0  0  0  0  0  0  0  0  0  0  0
    4.0994    4.0153    6.5592 H   0  0  0  0  0  0  0  0  0  0  0  0
    3.8947    0.2704    6.4226 H   0  0  0  0  0  0  0  0  0  0  0  0
    2.5303   -0.7281    6.1660 H   0  0  0  0  0  0  0  0  0  0  0  0
    4.8872   -0.1642    2.8806 H   0  0  0  0  0  0  0  0  0  0  0  0
    4.8911   -1.1067    4.3634 H   0  0  0  0  0  0  0  0  0  0  0  0
    5.4418    0.5278    4.3782 H   0  0  0  0  0  0  0  0  0  0  0  0
    2.0826   -0.5748    2.5348 H   0  0  0  0  0  0  0  0  0  0  0  0
    1.5695   -1.1912    4.1024 H   0  0  0  0  0  0  0  0  0  0  0  0
    3.0339   -1.7629    3.3835 H   0  0  0  0  0  0  0  0  0  0  0  0
    3.3429    1.8871    2.4343 H   0  0  0  0  0  0  0  0  0  0  0  0
    4.3154    2.0933    4.9585 H   0  0  0  0  0  0  0  0  0  0  0  0
    4.0294    3.5424    4.2024 H   0  0  0  0  0  0  0  0  0  0  0  0
    0.0303    2.2736    2.0649 H   0  0  0  0  0  0  0  0  0  0  0  0
   -2.1745    1.6542    1.7576 H   0  0  0  0  0  0  0  0  0  0  0  0
   -2.4280    3.2304    2.4717 H   0  0  0  0  0  0  0  0  0  0  0  0
   -2.5982    1.7593    3.4408 H   0  0  0  0  0  0  0  0  0  0  0  0
   -0.1931    4.4998    2.3456 H   0  0  0  0  0  0  0  0  0  0  0  0
   -2.6980    3.0862    5.0238 H   0  0  0  0  0  0  0  0  0  0  0  0
   -2.1502    4.7290    4.8770 H   0  0  0  0  0  0  0  0  0  0  0  0
   -2.4391    4.0103    6.4448 H   0  0  0  0  0  0  0  0  0  0  0  0
   -1.1176    2.4529    7.5146 H   0  0  0  0  0  0  0  0  0  0  0  0
   -1.4379    1.4443    6.1705 H   0  0  0  0  0  0  0  0  0  0  0  0
    0.1612    0.0142    6.9551 H   0  0  0  0  0  0  0  0  0  0  0  0
    1.6559    5.0301    2.3932 H   0  0  0  0  0  0  0  0  0  0  0  0
    3.2076    4.5300    2.6772 H   0  0  0  0  0  0  0  0  0  0  0  0
    2.3298    5.2897    4.0031 H   0  0  0  0  0  0  0  0  0  0  0  0
  1  2  1  0
  1 29  1  0
  1 30  1  0
  1 31  1  0
  2  3  1  0
  3 22  1  0
  3  4  1  0
  3 32  1  1
  4  5  1  0
  4 33  1  0
  4 34  1  0
  5 14  1  0
  5  6  1  6
  5  7  1  0
  6 35  1  0
  6 36  1  0
  6 37  1  0
  7 25  1  0
  7 26  1  1
  7  8  1  0
  8  9  1  0
  8 38  1  0
  8 39  1  0
  9 10  1  0
  9 11  1  0
  9 12  1  0
 10 40  1  0
 10 41  1  0
 10 42  1  0
 11 43  1  0
 11 44  1  0
 11 45  1  0
 12 27  1  0
 12 13  1  0
 12 46  1  6
 13 14  1  0
 13 47  1  0
 13 48  1  0
 14 27  1  0
 14 15  1  1
 15 16  1  0
 16 17  2  0
 16 18  1  0
 18 19  1  0
 18 20  1  0
 18 49  1  6
 19 50  1  0
 19 51  1  0
 19 52  1  0
 20 21  1  6
 20 22  1  0
 20 27  1  0
 21 53  1  0
 22 23  1  6
 22 24  1  0
 23 54  1  0
 23 55  1  0
 23 56  1  0
 24 25  1  0
 24 57  1  0
 24 58  1  0
 25 26  1  0
 25 59  1  6
 27 28  1  1
 28 60  1  0
 28 61  1  0
 28 62  1  0
M  END
>  <i_m_ct_stereo_status>  (135) 
1

>  <s_m_source_file>  (135) 
/var/tmp/pbs.5076255.sched01/tmpio9qf6gp/4214r_5_m5.sdf

>  <i_m_source_file_index>  (135) 
14

>  <i_lp_mmshare_version>  (135) 
48012

>  <i_f3d_flags>  (135) 
0

>  <s_epik_input>  (135) 
W0NIM11PW0NASF0oW0NIMl0xKVtDQF0oW0NIM10pKFtDSDJdW0NAQEhdMk8zKVtDQF0oW09IXSkoW0NAQEhdKEMoTzQpPU8pW0NIM10pW0NAXShbQ0gzXSkoW0NAQEhdKFtDSDJdNSlDKFtDSDJdNikoW0NIM10pW0NIM10pW0NAQF00NVtDQEBdMShbQ0BdMjM2KVtDSDNd

>  <s_epik_cmdline>  (135) 
J2VwaWtfcHl0aG9uJywgJy1waHQnLCAnMi4wJywgJy1waCcsICc3LjAnLCAnLXRuJywgJzgnLCAnLW1hJywgJzIwMCcsICctaW1hZScsICc8aW5maWxlLm1hZT4nLCAnLW9tYWUnLCAnPG91dGZpbGUubWFlPic=

>  <r_lp_tautomer_probability>  (135) 
1

>  <r_epik_Ionization_Penalty>  (135) 
3.13252e-08

>  <r_epik_Ionization_Penalty_Charging>  (135) 
0

>  <r_epik_Ionization_Penalty_Neutral>  (135) 
3.13252e-08

>  <r_epik_State_Penalty>  (135) 
-0

>  <r_epik_Charging_Adjusted_Penalty>  (135) 
0

>  <i_epik_Tot_Q>  (135) 
0

>  <i_epik_Tot_abs_Q>  (135) 
0

>  <s_epik_Chemistry_Notes>  (135) 
This compound has an ester and may undergo hydrolysis at high or low pH.

>  <s_lp_Force_Field>  (135) 
OPLS3e

>  <r_lp_Energy>  (135) 
424.882

>  <b_lp_Chiralities_Consistent>  (135) 
1

>  <s_lp_Variant>  (135) 
40:0-1

>  <s_i_glide_gridfile>  (135) 
pfpi4k_grid

>  <i_i_glide_lignum>  (135) 
14

>  <i_i_glide_rotatable_bonds>  (135) 
2

>  <r_i_docking_score>  (135) 
-2.41649

>  <r_i_glide_ligand_efficiency>  (135) 
-0.0863033

>  <r_i_glide_ligand_efficiency_sa>  (135) 
-0.262068

>  <r_i_glide_ligand_efficiency_ln>  (135) 
-0.557798

>  <r_i_glide_gscore>  (135) 
-2.41649

>  <r_i_glide_lipo>  (135) 
-0.0605437

>  <r_i_glide_hbond>  (135) 
0

>  <r_i_glide_metal>  (135) 
-0

>  <r_i_glide_rewards>  (135) 
-0.746502

>  <r_i_glide_evdw>  (135) 
-15.5849

>  <r_i_glide_ecoul>  (135) 
-5.38348

>  <r_i_glide_erotb>  (135) 
0

>  <r_i_glide_esite>  (135) 
-0.0226818

>  <r_i_glide_emodel>  (135) 
-24.5392

>  <r_i_glide_energy>  (135) 
-20.9684

>  <r_i_glide_einternal>  (135) 
0.0469844

>  <r_i_glide_intrahb_reward>  (135) 
-0

>  <i_i_glide_confnum>  (135) 
1

>  <i_i_glide_posenum>  (135) 
37

>  <r_i_glide_eff_state_penalty>  (135) 
0

>  <ligand_id>  (135) 
40

>  <original_smiles>  (135) 
COC1CC2(C)C34CC(C)(C)C5CC26OC(=O)C(C)C(O)(C1(C)CC3O4)C56C

>  <smiles>  (135) 
[H]OC12C([H])(C([H])([H])[H])C(=O)OC34C([H])([H])C([H])(C(C([H])([H])[H])(C([H])([H])[H])C([H])([H])C56OC5([H])C([H])([H])C1(C([H])([H])[H])C([H])(OC([H])([H])[H])C([H])([H])C63C([H])([H])[H])C24C([H])([H])[H]

$$$$
40:0:2
     RDKit          3D

 62 67  0  0  1  0  0  0  0  0999 V2000
    3.2226   -3.3006    7.7684 C   0  0  0  0  0  0  0  0  0  0  0  0
    2.6787   -2.6399    6.6300 O   0  0  0  0  0  0  0  0  0  0  0  0
    3.2239   -1.3536    6.3361 C   0  0  2  0  0  0  0  0  0  0  0  0
    2.5801   -0.2504    7.1564 C   0  0  0  0  0  0  0  0  0  0  0  0
    1.4567    0.6444    6.5474 C   0  0  1  0  0  0  0  0  0  0  0  0
    0.6967    1.0401    7.8688 C   0  0  0  0  0  0  0  0  0  0  0  0
    1.7944    1.9416    5.8510 C   0  0  2  0  0  0  0  0  0  0  0  0
    0.4418    2.7099    5.2031 C   0  0  0  0  0  0  0  0  0  0  0  0
   -0.7820    1.9172    4.2566 C   0  0  0  0  0  0  0  0  0  0  0  0
   -2.1652    2.5582    4.6137 C   0  0  0  0  0  0  0  0  0  0  0  0
   -0.6534    2.3491    2.7617 C   0  0  0  0  0  0  0  0  0  0  0  0
   -0.8868    0.1852    4.3834 C   0  0  2  0  0  0  0  0  0  0  0  0
   -0.7872    0.1970    5.8010 C   0  0  0  0  0  0  0  0  0  0  0  0
    0.7253    0.1168    5.3008 C   0  0  1  0  0  0  0  0  0  0  0  0
    1.3112    0.6928    3.8971 O   0  0  0  0  0  0  0  0  0  0  0  0
    1.6585    0.1839    2.6450 C   0  0  0  0  0  0  0  0  0  0  0  0
    2.0106    0.8715    1.6884 O   0  0  0  0  0  0  0  0  0  0  0  0
    1.6600   -1.3007    2.6064 C   0  0  1  0  0  0  0  0  0  0  0  0
    2.6702   -1.8671    1.5725 C   0  0  0  0  0  0  0  0  0  0  0  0
    1.7878   -1.6177    4.0945 C   0  0  1  0  0  0  0  0  0  0  0  0
    1.8810   -3.0388    4.0444 O   0  0  0  0  0  0  0  0  0  0  0  0
    3.2236   -1.0322    4.8323 C   0  0  2  0  0  0  0  0  0  0  0  0
    4.4306   -1.8577    4.2774 C   0  0  0  0  0  0  0  0  0  0  0  0
    3.8509    0.5168    4.7645 C   0  0  0  0  0  0  0  0  0  0  0  0
    3.1320    1.9214    5.0913 C   0  0  2  0  0  0  0  0  0  0  0  0
    2.9557    2.5699    6.3837 O   0  0  0  0  0  0  0  0  0  0  0  0
    0.3042   -1.1268    4.7047 C   0  0  2  0  0  0  0  0  0  0  0  0
   -0.3112   -2.3950    5.4183 C   0  0  0  0  0  0  0  0  0  0  0  0
    2.7289   -4.2646    7.8826 H   0  0  0  0  0  0  0  0  0  0  0  0
    3.0580   -2.7412    8.6884 H   0  0  0  0  0  0  0  0  0  0  0  0
    4.2917   -3.4955    7.6681 H   0  0  0  0  0  0  0  0  0  0  0  0
    4.2613   -1.3800    6.6753 H   0  0  0  0  0  0  0  0  0  0  0  0
    2.1808   -0.7685    8.0268 H   0  0  0  0  0  0  0  0  0  0  0  0
    3.3565    0.3872    7.5764 H   0  0  0  0  0  0  0  0  0  0  0  0
    0.0381    1.9046    7.7899 H   0  0  0  0  0  0  0  0  0  0  0  0
    1.4113    1.3375    8.6386 H   0  0  0  0  0  0  0  0  0  0  0  0
    0.1248    0.2078    8.2875 H   0  0  0  0  0  0  0  0  0  0  0  0
   -0.0564    3.2075    6.0323 H   0  0  0  0  0  0  0  0  0  0  0  0
    0.8231    3.5378    4.6052 H   0  0  0  0  0  0  0  0  0  0  0  0
   -2.9614    2.1454    3.9914 H   0  0  0  0  0  0  0  0  0  0  0  0
   -2.1612    3.6360    4.4498 H   0  0  0  0  0  0  0  0  0  0  0  0
   -2.4881    2.4368    5.6442 H   0  0  0  0  0  0  0  0  0  0  0  0
   -0.9317    1.5435    2.0821 H   0  0  0  0  0  0  0  0  0  0  0  0
    0.3553    2.6647    2.5033 H   0  0  0  0  0  0  0  0  0  0  0  0
   -1.2803    3.2006    2.4916 H   0  0  0  0  0  0  0  0  0  0  0  0
   -1.8402   -0.2152    4.0351 H   0  0  0  0  0  0  0  0  0  0  0  0
   -1.1285    1.0896    6.3005 H   0  0  0  0  0  0  0  0  0  0  0  0
   -1.2328   -0.5476    6.4481 H   0  0  0  0  0  0  0  0  0  0  0  0
    0.6697   -1.6092    2.2703 H   0  0  0  0  0  0  0  0  0  0  0  0
    2.2159   -1.8690    0.5830 H   0  0  0  0  0  0  0  0  0  0  0  0
    2.9617   -2.8962    1.7776 H   0  0  0  0  0  0  0  0  0  0  0  0
    3.5742   -1.2658    1.4719 H   0  0  0  0  0  0  0  0  0  0  0  0
    1.1679   -3.3591    3.5196 H   0  0  0  0  0  0  0  0  0  0  0  0
    4.6535   -1.6402    3.2382 H   0  0  0  0  0  0  0  0  0  0  0  0
    4.2988   -2.9350    4.3755 H   0  0  0  0  0  0  0  0  0  0  0  0
    5.3559   -1.6272    4.8054 H   0  0  0  0  0  0  0  0  0  0  0  0
    4.7843    0.5372    5.3288 H   0  0  0  0  0  0  0  0  0  0  0  0
    4.1915    0.6437    3.7358 H   0  0  0  0  0  0  0  0  0  0  0  0
    3.2571    2.6497    4.2942 H   0  0  0  0  0  0  0  0  0  0  0  0
   -0.2649   -3.3114    4.8356 H   0  0  0  0  0  0  0  0  0  0  0  0
   -1.3879   -2.3340    5.5654 H   0  0  0  0  0  0  0  0  0  0  0  0
    0.1556   -2.5719    6.3871 H   0  0  0  0  0  0  0  0  0  0  0  0
  1  2  1  0
  1 29  1  0
  1 30  1  0
  1 31  1  0
  2  3  1  0
  3 22  1  0
  3  4  1  0
  3 32  1  1
  4  5  1  0
  4 33  1  0
  4 34  1  0
  5 14  1  0
  5  6  1  1
  5  7  1  0
  6 35  1  0
  6 36  1  0
  6 37  1  0
  7 25  1  0
  7 26  1  1
  7  8  1  0
  8  9  1  0
  8 38  1  0
  8 39  1  0
  9 10  1  0
  9 11  1  0
  9 12  1  0
 10 40  1  0
 10 41  1  0
 10 42  1  0
 11 43  1  0
 11 44  1  0
 11 45  1  0
 12 27  1  0
 12 13  1  0
 12 46  1  1
 13 14  1  0
 13 47  1  0
 13 48  1  0
 14 27  1  0
 14 15  1  6
 15 16  1  0
 16 17  2  0
 16 18  1  0
 18 19  1  0
 18 20  1  0
 18 49  1  6
 19 50  1  0
 19 51  1  0
 19 52  1  0
 20 21  1  6
 20 22  1  0
 20 27  1  0
 21 53  1  0
 22 23  1  6
 22 24  1  0
 23 54  1  0
 23 55  1  0
 23 56  1  0
 24 25  1  0
 24 57  1  0
 24 58  1  0
 25 26  1  0
 25 59  1  6
 27 28  1  1
 28 60  1  0
 28 61  1  0
 28 62  1  0
M  END
>  <i_m_ct_stereo_status>  (136) 
1

>  <s_m_source_file>  (136) 
/var/tmp/pbs.5076255.sched01/tmpio9qf6gp/4214r_5_m5.sdf

>  <i_m_source_file_index>  (136) 
14

>  <i_lp_mmshare_version>  (136) 
48012

>  <i_f3d_flags>  (136) 
0

>  <s_epik_input>  (136) 
W0NIM11PW0NASF0oW0NIMl0xKVtDQF0oW0NIM10pKFtDSDJdW0NAQEhdMk8zKVtDQF0oW09IXSkoW0NAQEhdKEMoTzQpPU8pW0NIM10pW0NAXShbQ0gzXSkoW0NAQEhdKFtDSDJdNSlDKFtDSDJdNikoW0NIM10pW0NIM10pW0NAQF00NVtDQEBdMShbQ0BdMjM2KVtDSDNd

>  <s_epik_cmdline>  (136) 
J2VwaWtfcHl0aG9uJywgJy1waHQnLCAnMi4wJywgJy1waCcsICc3LjAnLCAnLXRuJywgJzgnLCAnLW1hJywgJzIwMCcsICctaW1hZScsICc8aW5maWxlLm1hZT4nLCAnLW9tYWUnLCAnPG91dGZpbGUubWFlPic=

>  <r_lp_tautomer_probability>  (136) 
1

>  <r_epik_Ionization_Penalty>  (136) 
3.13252e-08

>  <r_epik_Ionization_Penalty_Charging>  (136) 
0

>  <r_epik_Ionization_Penalty_Neutral>  (136) 
3.13252e-08

>  <r_epik_State_Penalty>  (136) 
-0

>  <r_epik_Charging_Adjusted_Penalty>  (136) 
0

>  <i_epik_Tot_Q>  (136) 
0

>  <i_epik_Tot_abs_Q>  (136) 
0

>  <s_epik_Chemistry_Notes>  (136) 
This compound has an ester and may undergo hydrolysis at high or low pH.

>  <s_lp_Force_Field>  (136) 
OPLS3e

>  <r_lp_Energy>  (136) 
424.882

>  <b_lp_Chiralities_Consistent>  (136) 
1

>  <s_lp_Variant>  (136) 
40:0-1

>  <s_i_glide_gridfile>  (136) 
pfpi4k_grid

>  <i_i_glide_lignum>  (136) 
14

>  <i_i_glide_rotatable_bonds>  (136) 
2

>  <r_i_docking_score>  (136) 
-1.81145

>  <r_i_glide_ligand_efficiency>  (136) 
-0.0646945

>  <r_i_glide_ligand_efficiency_sa>  (136) 
-0.196451

>  <r_i_glide_ligand_efficiency_ln>  (136) 
-0.418135

>  <r_i_glide_gscore>  (136) 
-1.81145

>  <r_i_glide_lipo>  (136) 
-0.0202139

>  <r_i_glide_hbond>  (136) 
0

>  <r_i_glide_metal>  (136) 
-0

>  <r_i_glide_rewards>  (136) 
-0.746502

>  <r_i_glide_evdw>  (136) 
-17.2916

>  <r_i_glide_ecoul>  (136) 
-1.0435

>  <r_i_glide_erotb>  (136) 
0

>  <r_i_glide_esite>  (136) 
-0.0236239

>  <r_i_glide_emodel>  (136) 
-21.0168

>  <r_i_glide_energy>  (136) 
-18.3351

>  <r_i_glide_einternal>  (136) 
0.0665737

>  <r_i_glide_intrahb_reward>  (136) 
-0

>  <i_i_glide_confnum>  (136) 
1

>  <i_i_glide_posenum>  (136) 
2

>  <r_i_glide_eff_state_penalty>  (136) 
0

>  <ligand_id>  (136) 
40

>  <original_smiles>  (136) 
COC1CC2(C)C34CC(C)(C)C5CC26OC(=O)C(C)C(O)(C1(C)CC3O4)C56C

>  <smiles>  (136) 
[H]OC12C([H])(C([H])([H])[H])C(=O)OC34C([H])([H])C([H])(C(C([H])([H])[H])(C([H])([H])[H])C([H])([H])C56OC5([H])C([H])([H])C1(C([H])([H])[H])C([H])(OC([H])([H])[H])C([H])([H])C63C([H])([H])[H])C24C([H])([H])[H]

$$$$
41:0:0
     RDKit          3D

 58 65  0  0  1  0  0  0  0  0999 V2000
    2.5454    2.1356    2.4873 C   0  0  0  0  0  0  0  0  0  0  0  0
    1.9508    1.4461    3.4976 C   0  0  0  0  0  0  0  0  0  0  0  0
    2.2196    0.0894    3.7322 C   0  0  2  0  0  0  0  0  0  0  0  0
    1.0807   -0.2964    2.5983 C   0  0  0  0  0  0  0  0  0  0  0  0
   -0.2203    0.7763    2.3686 C   0  0  0  0  0  0  0  0  0  0  0  0
   -0.4767    1.9681    3.5161 C   0  0  2  0  0  0  0  0  0  0  0  0
    0.6675    1.6855    4.3180 C   0  0  1  0  0  0  0  0  0  0  0  0
   -0.2791    0.2338    4.8267 C   0  0  0  0  0  0  0  0  0  0  0  0
   -1.7649    0.5710    5.1175 C   0  0  1  0  0  0  0  0  0  0  0  0
   -2.3025    0.9622    6.4440 O   0  0  0  0  0  0  0  0  0  0  0  0
   -1.1546    1.7503    6.4998 C   0  0  2  0  0  0  0  0  0  0  0  0
   -0.3424    0.7126    7.2094 O   0  0  0  0  0  0  0  0  0  0  0  0
    1.0269    0.8835    7.5063 C   0  0  1  0  0  0  0  0  0  0  0  0
    2.1385    0.9433    6.4009 C   0  0  1  0  0  0  0  0  0  0  0  0
    2.2321   -0.0812    5.2485 O   0  0  0  0  0  0  0  0  0  0  0  0
    1.8406    2.4979    6.4418 C   0  0  2  0  0  0  0  0  0  0  0  0
    3.0934    3.3025    6.8940 C   0  0  0  0  0  0  0  0  0  0  0  0
    0.8513    2.3774    7.6514 C   0  0  1  0  0  0  0  0  0  0  0  0
   -0.6888    2.7524    7.5742 C   0  0  2  0  0  0  0  0  0  0  0  0
   -1.4463    2.5071    8.9040 C   0  0  0  0  0  0  0  0  0  0  0  0
   -0.9055    1.9586   10.0079 C   0  0  0  0  0  0  0  0  0  0  0  0
   -2.9009    2.9687    8.9496 C   0  0  0  0  0  0  0  0  0  0  0  0
   -0.9072    4.1322    7.3205 O   0  0  0  0  0  0  0  0  0  0  0  0
   -0.1355    4.8872    6.5609 C   0  0  0  0  0  0  0  0  0  0  0  0
    0.1263    6.0573    6.8211 O   0  0  0  0  0  0  0  0  0  0  0  0
    0.2394    4.2903    5.2224 C   0  0  0  0  0  0  0  0  0  0  0  0
    1.1559    3.0028    5.1723 C   0  0  2  0  0  0  0  0  0  0  0  0
    2.1960    3.7760    4.5681 O   0  0  0  0  0  0  0  0  0  0  0  0
   -1.5072    1.9498    4.8204 C   0  0  1  0  0  0  0  0  0  0  0  0
   -2.7335    2.8066    4.4787 C   0  0  0  0  0  0  0  0  0  0  0  0
    2.2126    3.1147    2.1696 H   0  0  0  0  0  0  0  0  0  0  0  0
    3.3697    1.7027    1.9452 H   0  0  0  0  0  0  0  0  0  0  0  0
    3.2035   -0.1923    3.3572 H   0  0  0  0  0  0  0  0  0  0  0  0
    1.5890   -0.3618    1.6328 H   0  0  0  0  0  0  0  0  0  0  0  0
    0.7559   -1.3313    2.7319 H   0  0  0  0  0  0  0  0  0  0  0  0
   -0.0073    1.2918    1.4250 H   0  0  0  0  0  0  0  0  0  0  0  0
   -1.1393    0.2291    2.1621 H   0  0  0  0  0  0  0  0  0  0  0  0
   -0.4337    2.9357    3.0109 H   0  0  0  0  0  0  0  0  0  0  0  0
   -0.4954   -0.6052    4.1800 H   0  0  0  0  0  0  0  0  0  0  0  0
    0.1274   -0.4889    5.5210 H   0  0  0  0  0  0  0  0  0  0  0  0
   -2.5109    0.1130    4.4616 H   0  0  0  0  0  0  0  0  0  0  0  0
    1.3322    0.3697    8.4183 H   0  0  0  0  0  0  0  0  0  0  0  0
    3.0834    0.7929    6.9255 H   0  0  0  0  0  0  0  0  0  0  0  0
    2.8839    4.3653    7.0383 H   0  0  0  0  0  0  0  0  0  0  0  0
    3.9323    3.2034    6.2033 H   0  0  0  0  0  0  0  0  0  0  0  0
    3.4710    2.9327    7.8512 H   0  0  0  0  0  0  0  0  0  0  0  0
    1.3335    2.7471    8.5547 H   0  0  0  0  0  0  0  0  0  0  0  0
    0.1162    1.6173   10.0567 H   0  0  0  0  0  0  0  0  0  0  0  0
   -1.4979    1.8307   10.9063 H   0  0  0  0  0  0  0  0  0  0  0  0
   -3.4884    2.5447    8.1362 H   0  0  0  0  0  0  0  0  0  0  0  0
   -2.9652    4.0542    8.8880 H   0  0  0  0  0  0  0  0  0  0  0  0
   -3.3750    2.6789    9.8908 H   0  0  0  0  0  0  0  0  0  0  0  0
   -0.6792    4.1719    4.6835 H   0  0  0  0  0  0  0  0  0  0  0  0
    0.6450    5.1451    4.6728 H   0  0  0  0  0  0  0  0  0  0  0  0
    1.9110    4.0593    3.7185 H   0  0  0  0  0  0  0  0  0  0  0  0
   -3.2858    3.0686    5.3845 H   0  0  0  0  0  0  0  0  0  0  0  0
   -3.4170    2.2748    3.8177 H   0  0  0  0  0  0  0  0  0  0  0  0
   -2.5031    3.7394    3.9709 H   0  0  0  0  0  0  0  0  0  0  0  0
  1  2  2  0
  1 31  1  0
  1 32  1  0
  2  7  1  0
  2  3  1  0
  3 15  1  0
  3  4  1  0
  3 33  1  6
  4  5  1  0
  4 34  1  0
  4 35  1  0
  5  6  1  0
  5 36  1  0
  5 37  1  0
  6 29  1  0
  6  7  1  0
  6 38  1  6
  7 27  1  0
  7  8  1  1
  8  9  1  0
  8 39  1  0
  8 40  1  0
  9 29  1  0
  9 10  1  0
  9 41  1  6
 11 10  1  1
 11 19  1  0
 11 12  1  0
 11 29  1  0
 12 13  1  0
 13 18  1  0
 13 14  1  0
 13 42  1  1
 14 15  1  0
 14 16  1  0
 14 43  1  1
 16 27  1  0
 16 17  1  1
 16 18  1  0
 17 44  1  0
 17 45  1  0
 17 46  1  0
 18 19  1  0
 18 47  1  1
 19 20  1  1
 19 23  1  0
 20 21  2  0
 20 22  1  0
 21 48  1  0
 21 49  1  0
 22 50  1  0
 22 51  1  0
 22 52  1  0
 23 24  1  0
 24 25  2  0
 24 26  1  0
 26 27  1  0
 26 53  1  0
 26 54  1  0
 27 28  1  6
 28 55  1  0
 29 30  1  1
 30 56  1  0
 30 57  1  0
 30 58  1  0
M  END
>  <i_m_ct_stereo_status>  (137) 
1

>  <s_m_source_file>  (137) 
/var/tmp/pbs.5076255.sched01/tmpio9qf6gp/4214r_5_m5.sdf

>  <i_m_source_file_index>  (137) 
15

>  <i_lp_mmshare_version>  (137) 
48012

>  <i_f3d_flags>  (137) 
0

>  <s_epik_input>  (137) 
TzFDKD1PKVtDSDJdW0NAQF0yKFtPSF0pW0NAXTMoW0NIM10pW0NASF0oT1tDQEhdKEM0PVtDSDJdKVtDSDJdW0NIMl01KVtDQEhdKE82KVtDQEBIXTNbQ0BdMShDKD1bQ0gyXSlbQ0gzXSlbQ0BdNihbQ0BdNyhbQ0BIXTVbQ0BdMjQ4KVtDSDNdKU9bQ0BASF03W0NIMl04

>  <s_epik_cmdline>  (137) 
J2VwaWtfcHl0aG9uJywgJy1waHQnLCAnMi4wJywgJy1waCcsICc3LjAnLCAnLXRuJywgJzgnLCAnLW1hJywgJzIwMCcsICctaW1hZScsICc8aW5maWxlLm1hZT4nLCAnLW9tYWUnLCAnPG91dGZpbGUubWFlPic=

>  <r_lp_tautomer_probability>  (137) 
1

>  <r_epik_Ionization_Penalty>  (137) 
3.80282e-08

>  <r_epik_Ionization_Penalty_Charging>  (137) 
0

>  <r_epik_Ionization_Penalty_Neutral>  (137) 
3.80282e-08

>  <r_epik_State_Penalty>  (137) 
-0

>  <r_epik_Charging_Adjusted_Penalty>  (137) 
0

>  <i_epik_Tot_Q>  (137) 
0

>  <i_epik_Tot_abs_Q>  (137) 
0

>  <s_epik_Chemistry_Notes>  (137) 
This compound has an ester and may undergo hydrolysis at high or low pH.

>  <s_lp_Force_Field>  (137) 
OPLS3e

>  <r_lp_Energy>  (137) 
430.451

>  <b_lp_Chiralities_Consistent>  (137) 
1

>  <s_lp_Variant>  (137) 
41:0-1

>  <s_i_glide_gridfile>  (137) 
pfpi4k_grid

>  <i_i_glide_lignum>  (137) 
15

>  <i_i_glide_rotatable_bonds>  (137) 
2

>  <r_i_docking_score>  (137) 
-2.45259

>  <r_i_glide_ligand_efficiency>  (137) 
-0.0817529

>  <r_i_glide_ligand_efficiency_sa>  (137) 
-0.254025

>  <r_i_glide_ligand_efficiency_ln>  (137) 
-0.557255

>  <r_i_glide_gscore>  (137) 
-2.45259

>  <r_i_glide_lipo>  (137) 
0

>  <r_i_glide_hbond>  (137) 
-0.128897

>  <r_i_glide_metal>  (137) 
-0

>  <r_i_glide_rewards>  (137) 
-0.596758

>  <r_i_glide_evdw>  (137) 
-19.1511

>  <r_i_glide_ecoul>  (137) 
-5.76133

>  <r_i_glide_erotb>  (137) 
0.115903

>  <r_i_glide_esite>  (137) 
-0.0210844

>  <r_i_glide_emodel>  (137) 
-28.8596

>  <r_i_glide_energy>  (137) 
-24.9124

>  <r_i_glide_einternal>  (137) 
0.0493451

>  <r_i_glide_intrahb_reward>  (137) 
-0

>  <i_i_glide_confnum>  (137) 
2

>  <i_i_glide_posenum>  (137) 
34

>  <r_i_glide_eff_state_penalty>  (137) 
0

>  <ligand_id>  (137) 
41

>  <original_smiles>  (137) 
C=C1C2CCC3C14CC1OC5(OC6C(O2)C2(C)C6C5(C(=C)C)OC(=O)CC42O)C13C

>  <smiles>  (137) 
[H]OC12C([H])([H])C(=O)OC3(C(=C([H])[H])C([H])([H])[H])C45OC6([H])C([H])(OC7([H])C(=C([H])[H])C18C([H])([H])C([H])(O4)C5(C([H])([H])[H])C8([H])C([H])([H])C7([H])[H])C2(C([H])([H])[H])C63[H]

$$$$
41:0:1
     RDKit          3D

 58 65  0  0  1  0  0  0  0  0999 V2000
    2.5373    2.1332    2.2949 C   0  0  0  0  0  0  0  0  0  0  0  0
    1.9818    1.4542    3.3322 C   0  0  0  0  0  0  0  0  0  0  0  0
    2.2736    0.1057    3.5828 C   0  0  2  0  0  0  0  0  0  0  0  0
    1.1063   -0.3141    2.4914 C   0  0  0  0  0  0  0  0  0  0  0  0
   -0.2164    0.7410    2.2806 C   0  0  0  0  0  0  0  0  0  0  0  0
   -0.4511    1.9496    3.4142 C   0  0  2  0  0  0  0  0  0  0  0  0
    0.7180    1.6977    4.1876 C   0  0  1  0  0  0  0  0  0  0  0  0
   -0.1919    0.2456    4.7512 C   0  0  0  0  0  0  0  0  0  0  0  0
   -1.6787    0.5658    5.0670 C   0  0  1  0  0  0  0  0  0  0  0  0
   -2.1887    0.9768    6.4032 O   0  0  0  0  0  0  0  0  0  0  0  0
   -1.0385    1.7800    6.4254 C   0  0  2  0  0  0  0  0  0  0  0  0
   -0.2000    0.7688    7.1295 O   0  0  0  0  0  0  0  0  0  0  0  0
    1.1819    0.9563    7.3724 C   0  0  1  0  0  0  0  0  0  0  0  0
    2.2652    1.0074    6.2349 C   0  0  1  0  0  0  0  0  0  0  0  0
    2.3363   -0.0383    5.0980 O   0  0  0  0  0  0  0  0  0  0  0  0
    1.9509    2.5588    6.2501 C   0  0  2  0  0  0  0  0  0  0  0  0
    3.2111    3.3891    6.6525 C   0  0  0  0  0  0  0  0  0  0  0  0
    1.0053    2.4484    7.4882 C   0  0  1  0  0  0  0  0  0  0  0  0
   -0.5453    2.8112    7.4651 C   0  0  2  0  0  0  0  0  0  0  0  0
   -1.2252    2.5901    8.8410 C   0  0  0  0  0  0  0  0  0  0  0  0
   -2.5501    2.4116    8.9805 C   0  0  0  0  0  0  0  0  0  0  0  0
   -0.3535    2.5879   10.0874 C   0  0  0  0  0  0  0  0  0  0  0  0
   -0.7981    4.1800    7.1964 O   0  0  0  0  0  0  0  0  0  0  0  0
   -0.0560    4.9284    6.3980 C   0  0  0  0  0  0  0  0  0  0  0  0
    0.2075    6.1051    6.6336 O   0  0  0  0  0  0  0  0  0  0  0  0
    0.2867    4.3131    5.0585 C   0  0  0  0  0  0  0  0  0  0  0  0
    1.2198    3.0358    4.9966 C   0  0  2  0  0  0  0  0  0  0  0  0
    2.2308    3.8126    4.3509 O   0  0  0  0  0  0  0  0  0  0  0  0
   -1.4408    1.9484    4.7479 C   0  0  1  0  0  0  0  0  0  0  0  0
   -2.6923    2.7822    4.4378 C   0  0  0  0  0  0  0  0  0  0  0  0
    2.1799    3.1017    1.9731 H   0  0  0  0  0  0  0  0  0  0  0  0
    3.3530    1.7012    1.7353 H   0  0  0  0  0  0  0  0  0  0  0  0
    3.2470   -0.1714    3.1813 H   0  0  0  0  0  0  0  0  0  0  0  0
    1.5826   -0.3905    1.5109 H   0  0  0  0  0  0  0  0  0  0  0  0
    0.7951   -1.3489    2.6535 H   0  0  0  0  0  0  0  0  0  0  0  0
   -0.0395    1.2405    1.3221 H   0  0  0  0  0  0  0  0  0  0  0  0
   -1.1352    0.1790    2.1144 H   0  0  0  0  0  0  0  0  0  0  0  0
   -0.4359    2.9100    2.8915 H   0  0  0  0  0  0  0  0  0  0  0  0
   -0.4138   -0.6095    4.1294 H   0  0  0  0  0  0  0  0  0  0  0  0
    0.2437   -0.4577    5.4485 H   0  0  0  0  0  0  0  0  0  0  0  0
   -2.4304    0.0868    4.4409 H   0  0  0  0  0  0  0  0  0  0  0  0
    1.5213    0.4711    8.2874 H   0  0  0  0  0  0  0  0  0  0  0  0
    3.2273    0.8803    6.7291 H   0  0  0  0  0  0  0  0  0  0  0  0
    2.9921    4.4517    6.7850 H   0  0  0  0  0  0  0  0  0  0  0  0
    4.0289    3.2886    5.9372 H   0  0  0  0  0  0  0  0  0  0  0  0
    3.6230    3.0416    7.6019 H   0  0  0  0  0  0  0  0  0  0  0  0
    1.5274    2.8471    8.3551 H   0  0  0  0  0  0  0  0  0  0  0  0
   -3.2289    2.4210    8.1368 H   0  0  0  0  0  0  0  0  0  0  0  0
   -2.9850    2.2524    9.9605 H   0  0  0  0  0  0  0  0  0  0  0  0
    0.2007    3.5221   10.1608 H   0  0  0  0  0  0  0  0  0  0  0  0
    0.3425    1.7503   10.0741 H   0  0  0  0  0  0  0  0  0  0  0  0
   -0.9527    2.4933   10.9922 H   0  0  0  0  0  0  0  0  0  0  0  0
   -0.6459    4.1732    4.5479 H   0  0  0  0  0  0  0  0  0  0  0  0
    0.6636    5.1633    4.4795 H   0  0  0  0  0  0  0  0  0  0  0  0
    1.9152    4.0776    3.5009 H   0  0  0  0  0  0  0  0  0  0  0  0
   -3.2085    3.0568    5.3579 H   0  0  0  0  0  0  0  0  0  0  0  0
   -3.3946    2.2288    3.8183 H   0  0  0  0  0  0  0  0  0  0  0  0
   -2.4886    3.7069    3.9035 H   0  0  0  0  0  0  0  0  0  0  0  0
  1  2  2  0
  1 31  1  0
  1 32  1  0
  2  7  1  0
  2  3  1  0
  3 15  1  0
  3  4  1  0
  3 33  1  6
  4  5  1  0
  4 34  1  0
  4 35  1  0
  5  6  1  0
  5 36  1  0
  5 37  1  0
  6 29  1  0
  6  7  1  0
  6 38  1  6
  7 27  1  0
  7  8  1  1
  8  9  1  0
  8 39  1  0
  8 40  1  0
  9 29  1  0
  9 10  1  0
  9 41  1  6
 11 10  1  1
 11 19  1  0
 11 12  1  0
 11 29  1  0
 12 13  1  0
 13 18  1  0
 13 14  1  0
 13 42  1  1
 14 15  1  0
 14 16  1  0
 14 43  1  1
 16 27  1  0
 16 17  1  1
 16 18  1  0
 17 44  1  0
 17 45  1  0
 17 46  1  0
 18 19  1  0
 18 47  1  1
 19 20  1  1
 19 23  1  0
 20 21  2  0
 20 22  1  0
 21 48  1  0
 21 49  1  0
 22 50  1  0
 22 51  1  0
 22 52  1  0
 23 24  1  0
 24 25  2  0
 24 26  1  0
 26 27  1  0
 26 53  1  0
 26 54  1  0
 27 28  1  6
 28 55  1  0
 29 30  1  1
 30 56  1  0
 30 57  1  0
 30 58  1  0
M  END
>  <i_m_ct_stereo_status>  (138) 
1

>  <s_m_source_file>  (138) 
/var/tmp/pbs.5076255.sched01/tmpio9qf6gp/4214r_5_m5.sdf

>  <i_m_source_file_index>  (138) 
15

>  <i_lp_mmshare_version>  (138) 
48012

>  <i_f3d_flags>  (138) 
0

>  <s_epik_input>  (138) 
TzFDKD1PKVtDSDJdW0NAQF0yKFtPSF0pW0NAXTMoW0NIM10pW0NASF0oT1tDQEhdKEM0PVtDSDJdKVtDSDJdW0NIMl01KVtDQEhdKE82KVtDQEBIXTNbQ0BdMShDKD1bQ0gyXSlbQ0gzXSlbQ0BdNihbQ0BdNyhbQ0BIXTVbQ0BdMjQ4KVtDSDNdKU9bQ0BASF03W0NIMl04

>  <s_epik_cmdline>  (138) 
J2VwaWtfcHl0aG9uJywgJy1waHQnLCAnMi4wJywgJy1waCcsICc3LjAnLCAnLXRuJywgJzgnLCAnLW1hJywgJzIwMCcsICctaW1hZScsICc8aW5maWxlLm1hZT4nLCAnLW9tYWUnLCAnPG91dGZpbGUubWFlPic=

>  <r_lp_tautomer_probability>  (138) 
1

>  <r_epik_Ionization_Penalty>  (138) 
3.80282e-08

>  <r_epik_Ionization_Penalty_Charging>  (138) 
0

>  <r_epik_Ionization_Penalty_Neutral>  (138) 
3.80282e-08

>  <r_epik_State_Penalty>  (138) 
-0

>  <r_epik_Charging_Adjusted_Penalty>  (138) 
0

>  <i_epik_Tot_Q>  (138) 
0

>  <i_epik_Tot_abs_Q>  (138) 
0

>  <s_epik_Chemistry_Notes>  (138) 
This compound has an ester and may undergo hydrolysis at high or low pH.

>  <s_lp_Force_Field>  (138) 
OPLS3e

>  <r_lp_Energy>  (138) 
430.451

>  <b_lp_Chiralities_Consistent>  (138) 
1

>  <s_lp_Variant>  (138) 
41:0-1

>  <s_i_glide_gridfile>  (138) 
pfpi4k_grid

>  <i_i_glide_lignum>  (138) 
15

>  <i_i_glide_rotatable_bonds>  (138) 
2

>  <r_i_docking_score>  (138) 
-2.34725

>  <r_i_glide_ligand_efficiency>  (138) 
-0.0782418

>  <r_i_glide_ligand_efficiency_sa>  (138) 
-0.243115

>  <r_i_glide_ligand_efficiency_ln>  (138) 
-0.533322

>  <r_i_glide_gscore>  (138) 
-2.34725

>  <r_i_glide_lipo>  (138) 
0

>  <r_i_glide_hbond>  (138) 
-0.106221

>  <r_i_glide_metal>  (138) 
-0

>  <r_i_glide_rewards>  (138) 
-0.596758

>  <r_i_glide_evdw>  (138) 
-18.7845

>  <r_i_glide_ecoul>  (138) 
-5.3504

>  <r_i_glide_erotb>  (138) 
0.115903

>  <r_i_glide_esite>  (138) 
-0.018395

>  <r_i_glide_emodel>  (138) 
-26.5241

>  <r_i_glide_energy>  (138) 
-24.1349

>  <r_i_glide_einternal>  (138) 
2.87125

>  <r_i_glide_intrahb_reward>  (138) 
-0

>  <i_i_glide_confnum>  (138) 
2

>  <i_i_glide_posenum>  (138) 
1

>  <r_i_glide_eff_state_penalty>  (138) 
0

>  <ligand_id>  (138) 
41

>  <original_smiles>  (138) 
C=C1C2CCC3C14CC1OC5(OC6C(O2)C2(C)C6C5(C(=C)C)OC(=O)CC42O)C13C

>  <smiles>  (138) 
[H]OC12C([H])([H])C(=O)OC3(C(=C([H])[H])C([H])([H])[H])C45OC6([H])C([H])(OC7([H])C(=C([H])[H])C18C([H])([H])C([H])(O4)C5(C([H])([H])[H])C8([H])C([H])([H])C7([H])[H])C2(C([H])([H])[H])C63[H]

$$$$
41:0:2
     RDKit          3D

 58 65  0  0  1  0  0  0  0  0999 V2000
    2.9548    0.1454    7.4629 C   0  0  0  0  0  0  0  0  0  0  0  0
    1.7365    0.1684    6.8188 C   0  0  0  0  0  0  0  0  0  0  0  0
    0.7442   -0.7730    7.0919 C   0  0  2  0  0  0  0  0  0  0  0  0
    1.4547   -1.7853    5.9977 C   0  0  0  0  0  0  0  0  0  0  0  0
    2.3194   -1.0937    4.6948 C   0  0  0  0  0  0  0  0  0  0  0  0
    2.1193    0.5388    4.3901 C   0  0  2  0  0  0  0  0  0  0  0  0
    1.2656    0.8168    5.5079 C   0  0  1  0  0  0  0  0  0  0  0  0
    0.0333   -0.0960    4.5441 C   0  0  0  0  0  0  0  0  0  0  0  0
    0.0464    0.3203    3.0493 C   0  0  1  0  0  0  0  0  0  0  0  0
   -0.7745    1.4221    2.4713 O   0  0  0  0  0  0  0  0  0  0  0  0
   -0.3805    2.1144    3.6218 C   0  0  2  0  0  0  0  0  0  0  0  0
   -1.5397    1.6998    4.4567 O   0  0  0  0  0  0  0  0  0  0  0  0
   -1.7484    2.0927    5.7903 C   0  0  1  0  0  0  0  0  0  0  0  0
   -0.8695    1.5172    6.9388 C   0  0  1  0  0  0  0  0  0  0  0  0
   -0.5722    0.0032    7.0450 O   0  0  0  0  0  0  0  0  0  0  0  0
    0.0225    2.7791    6.5996 C   0  0  2  0  0  0  0  0  0  0  0  0
    0.1051    3.7286    7.8343 C   0  0  0  0  0  0  0  0  0  0  0  0
   -0.9975    3.3754    5.5690 C   0  0  1  0  0  0  0  0  0  0  0  0
   -0.6791    3.5753    4.0179 C   0  0  2  0  0  0  0  0  0  0  0  0
   -1.9031    4.1770    3.2383 C   0  0  0  0  0  0  0  0  0  0  0  0
   -1.8463    5.3233    2.5281 C   0  0  0  0  0  0  0  0  0  0  0  0
   -3.2417    3.4395    3.2275 C   0  0  0  0  0  0  0  0  0  0  0  0
    0.3664    4.5260    3.8283 O   0  0  0  0  0  0  0  0  0  0  0  0
    1.4058    4.7013    4.6240 C   0  0  0  0  0  0  0  0  0  0  0  0
    1.8637    5.8099    4.9059 O   0  0  0  0  0  0  0  0  0  0  0  0
    2.1102    3.4358    5.0379 C   0  0  0  0  0  0  0  0  0  0  0  0
    1.3553    2.3988    5.9545 C   0  0  2  0  0  0  0  0  0  0  0  0
    2.2776    2.6841    7.0126 O   0  0  0  0  0  0  0  0  0  0  0  0
    1.0983    1.2680    3.3150 C   0  0  1  0  0  0  0  0  0  0  0  0
    1.8993    1.7260    2.0781 C   0  0  0  0  0  0  0  0  0  0  0  0
    3.7777    0.7465    7.1216 H   0  0  0  0  0  0  0  0  0  0  0  0
    3.1150   -0.5011    8.3025 H   0  0  0  0  0  0  0  0  0  0  0  0
    0.8504   -1.1964    8.0852 H   0  0  0  0  0  0  0  0  0  0  0  0
    2.1760   -2.4023    6.5389 H   0  0  0  0  0  0  0  0  0  0  0  0
    0.7369   -2.5435    5.6686 H   0  0  0  0  0  0  0  0  0  0  0  0
    3.3741   -1.2379    4.9354 H   0  0  0  0  0  0  0  0  0  0  0  0
    2.1582   -1.6847    3.7920 H   0  0  0  0  0  0  0  0  0  0  0  0
    3.0942    1.0269    4.4527 H   0  0  0  0  0  0  0  0  0  0  0  0
    0.0559   -1.1510    4.3374 H   0  0  0  0  0  0  0  0  0  0  0  0
   -0.9654   -0.2705    4.9334 H   0  0  0  0  0  0  0  0  0  0  0  0
    0.3240   -0.4336    2.3232 H   0  0  0  0  0  0  0  0  0  0  0  0
   -2.7909    2.2077    6.0849 H   0  0  0  0  0  0  0  0  0  0  0  0
   -1.4125    1.7345    7.8539 H   0  0  0  0  0  0  0  0  0  0  0  0
    0.6312    4.6622    7.6129 H   0  0  0  0  0  0  0  0  0  0  0  0
    0.5708    3.2549    8.7025 H   0  0  0  0  0  0  0  0  0  0  0  0
   -0.8907    4.0088    8.1729 H   0  0  0  0  0  0  0  0  0  0  0  0
   -1.5451    4.2186    6.0008 H   0  0  0  0  0  0  0  0  0  0  0  0
   -0.9482    5.9242    2.4231 H   0  0  0  0  0  0  0  0  0  0  0  0
   -2.7184    5.6732    1.9930 H   0  0  0  0  0  0  0  0  0  0  0  0
   -3.6040    3.3026    4.2381 H   0  0  0  0  0  0  0  0  0  0  0  0
   -3.1315    2.4771    2.7405 H   0  0  0  0  0  0  0  0  0  0  0  0
   -4.0234    3.9689    2.6797 H   0  0  0  0  0  0  0  0  0  0  0  0
    2.4915    3.0059    4.1315 H   0  0  0  0  0  0  0  0  0  0  0  0
    3.0494    3.8018    5.4616 H   0  0  0  0  0  0  0  0  0  0  0  0
    2.0535    2.1440    7.7490 H   0  0  0  0  0  0  0  0  0  0  0  0
    1.3410    2.4777    1.5313 H   0  0  0  0  0  0  0  0  0  0  0  0
    2.0871    0.9079    1.3908 H   0  0  0  0  0  0  0  0  0  0  0  0
    2.8586    2.1732    2.3207 H   0  0  0  0  0  0  0  0  0  0  0  0
  1  2  2  0
  1 31  1  0
  1 32  1  0
  2  7  1  0
  2  3  1  0
  3 15  1  0
  3  4  1  0
  3 33  1  1
  4  5  1  0
  4 34  1  0
  4 35  1  0
  5  6  1  0
  5 36  1  0
  5 37  1  0
  6 29  1  0
  6  7  1  0
  6 38  1  1
  7 27  1  0
  7  8  1  6
  8  9  1  0
  8 39  1  0
  8 40  1  0
  9 29  1  0
  9 10  1  0
  9 41  1  6
 11 10  1  6
 11 19  1  0
 11 12  1  0
 11 29  1  0
 12 13  1  0
 13 18  1  0
 13 14  1  0
 13 42  1  1
 14 15  1  0
 14 16  1  0
 14 43  1  1
 16 27  1  0
 16 17  1  1
 16 18  1  0
 17 44  1  0
 17 45  1  0
 17 46  1  0
 18 19  1  0
 18 47  1  1
 19 20  1  6
 19 23  1  0
 20 21  2  0
 20 22  1  0
 21 48  1  0
 21 49  1  0
 22 50  1  0
 22 51  1  0
 22 52  1  0
 23 24  1  0
 24 25  2  0
 24 26  1  0
 26 27  1  0
 26 53  1  0
 26 54  1  0
 27 28  1  1
 28 55  1  0
 29 30  1  6
 30 56  1  0
 30 57  1  0
 30 58  1  0
M  END
>  <i_m_ct_stereo_status>  (139) 
1

>  <s_m_source_file>  (139) 
/var/tmp/pbs.5076255.sched01/tmpio9qf6gp/4214r_5_m5.sdf

>  <i_m_source_file_index>  (139) 
15

>  <i_lp_mmshare_version>  (139) 
48012

>  <i_f3d_flags>  (139) 
0

>  <s_epik_input>  (139) 
TzFDKD1PKVtDSDJdW0NAQF0yKFtPSF0pW0NAXTMoW0NIM10pW0NASF0oT1tDQEhdKEM0PVtDSDJdKVtDSDJdW0NIMl01KVtDQEhdKE82KVtDQEBIXTNbQ0BdMShDKD1bQ0gyXSlbQ0gzXSlbQ0BdNihbQ0BdNyhbQ0BIXTVbQ0BdMjQ4KVtDSDNdKU9bQ0BASF03W0NIMl04

>  <s_epik_cmdline>  (139) 
J2VwaWtfcHl0aG9uJywgJy1waHQnLCAnMi4wJywgJy1waCcsICc3LjAnLCAnLXRuJywgJzgnLCAnLW1hJywgJzIwMCcsICctaW1hZScsICc8aW5maWxlLm1hZT4nLCAnLW9tYWUnLCAnPG91dGZpbGUubWFlPic=

>  <r_lp_tautomer_probability>  (139) 
1

>  <r_epik_Ionization_Penalty>  (139) 
3.80282e-08

>  <r_epik_Ionization_Penalty_Charging>  (139) 
0

>  <r_epik_Ionization_Penalty_Neutral>  (139) 
3.80282e-08

>  <r_epik_State_Penalty>  (139) 
-0

>  <r_epik_Charging_Adjusted_Penalty>  (139) 
0

>  <i_epik_Tot_Q>  (139) 
0

>  <i_epik_Tot_abs_Q>  (139) 
0

>  <s_epik_Chemistry_Notes>  (139) 
This compound has an ester and may undergo hydrolysis at high or low pH.

>  <s_lp_Force_Field>  (139) 
OPLS3e

>  <r_lp_Energy>  (139) 
430.451

>  <b_lp_Chiralities_Consistent>  (139) 
1

>  <s_lp_Variant>  (139) 
41:0-1

>  <s_i_glide_gridfile>  (139) 
pfpi4k_grid

>  <i_i_glide_lignum>  (139) 
15

>  <i_i_glide_rotatable_bonds>  (139) 
2

>  <r_i_docking_score>  (139) 
-1.7455

>  <r_i_glide_ligand_efficiency>  (139) 
-0.0581835

>  <r_i_glide_ligand_efficiency_sa>  (139) 
-0.18079

>  <r_i_glide_ligand_efficiency_ln>  (139) 
-0.396598

>  <r_i_glide_gscore>  (139) 
-1.7455

>  <r_i_glide_lipo>  (139) 
0

>  <r_i_glide_hbond>  (139) 
-0.0450097

>  <r_i_glide_metal>  (139) 
-0

>  <r_i_glide_rewards>  (139) 
-0.596758

>  <r_i_glide_evdw>  (139) 
-19.984

>  <r_i_glide_ecoul>  (139) 
-1.06912

>  <r_i_glide_erotb>  (139) 
0.115903

>  <r_i_glide_esite>  (139) 
-0.0600721

>  <r_i_glide_emodel>  (139) 
-20.4814

>  <r_i_glide_energy>  (139) 
-21.0531

>  <r_i_glide_einternal>  (139) 
6.58883

>  <r_i_glide_intrahb_reward>  (139) 
-0

>  <i_i_glide_confnum>  (139) 
5

>  <i_i_glide_posenum>  (139) 
13

>  <r_i_glide_eff_state_penalty>  (139) 
0

>  <ligand_id>  (139) 
41

>  <original_smiles>  (139) 
C=C1C2CCC3C14CC1OC5(OC6C(O2)C2(C)C6C5(C(=C)C)OC(=O)CC42O)C13C

>  <smiles>  (139) 
[H]OC12C([H])([H])C(=O)OC3(C(=C([H])[H])C([H])([H])[H])C45OC6([H])C([H])(OC7([H])C(=C([H])[H])C18C([H])([H])C([H])(O4)C5(C([H])([H])[H])C8([H])C([H])([H])C7([H])[H])C2(C([H])([H])[H])C63[H]

$$$$
42:0:0
     RDKit          3D

 46 49  0  0  1  0  0  0  0  0999 V2000
    4.8139   -3.8476   -3.3332 C   0  0  0  0  0  0  0  0  0  0  0  0
    4.9718   -2.8922   -2.1411 C   0  0  1  0  0  0  0  0  0  0  0  0
    6.4177   -2.6796   -1.6134 C   0  0  0  0  0  0  0  0  0  0  0  0
    6.1879   -2.0098   -0.2328 C   0  0  0  0  0  0  0  0  0  0  0  0
    4.6339   -1.9650   -0.1718 C   0  0  1  0  0  0  0  0  0  0  0  0
    4.0380   -1.7130    1.2228 C   0  0  0  0  0  0  0  0  0  0  0  0
    4.6893   -2.0512    2.2124 O   0  0  0  0  0  0  0  0  0  0  0  0
    2.8187   -1.1445    1.2770 N   0  0  0  0  0  0  0  0  0  0  0  0
    2.0437   -0.7756    2.4037 C   0  0  0  0  0  0  0  0  0  0  0  0
    0.9479    0.0805    2.1762 C   0  0  0  0  0  0  0  0  0  0  0  0
    0.1283    0.5025    3.2421 C   0  0  0  0  0  0  0  0  0  0  0  0
    0.4050    0.0616    4.5532 C   0  0  0  0  0  0  0  0  0  0  0  0
   -0.3416    0.5083    5.6567 N   0  0  0  0  0  0  0  0  0  0  0  0
    0.0803    1.0020    6.8828 C   0  0  0  0  0  0  0  0  0  0  0  0
   -1.0674    1.2922    7.5743 C   0  0  0  0  0  0  0  0  0  0  0  0
   -2.1809    0.9449    6.8110 N   0  0  0  0  0  0  0  0  0  0  0  0
   -1.6778    0.5042    5.6597 C   0  0  0  0  0  0  0  0  0  0  0  0
    1.4880   -0.8067    4.7863 C   0  0  0  0  0  0  0  0  0  0  0  0
    2.2975   -1.2363    3.7204 C   0  0  0  0  0  0  0  0  0  0  0  0
    4.2467   -0.9769   -1.1408 O   0  0  0  0  0  0  0  0  0  0  0  0
    4.4063   -1.4831   -2.3726 C   0  0  0  0  0  0  0  0  0  0  0  0
    4.1727   -0.9546   -3.4594 O   0  0  0  0  0  0  0  0  0  0  0  0
    4.1941   -3.2848   -0.8641 C   0  0  0  0  0  0  0  0  0  0  0  0
    2.6553   -3.4331   -1.0535 C   0  0  0  0  0  0  0  0  0  0  0  0
    4.6774   -4.5843   -0.1538 C   0  0  0  0  0  0  0  0  0  0  0  0
    5.0151   -4.8733   -3.0294 H   0  0  0  0  0  0  0  0  0  0  0  0
    5.4981   -3.6053   -4.1407 H   0  0  0  0  0  0  0  0  0  0  0  0
    3.7995   -3.8283   -3.7352 H   0  0  0  0  0  0  0  0  0  0  0  0
    6.9408   -3.6283   -1.5114 H   0  0  0  0  0  0  0  0  0  0  0  0
    7.0258   -2.0704   -2.2812 H   0  0  0  0  0  0  0  0  0  0  0  0
    6.6130   -2.6056    0.5765 H   0  0  0  0  0  0  0  0  0  0  0  0
    6.6220   -1.0121   -0.1529 H   0  0  0  0  0  0  0  0  0  0  0  0
    2.3931   -0.9473    0.3762 H   0  0  0  0  0  0  0  0  0  0  0  0
    0.7424    0.4396    1.1790 H   0  0  0  0  0  0  0  0  0  0  0  0
   -0.6878    1.1843    3.0512 H   0  0  0  0  0  0  0  0  0  0  0  0
    1.1211    1.1171    7.1479 H   0  0  0  0  0  0  0  0  0  0  0  0
   -1.1843    1.7048    8.5637 H   0  0  0  0  0  0  0  0  0  0  0  0
   -2.2798    0.1727    4.8291 H   0  0  0  0  0  0  0  0  0  0  0  0
    1.7125   -1.1351    5.7937 H   0  0  0  0  0  0  0  0  0  0  0  0
    3.1096   -1.9032    3.9588 H   0  0  0  0  0  0  0  0  0  0  0  0
    2.1454   -3.6054   -0.1079 H   0  0  0  0  0  0  0  0  0  0  0  0
    2.3913   -4.2601   -1.7071 H   0  0  0  0  0  0  0  0  0  0  0  0
    2.2058   -2.5533   -1.4982 H   0  0  0  0  0  0  0  0  0  0  0  0
    4.1513   -4.7308    0.7890 H   0  0  0  0  0  0  0  0  0  0  0  0
    5.7351   -4.6141    0.0941 H   0  0  0  0  0  0  0  0  0  0  0  0
    4.4922   -5.4624   -0.7700 H   0  0  0  0  0  0  0  0  0  0  0  0
  2  1  1  6
  1 26  1  0
  1 27  1  0
  1 28  1  0
  2 21  1  0
  2 23  1  0
  2  3  1  0
  3  4  1  0
  3 29  1  0
  3 30  1  0
  4  5  1  0
  4 31  1  0
  4 32  1  0
  5  6  1  1
  5 20  1  0
  5 23  1  0
  6  7  2  0
  6  8  1  0
  8  9  1  0
  8 33  1  0
  9 19  1  0
  9 10  2  0
 10 11  1  0
 10 34  1  0
 11 12  2  0
 11 35  1  0
 12 13  1  0
 12 18  1  0
 13 17  1  0
 13 14  1  0
 14 15  2  0
 14 36  1  0
 15 16  1  0
 15 37  1  0
 16 17  2  0
 17 38  1  0
 18 19  2  0
 18 39  1  0
 19 40  1  0
 20 21  1  0
 21 22  2  0
 23 24  1  0
 23 25  1  0
 24 41  1  0
 24 42  1  0
 24 43  1  0
 25 44  1  0
 25 45  1  0
 25 46  1  0
M  END
>  <i_m_ct_stereo_status>  (140) 
1

>  <s_m_source_file>  (140) 
/var/tmp/pbs.5076255.sched01/tmpio9qf6gp/4214r_5_m5.sdf

>  <i_m_source_file_index>  (140) 
16

>  <i_lp_mmshare_version>  (140) 
48012

>  <i_f3d_flags>  (140) 
0

>  <s_epik_input>  (140) 
W0NIM11bQ0BAXTEyW0NIMl1bQ0gyXVtDQEBdKE9DMT1PKShDMihbQ0gzXSlbQ0gzXSlDKD1PKVtOSF1jM1tjSF1bY0hdYyhbY0hdW2NIXTMpLW40W2NIXVtjSF1uW2NIXTQ=

>  <s_epik_cmdline>  (140) 
J2VwaWtfcHl0aG9uJywgJy1waHQnLCAnMi4wJywgJy1waCcsICc3LjAnLCAnLXRuJywgJzgnLCAnLW1hJywgJzIwMCcsICctaW1hZScsICc8aW5maWxlLm1hZT4nLCAnLW9tYWUnLCAnPG91dGZpbGUubWFlPic=

>  <r_lp_tautomer_probability>  (140) 
1

>  <r_epik_Ionization_Penalty>  (140) 
0.02186

>  <r_epik_Ionization_Penalty_Charging>  (140) 
0.0218596

>  <r_epik_Ionization_Penalty_Neutral>  (140) 
4.3817e-07

>  <r_epik_State_Penalty>  (140) 
0.0176044

>  <r_epik_Charging_Adjusted_Penalty>  (140) 
0.0394639

>  <i_epik_Tot_Q>  (140) 
0

>  <i_epik_Tot_abs_Q>  (140) 
0

>  <s_epik_Chemistry_Notes>  (140) 
This compound has an ester and may undergo hydrolysis at high or low pH.

>  <s_lp_Force_Field>  (140) 
OPLS3e

>  <r_lp_Energy>  (140) 
50.9892

>  <b_lp_Chiralities_Consistent>  (140) 
1

>  <s_lp_Variant>  (140) 
42:0-1

>  <s_i_glide_gridfile>  (140) 
pfpi4k_grid

>  <i_i_glide_lignum>  (140) 
16

>  <i_i_glide_rotatable_bonds>  (140) 
4

>  <r_i_docking_score>  (140) 
-3.98902

>  <r_i_glide_ligand_efficiency>  (140) 
-0.159561

>  <r_i_glide_ligand_efficiency_sa>  (140) 
-0.466558

>  <r_i_glide_ligand_efficiency_ln>  (140) 
-0.945516

>  <r_i_glide_gscore>  (140) 
-3.98902

>  <r_i_glide_lipo>  (140) 
-0.149697

>  <r_i_glide_hbond>  (140) 
-0.310549

>  <r_i_glide_metal>  (140) 
-0

>  <r_i_glide_rewards>  (140) 
-1.09508

>  <r_i_glide_evdw>  (140) 
-30.93

>  <r_i_glide_ecoul>  (140) 
-9.13076

>  <r_i_glide_erotb>  (140) 
0.657174

>  <r_i_glide_esite>  (140) 
-0.174751

>  <r_i_glide_emodel>  (140) 
-49.908

>  <r_i_glide_energy>  (140) 
-40.0607

>  <r_i_glide_einternal>  (140) 
1.63219

>  <r_i_glide_intrahb_reward>  (140) 
-0

>  <i_i_glide_confnum>  (140) 
6

>  <i_i_glide_posenum>  (140) 
17

>  <r_i_glide_eff_state_penalty>  (140) 
0

>  <ligand_id>  (140) 
42

>  <original_smiles>  (140) 
CC12CCC(C(=O)Nc3ccc(-n4ccnc4)cc3)(OC1=O)C2(C)C

>  <smiles>  (140) 
[H]c1nc([H])n(-c2c([H])c([H])c(N([H])C(=O)C34OC(=O)C(C([H])([H])[H])(C([H])([H])C3([H])[H])C4(C([H])([H])[H])C([H])([H])[H])c([H])c2[H])c1[H]

$$$$
42:0:1
     RDKit          3D

 46 49  0  0  1  0  0  0  0  0999 V2000
    4.8558   -3.8481   -3.2666 C   0  0  0  0  0  0  0  0  0  0  0  0
    4.9539   -2.9093   -2.0554 C   0  0  1  0  0  0  0  0  0  0  0  0
    6.3736   -2.6921   -1.4597 C   0  0  0  0  0  0  0  0  0  0  0  0
    6.0757   -2.0432   -0.0813 C   0  0  0  0  0  0  0  0  0  0  0  0
    4.5200   -2.0130   -0.0919 C   0  0  1  0  0  0  0  0  0  0  0  0
    3.8557   -1.7865    1.2767 C   0  0  0  0  0  0  0  0  0  0  0  0
    4.4433   -2.1473    2.2916 O   0  0  0  0  0  0  0  0  0  0  0  0
    2.6384   -1.2161    1.2777 N   0  0  0  0  0  0  0  0  0  0  0  0
    1.8595   -0.8027    2.3768 C   0  0  0  0  0  0  0  0  0  0  0  0
    0.8824    0.1794    2.1250 C   0  0  0  0  0  0  0  0  0  0  0  0
    0.0707    0.6537    3.1664 C   0  0  0  0  0  0  0  0  0  0  0  0
    0.2167    0.1479    4.4800 C   0  0  0  0  0  0  0  0  0  0  0  0
   -0.6401    0.6457    5.4917 N   0  0  0  0  0  0  0  0  0  0  0  0
   -1.7878    1.4125    5.3968 C   0  0  0  0  0  0  0  0  0  0  0  0
   -2.2032    1.6291    6.6849 C   0  0  0  0  0  0  0  0  0  0  0  0
   -1.3554    0.9736    7.5697 N   0  0  0  0  0  0  0  0  0  0  0  0
   -0.4204    0.4337    6.7955 C   0  0  0  0  0  0  0  0  0  0  0  0
    1.1798   -0.8585    4.7251 C   0  0  0  0  0  0  0  0  0  0  0  0
    1.9917   -1.3286    3.6827 C   0  0  0  0  0  0  0  0  0  0  0  0
    4.1747   -1.0129   -1.0644 O   0  0  0  0  0  0  0  0  0  0  0  0
    4.3923   -1.5010   -2.2958 C   0  0  0  0  0  0  0  0  0  0  0  0
    4.2085   -0.9585   -3.3856 O   0  0  0  0  0  0  0  0  0  0  0  0
    4.1176   -3.3232   -0.8231 C   0  0  0  0  0  0  0  0  0  0  0  0
    2.5864   -3.4615   -1.0854 C   0  0  0  0  0  0  0  0  0  0  0  0
    4.5765   -4.6316   -0.1076 C   0  0  0  0  0  0  0  0  0  0  0  0
    5.0136   -4.8804   -2.9669 H   0  0  0  0  0  0  0  0  0  0  0  0
    5.5955   -3.5971   -4.0218 H   0  0  0  0  0  0  0  0  0  0  0  0
    3.8678   -3.8161   -3.7270 H   0  0  0  0  0  0  0  0  0  0  0  0
    6.8999   -3.6372   -1.3480 H   0  0  0  0  0  0  0  0  0  0  0  0
    7.0037   -2.0648   -2.0895 H   0  0  0  0  0  0  0  0  0  0  0  0
    6.4654   -2.6446    0.7396 H   0  0  0  0  0  0  0  0  0  0  0  0
    6.4973   -1.0424    0.0294 H   0  0  0  0  0  0  0  0  0  0  0  0
    2.2542   -0.9947    0.3614 H   0  0  0  0  0  0  0  0  0  0  0  0
    0.7454    0.5776    1.1263 H   0  0  0  0  0  0  0  0  0  0  0  0
   -0.6638    1.4151    2.9361 H   0  0  0  0  0  0  0  0  0  0  0  0
   -2.2279    1.7350    4.4592 H   0  0  0  0  0  0  0  0  0  0  0  0
   -3.0641    2.1675    7.0354 H   0  0  0  0  0  0  0  0  0  0  0  0
    0.4110   -0.1129    7.2132 H   0  0  0  0  0  0  0  0  0  0  0  0
    1.3154   -1.2903    5.7054 H   0  0  0  0  0  0  0  0  0  0  0  0
    2.7008   -2.1039    3.9147 H   0  0  0  0  0  0  0  0  0  0  0  0
    2.0373   -3.6723   -0.1703 H   0  0  0  0  0  0  0  0  0  0  0  0
    2.3612   -4.2566   -1.7796 H   0  0  0  0  0  0  0  0  0  0  0  0
    2.1339   -2.5887   -1.5399 H   0  0  0  0  0  0  0  0  0  0  0  0
    4.0070   -4.7947    0.8060 H   0  0  0  0  0  0  0  0  0  0  0  0
    5.6216   -4.6617    0.1906 H   0  0  0  0  0  0  0  0  0  0  0  0
    4.4254   -5.5034   -0.7407 H   0  0  0  0  0  0  0  0  0  0  0  0
  2  1  1  6
  1 26  1  0
  1 27  1  0
  1 28  1  0
  2 21  1  0
  2 23  1  0
  2  3  1  0
  3  4  1  0
  3 29  1  0
  3 30  1  0
  4  5  1  0
  4 31  1  0
  4 32  1  0
  5  6  1  1
  5 20  1  0
  5 23  1  0
  6  7  2  0
  6  8  1  0
  8  9  1  0
  8 33  1  0
  9 19  1  0
  9 10  2  0
 10 11  1  0
 10 34  1  0
 11 12  2  0
 11 35  1  0
 12 13  1  0
 12 18  1  0
 13 17  1  0
 13 14  1  0
 14 15  2  0
 14 36  1  0
 15 16  1  0
 15 37  1  0
 16 17  2  0
 17 38  1  0
 18 19  2  0
 18 39  1  0
 19 40  1  0
 20 21  1  0
 21 22  2  0
 23 24  1  0
 23 25  1  0
 24 41  1  0
 24 42  1  0
 24 43  1  0
 25 44  1  0
 25 45  1  0
 25 46  1  0
M  END
>  <i_m_ct_stereo_status>  (141) 
1

>  <s_m_source_file>  (141) 
/var/tmp/pbs.5076255.sched01/tmpio9qf6gp/4214r_5_m5.sdf

>  <i_m_source_file_index>  (141) 
16

>  <i_lp_mmshare_version>  (141) 
48012

>  <i_f3d_flags>  (141) 
0

>  <s_epik_input>  (141) 
W0NIM11bQ0BAXTEyW0NIMl1bQ0gyXVtDQEBdKE9DMT1PKShDMihbQ0gzXSlbQ0gzXSlDKD1PKVtOSF1jM1tjSF1bY0hdYyhbY0hdW2NIXTMpLW40W2NIXVtjSF1uW2NIXTQ=

>  <s_epik_cmdline>  (141) 
J2VwaWtfcHl0aG9uJywgJy1waHQnLCAnMi4wJywgJy1waCcsICc3LjAnLCAnLXRuJywgJzgnLCAnLW1hJywgJzIwMCcsICctaW1hZScsICc8aW5maWxlLm1hZT4nLCAnLW9tYWUnLCAnPG91dGZpbGUubWFlPic=

>  <r_lp_tautomer_probability>  (141) 
1

>  <r_epik_Ionization_Penalty>  (141) 
0.02186

>  <r_epik_Ionization_Penalty_Charging>  (141) 
0.0218596

>  <r_epik_Ionization_Penalty_Neutral>  (141) 
4.3817e-07

>  <r_epik_State_Penalty>  (141) 
0.0176044

>  <r_epik_Charging_Adjusted_Penalty>  (141) 
0.0394639

>  <i_epik_Tot_Q>  (141) 
0

>  <i_epik_Tot_abs_Q>  (141) 
0

>  <s_epik_Chemistry_Notes>  (141) 
This compound has an ester and may undergo hydrolysis at high or low pH.

>  <s_lp_Force_Field>  (141) 
OPLS3e

>  <r_lp_Energy>  (141) 
50.9892

>  <b_lp_Chiralities_Consistent>  (141) 
1

>  <s_lp_Variant>  (141) 
42:0-1

>  <s_i_glide_gridfile>  (141) 
pfpi4k_grid

>  <i_i_glide_lignum>  (141) 
16

>  <i_i_glide_rotatable_bonds>  (141) 
4

>  <r_i_docking_score>  (141) 
-3.78281

>  <r_i_glide_ligand_efficiency>  (141) 
-0.151312

>  <r_i_glide_ligand_efficiency_sa>  (141) 
-0.44244

>  <r_i_glide_ligand_efficiency_ln>  (141) 
-0.896639

>  <r_i_glide_gscore>  (141) 
-3.78281

>  <r_i_glide_lipo>  (141) 
-0.12751

>  <r_i_glide_hbond>  (141) 
-0.283542

>  <r_i_glide_metal>  (141) 
-0

>  <r_i_glide_rewards>  (141) 
-1.09508

>  <r_i_glide_evdw>  (141) 
-30.4685

>  <r_i_glide_ecoul>  (141) 
-8.2346

>  <r_i_glide_erotb>  (141) 
0.657174

>  <r_i_glide_esite>  (141) 
-0.175238

>  <r_i_glide_emodel>  (141) 
-48.2817

>  <r_i_glide_energy>  (141) 
-38.7031

>  <r_i_glide_einternal>  (141) 
0.940946

>  <r_i_glide_intrahb_reward>  (141) 
-0

>  <i_i_glide_confnum>  (141) 
1

>  <i_i_glide_posenum>  (141) 
9

>  <r_i_glide_eff_state_penalty>  (141) 
0

>  <ligand_id>  (141) 
42

>  <original_smiles>  (141) 
CC12CCC(C(=O)Nc3ccc(-n4ccnc4)cc3)(OC1=O)C2(C)C

>  <smiles>  (141) 
[H]c1nc([H])n(-c2c([H])c([H])c(N([H])C(=O)C34OC(=O)C(C([H])([H])[H])(C([H])([H])C3([H])[H])C4(C([H])([H])[H])C([H])([H])[H])c([H])c2[H])c1[H]

$$$$
42:0:2
     RDKit          3D

 46 49  0  0  1  0  0  0  0  0999 V2000
    5.2105   -3.8608   -2.0578 C   0  0  0  0  0  0  0  0  0  0  0  0
    5.0567   -2.7219   -1.0522 C   0  0  1  0  0  0  0  0  0  0  0  0
    6.3654   -2.2079   -0.3942 C   0  0  0  0  0  0  0  0  0  0  0  0
    5.8436   -1.3562    0.7922 C   0  0  0  0  0  0  0  0  0  0  0  0
    4.3076   -1.5525    0.6459 C   0  0  1  0  0  0  0  0  0  0  0  0
    3.4854   -1.1716    1.8856 C   0  0  0  0  0  0  0  0  0  0  0  0
    3.9280   -1.4540    2.9946 O   0  0  0  0  0  0  0  0  0  0  0  0
    2.3042   -0.5631    1.6669 N   0  0  0  0  0  0  0  0  0  0  0  0
    1.4339    0.0486    2.5933 C   0  0  0  0  0  0  0  0  0  0  0  0
    0.4743    0.9403    2.0762 C   0  0  0  0  0  0  0  0  0  0  0  0
   -0.4181    1.6106    2.9314 C   0  0  0  0  0  0  0  0  0  0  0  0
   -0.3723    1.3890    4.3308 C   0  0  0  0  0  0  0  0  0  0  0  0
   -1.2439    2.0194    5.2539 N   0  0  0  0  0  0  0  0  0  0  0  0
   -1.2982    1.9586    6.6439 C   0  0  0  0  0  0  0  0  0  0  0  0
   -2.3352    2.7750    7.0173 C   0  0  0  0  0  0  0  0  0  0  0  0
   -2.9156    3.3397    5.8898 N   0  0  0  0  0  0  0  0  0  0  0  0
   -2.2186    2.8534    4.8696 C   0  0  0  0  0  0  0  0  0  0  0  0
    0.5842    0.4811    4.8413 C   0  0  0  0  0  0  0  0  0  0  0  0
    1.4742   -0.1861    3.9851 C   0  0  0  0  0  0  0  0  0  0  0  0
    3.9489   -0.8092   -0.5284 O   0  0  0  0  0  0  0  0  0  0  0  0
    4.3529   -1.4804   -1.6142 C   0  0  0  0  0  0  0  0  0  0  0  0
    4.2223   -1.1828   -2.8012 O   0  0  0  0  0  0  0  0  0  0  0  0
    4.1546   -3.0202    0.1650 C   0  0  0  0  0  0  0  0  0  0  0  0
    2.6963   -3.4415   -0.1863 C   0  0  0  0  0  0  0  0  0  0  0  0
    4.6941   -4.0915    1.1616 C   0  0  0  0  0  0  0  0  0  0  0  0
    5.4706   -4.7755   -1.5298 H   0  0  0  0  0  0  0  0  0  0  0  0
    5.9820   -3.6600   -2.8004 H   0  0  0  0  0  0  0  0  0  0  0  0
    4.2779   -4.0732   -2.5802 H   0  0  0  0  0  0  0  0  0  0  0  0
    6.9925   -3.0314   -0.0553 H   0  0  0  0  0  0  0  0  0  0  0  0
    6.9675   -1.6247   -1.0851 H   0  0  0  0  0  0  0  0  0  0  0  0
    6.2152   -1.7227    1.7494 H   0  0  0  0  0  0  0  0  0  0  0  0
    6.1267   -0.3037    0.7206 H   0  0  0  0  0  0  0  0  0  0  0  0
    2.0382   -0.4690    0.6931 H   0  0  0  0  0  0  0  0  0  0  0  0
    0.4253    1.1283    1.0139 H   0  0  0  0  0  0  0  0  0  0  0  0
   -1.1175    2.2923    2.4747 H   0  0  0  0  0  0  0  0  0  0  0  0
   -0.6239    1.3843    7.2622 H   0  0  0  0  0  0  0  0  0  0  0  0
   -2.7067    3.0082    8.0002 H   0  0  0  0  0  0  0  0  0  0  0  0
   -2.4484    3.1157    3.8510 H   0  0  0  0  0  0  0  0  0  0  0  0
    0.6598    0.2784    5.9004 H   0  0  0  0  0  0  0  0  0  0  0  0
    2.1731   -0.8677    4.4495 H   0  0  0  0  0  0  0  0  0  0  0  0
    2.0922   -3.5382    0.7124 H   0  0  0  0  0  0  0  0  0  0  0  0
    2.6632   -4.3999   -0.7011 H   0  0  0  0  0  0  0  0  0  0  0  0
    2.1784   -2.7345   -0.8293 H   0  0  0  0  0  0  0  0  0  0  0  0
    4.0592   -4.1607    2.0435 H   0  0  0  0  0  0  0  0  0  0  0  0
    5.6950   -3.9091    1.5441 H   0  0  0  0  0  0  0  0  0  0  0  0
    4.7221   -5.0787    0.7051 H   0  0  0  0  0  0  0  0  0  0  0  0
  2  1  1  6
  1 26  1  0
  1 27  1  0
  1 28  1  0
  2 21  1  0
  2 23  1  0
  2  3  1  0
  3  4  1  0
  3 29  1  0
  3 30  1  0
  4  5  1  0
  4 31  1  0
  4 32  1  0
  5  6  1  1
  5 20  1  0
  5 23  1  0
  6  7  2  0
  6  8  1  0
  8  9  1  0
  8 33  1  0
  9 19  1  0
  9 10  2  0
 10 11  1  0
 10 34  1  0
 11 12  2  0
 11 35  1  0
 12 13  1  0
 12 18  1  0
 13 17  1  0
 13 14  1  0
 14 15  2  0
 14 36  1  0
 15 16  1  0
 15 37  1  0
 16 17  2  0
 17 38  1  0
 18 19  2  0
 18 39  1  0
 19 40  1  0
 20 21  1  0
 21 22  2  0
 23 24  1  0
 23 25  1  0
 24 41  1  0
 24 42  1  0
 24 43  1  0
 25 44  1  0
 25 45  1  0
 25 46  1  0
M  END
>  <i_m_ct_stereo_status>  (142) 
1

>  <s_m_source_file>  (142) 
/var/tmp/pbs.5076255.sched01/tmpio9qf6gp/4214r_5_m5.sdf

>  <i_m_source_file_index>  (142) 
16

>  <i_lp_mmshare_version>  (142) 
48012

>  <i_f3d_flags>  (142) 
0

>  <s_epik_input>  (142) 
W0NIM11bQ0BAXTEyW0NIMl1bQ0gyXVtDQEBdKE9DMT1PKShDMihbQ0gzXSlbQ0gzXSlDKD1PKVtOSF1jM1tjSF1bY0hdYyhbY0hdW2NIXTMpLW40W2NIXVtjSF1uW2NIXTQ=

>  <s_epik_cmdline>  (142) 
J2VwaWtfcHl0aG9uJywgJy1waHQnLCAnMi4wJywgJy1waCcsICc3LjAnLCAnLXRuJywgJzgnLCAnLW1hJywgJzIwMCcsICctaW1hZScsICc8aW5maWxlLm1hZT4nLCAnLW9tYWUnLCAnPG91dGZpbGUubWFlPic=

>  <r_lp_tautomer_probability>  (142) 
1

>  <r_epik_Ionization_Penalty>  (142) 
0.02186

>  <r_epik_Ionization_Penalty_Charging>  (142) 
0.0218596

>  <r_epik_Ionization_Penalty_Neutral>  (142) 
4.3817e-07

>  <r_epik_State_Penalty>  (142) 
0.0176044

>  <r_epik_Charging_Adjusted_Penalty>  (142) 
0.0394639

>  <i_epik_Tot_Q>  (142) 
0

>  <i_epik_Tot_abs_Q>  (142) 
0

>  <s_epik_Chemistry_Notes>  (142) 
This compound has an ester and may undergo hydrolysis at high or low pH.

>  <s_lp_Force_Field>  (142) 
OPLS3e

>  <r_lp_Energy>  (142) 
50.9892

>  <b_lp_Chiralities_Consistent>  (142) 
1

>  <s_lp_Variant>  (142) 
42:0-1

>  <s_i_glide_gridfile>  (142) 
pfpi4k_grid

>  <i_i_glide_lignum>  (142) 
16

>  <i_i_glide_rotatable_bonds>  (142) 
4

>  <r_i_docking_score>  (142) 
-3.43062

>  <r_i_glide_ligand_efficiency>  (142) 
-0.137225

>  <r_i_glide_ligand_efficiency_sa>  (142) 
-0.401248

>  <r_i_glide_ligand_efficiency_ln>  (142) 
-0.813161

>  <r_i_glide_gscore>  (142) 
-3.43062

>  <r_i_glide_lipo>  (142) 
-0.293333

>  <r_i_glide_hbond>  (142) 
-0.146442

>  <r_i_glide_metal>  (142) 
-0

>  <r_i_glide_rewards>  (142) 
-1.09508

>  <r_i_glide_evdw>  (142) 
-31.2118

>  <r_i_glide_ecoul>  (142) 
-5.61379

>  <r_i_glide_erotb>  (142) 
0.657174

>  <r_i_glide_esite>  (142) 
-0.150288

>  <r_i_glide_emodel>  (142) 
-45.5077

>  <r_i_glide_energy>  (142) 
-36.8255

>  <r_i_glide_einternal>  (142) 
0.83129

>  <r_i_glide_intrahb_reward>  (142) 
-0

>  <i_i_glide_confnum>  (142) 
5

>  <i_i_glide_posenum>  (142) 
38

>  <r_i_glide_eff_state_penalty>  (142) 
0

>  <ligand_id>  (142) 
42

>  <original_smiles>  (142) 
CC12CCC(C(=O)Nc3ccc(-n4ccnc4)cc3)(OC1=O)C2(C)C

>  <smiles>  (142) 
[H]c1nc([H])n(-c2c([H])c([H])c(N([H])C(=O)C34OC(=O)C(C([H])([H])[H])(C([H])([H])C3([H])[H])C4(C([H])([H])[H])C([H])([H])[H])c([H])c2[H])c1[H]

$$$$
42:1:0
     RDKit          3D

 47 50  0  0  1  0  0  0  0  0999 V2000
   -2.3796    3.0658    5.7572 C   0  0  0  0  0  0  0  0  0  0  0  0
   -1.0568    2.2866    5.6923 C   0  0  1  0  0  0  0  0  0  0  0  0
   -0.0131    2.6384    6.7898 C   0  0  0  0  0  0  0  0  0  0  0  0
    1.2918    2.0098    6.2356 C   0  0  0  0  0  0  0  0  0  0  0  0
    0.7957    1.4104    4.8887 C   0  0  1  0  0  0  0  0  0  0  0  0
    1.9012    1.0537    3.8844 C   0  0  0  0  0  0  0  0  0  0  0  0
    2.8716    1.7993    3.7913 O   0  0  0  0  0  0  0  0  0  0  0  0
    1.7329   -0.0731    3.1691 N   0  0  0  0  0  0  0  0  0  0  0  0
    2.5433   -0.5999    2.1291 C   0  0  0  0  0  0  0  0  0  0  0  0
    3.5727    0.1268    1.4857 C   0  0  0  0  0  0  0  0  0  0  0  0
    4.3458   -0.4666    0.4735 C   0  0  0  0  0  0  0  0  0  0  0  0
    4.0772   -1.7864    0.0619 C   0  0  0  0  0  0  0  0  0  0  0  0
    4.8407   -2.3743   -0.9684 N   0  0  0  0  0  0  0  0  0  0  0  0
    4.3279   -3.0228   -2.0695 C   0  0  0  0  0  0  0  0  0  0  0  0
    5.3959   -3.4498   -2.8192 C   0  0  0  0  0  0  0  0  0  0  0  0
    6.5235   -3.0450   -2.1606 N   0  0  0  0  0  0  0  0  0  0  0  0
    6.1799   -2.3978   -1.0311 C   0  0  0  0  0  0  0  0  0  0  0  0
    3.0362   -2.5150    0.6760 C   0  0  0  0  0  0  0  0  0  0  0  0
    2.2790   -1.9182    1.7047 C   0  0  0  0  0  0  0  0  0  0  0  0
   -0.0346    0.2923    5.2465 O   0  0  0  0  0  0  0  0  0  0  0  0
   -1.1994    0.7572    5.7284 C   0  0  0  0  0  0  0  0  0  0  0  0
   -2.1762    0.1135    6.1185 O   0  0  0  0  0  0  0  0  0  0  0  0
   -0.2533    2.4341    4.3834 C   0  0  0  0  0  0  0  0  0  0  0  0
   -1.0116    1.9970    3.0883 C   0  0  0  0  0  0  0  0  0  0  0  0
    0.3112    3.8601    4.1095 C   0  0  0  0  0  0  0  0  0  0  0  0
   -2.2287    4.1107    5.4952 H   0  0  0  0  0  0  0  0  0  0  0  0
   -2.8262    3.0347    6.7497 H   0  0  0  0  0  0  0  0  0  0  0  0
   -3.1019    2.6686    5.0476 H   0  0  0  0  0  0  0  0  0  0  0  0
    0.0837    3.7164    6.9127 H   0  0  0  0  0  0  0  0  0  0  0  0
   -0.2757    2.2340    7.7697 H   0  0  0  0  0  0  0  0  0  0  0  0
    2.0686    2.7599    6.0860 H   0  0  0  0  0  0  0  0  0  0  0  0
    1.7065    1.2454    6.8959 H   0  0  0  0  0  0  0  0  0  0  0  0
    0.9213   -0.6137    3.4197 H   0  0  0  0  0  0  0  0  0  0  0  0
    3.7915    1.1509    1.7284 H   0  0  0  0  0  0  0  0  0  0  0  0
    5.1232    0.1169    0.0043 H   0  0  0  0  0  0  0  0  0  0  0  0
    3.2569   -3.1356   -2.2363 H   0  0  0  0  0  0  0  0  0  0  0  0
    5.4237   -4.0019   -3.7502 H   0  0  0  0  0  0  0  0  0  0  0  0
    6.8541   -1.9822   -0.2987 H   0  0  0  0  0  0  0  0  0  0  0  0
    2.8170   -3.5240    0.3597 H   0  0  0  0  0  0  0  0  0  0  0  0
    1.4811   -2.4798    2.1627 H   0  0  0  0  0  0  0  0  0  0  0  0
   -0.3714    2.0570    2.2083 H   0  0  0  0  0  0  0  0  0  0  0  0
   -1.8640    2.6459    2.8905 H   0  0  0  0  0  0  0  0  0  0  0  0
   -1.4020    0.9785    3.1014 H   0  0  0  0  0  0  0  0  0  0  0  0
    0.9552    3.8658    3.2309 H   0  0  0  0  0  0  0  0  0  0  0  0
    0.9126    4.2838    4.9118 H   0  0  0  0  0  0  0  0  0  0  0  0
   -0.4852    4.5769    3.9190 H   0  0  0  0  0  0  0  0  0  0  0  0
    7.4727   -3.2075   -2.4815 H   0  0  0  0  0  0  0  0  0  0  0  0
  2  1  1  6
  1 26  1  0
  1 27  1  0
  1 28  1  0
  2 21  1  0
  2 23  1  0
  2  3  1  0
  3  4  1  0
  3 29  1  0
  3 30  1  0
  4  5  1  0
  4 31  1  0
  4 32  1  0
  5  6  1  6
  5 20  1  0
  5 23  1  0
  6  7  2  0
  6  8  1  0
  8  9  1  0
  8 33  1  0
  9 19  1  0
  9 10  2  0
 10 11  1  0
 10 34  1  0
 11 12  2  0
 11 35  1  0
 12 13  1  0
 12 18  1  0
 13 17  1  0
 13 14  1  0
 14 15  2  0
 14 36  1  0
 15 16  1  0
 15 37  1  0
 16 17  2  0
 16 47  1  0
 17 38  1  0
 18 19  2  0
 18 39  1  0
 19 40  1  0
 20 21  1  0
 21 22  2  0
 23 24  1  0
 23 25  1  0
 24 41  1  0
 24 42  1  0
 24 43  1  0
 25 44  1  0
 25 45  1  0
 25 46  1  0
M  CHG  1  16   1
M  END
>  <i_m_ct_stereo_status>  (143) 
1

>  <s_m_source_file>  (143) 
/var/tmp/pbs.5076255.sched01/tmpio9qf6gp/4214r_5_m5.sdf

>  <i_m_source_file_index>  (143) 
17

>  <i_lp_mmshare_version>  (143) 
48012

>  <i_f3d_flags>  (143) 
0

>  <s_epik_input>  (143) 
W0NIM11bQ0BAXTEyW0NIMl1bQ0gyXVtDQEBdKE9DMT1PKShDMihbQ0gzXSlbQ0gzXSlDKD1PKVtOSF1jM1tjSF1bY0hdYyhbY0hdW2NIXTMpLW40W2NIXVtjSF1uW2NIXTQ=

>  <s_epik_cmdline>  (143) 
J2VwaWtfcHl0aG9uJywgJy1waHQnLCAnMi4wJywgJy1waCcsICc3LjAnLCAnLXRuJywgJzgnLCAnLW1hJywgJzIwMCcsICctaW1hZScsICc8aW5maWxlLm1hZT4nLCAnLW9tYWUnLCAnPG91dGZpbGUubWFlPic=

>  <r_lp_tautomer_probability>  (143) 
1

>  <r_epik_Ionization_Penalty>  (143) 
1.96591

>  <r_epik_Ionization_Penalty_Charging>  (143) 
0

>  <r_epik_Ionization_Penalty_Neutral>  (143) 
1.96591

>  <r_epik_State_Penalty>  (143) 
2.09207

>  <r_epik_Charging_Adjusted_Penalty>  (143) 
2.09207

>  <i_epik_Tot_Q>  (143) 
1

>  <i_epik_Tot_abs_Q>  (143) 
1

>  <s_epik_Chemistry_Notes>  (143) 
This compound has an ester and may undergo hydrolysis at high or low pH.

>  <s_lp_Force_Field>  (143) 
OPLS3e

>  <r_lp_Energy>  (143) 
56.8547

>  <b_lp_Chiralities_Consistent>  (143) 
1

>  <s_lp_Variant>  (143) 
42:0-2

>  <s_i_glide_gridfile>  (143) 
pfpi4k_grid

>  <i_i_glide_lignum>  (143) 
17

>  <i_i_glide_rotatable_bonds>  (143) 
4

>  <r_i_docking_score>  (143) 
-3.51426

>  <r_i_glide_ligand_efficiency>  (143) 
-0.140571

>  <r_i_glide_ligand_efficiency_sa>  (143) 
-0.411031

>  <r_i_glide_ligand_efficiency_ln>  (143) 
-0.832986

>  <r_i_glide_gscore>  (143) 
-3.51426

>  <r_i_glide_lipo>  (143) 
-0.405266

>  <r_i_glide_hbond>  (143) 
-0.16

>  <r_i_glide_metal>  (143) 
-0

>  <r_i_glide_rewards>  (143) 
-1.08821

>  <r_i_glide_evdw>  (143) 
-27.5861

>  <r_i_glide_ecoul>  (143) 
-6.8906

>  <r_i_glide_erotb>  (143) 
0.653729

>  <r_i_glide_esite>  (143) 
-0.101626

>  <r_i_glide_emodel>  (143) 
-41.4245

>  <r_i_glide_energy>  (143) 
-34.4767

>  <r_i_glide_einternal>  (143) 
1.37495

>  <r_i_glide_intrahb_reward>  (143) 
-0

>  <i_i_glide_confnum>  (143) 
5

>  <i_i_glide_posenum>  (143) 
18

>  <r_i_glide_eff_state_penalty>  (143) 
0

>  <ligand_id>  (143) 
42

>  <original_smiles>  (143) 
CC12CCC(C(=O)Nc3ccc(-n4ccnc4)cc3)(OC1=O)C2(C)C

>  <smiles>  (143) 
[H]c1c([H])c(-n2c([H])c([H])[n+]([H])c2[H])c([H])c([H])c1N([H])C(=O)C12OC(=O)C(C([H])([H])[H])(C([H])([H])C1([H])[H])C2(C([H])([H])[H])C([H])([H])[H]

$$$$
42:1:1
     RDKit          3D

 47 50  0  0  1  0  0  0  0  0999 V2000
    4.8735   -3.8437   -3.1413 C   0  0  0  0  0  0  0  0  0  0  0  0
    5.0018   -2.7560   -2.0692 C   0  0  1  0  0  0  0  0  0  0  0  0
    6.4344   -2.4961   -1.5252 C   0  0  0  0  0  0  0  0  0  0  0  0
    6.1681   -1.6591   -0.2455 C   0  0  0  0  0  0  0  0  0  0  0  0
    4.6132   -1.5945   -0.2402 C   0  0  1  0  0  0  0  0  0  0  0  0
    3.9878   -1.1541    1.0971 C   0  0  0  0  0  0  0  0  0  0  0  0
    4.6320   -1.3043    2.1312 O   0  0  0  0  0  0  0  0  0  0  0  0
    2.7452   -0.6392    1.0524 N   0  0  0  0  0  0  0  0  0  0  0  0
    1.9839   -0.0483    2.0885 C   0  0  0  0  0  0  0  0  0  0  0  0
    2.2128   -0.2642    3.4669 C   0  0  0  0  0  0  0  0  0  0  0  0
    1.4217    0.3833    4.4319 C   0  0  0  0  0  0  0  0  0  0  0  0
    0.3783    1.2451    4.0305 C   0  0  0  0  0  0  0  0  0  0  0  0
   -0.4171    1.8982    4.9970 N   0  0  0  0  0  0  0  0  0  0  0  0
   -1.7373    2.2715    4.8331 C   0  0  0  0  0  0  0  0  0  0  0  0
   -2.1377    2.8743    6.0043 C   0  0  0  0  0  0  0  0  0  0  0  0
   -1.0562    2.8434    6.8410 N   0  0  0  0  0  0  0  0  0  0  0  0
   -0.0202    2.2563    6.2285 C   0  0  0  0  0  0  0  0  0  0  0  0
    0.1285    1.4451    2.6555 C   0  0  0  0  0  0  0  0  0  0  0  0
    0.9257    0.7936    1.6995 C   0  0  0  0  0  0  0  0  0  0  0  0
    4.2725   -0.7262   -1.3366 O   0  0  0  0  0  0  0  0  0  0  0  0
    4.4541   -1.3836   -2.4917 C   0  0  0  0  0  0  0  0  0  0  0  0
    4.2229   -1.0011   -3.6393 O   0  0  0  0  0  0  0  0  0  0  0  0
    4.1838   -2.9853   -0.7789 C   0  0  0  0  0  0  0  0  0  0  0  0
    2.6547   -3.1464   -1.0057 C   0  0  0  0  0  0  0  0  0  0  0  0
    4.6246   -4.1886    0.0995 C   0  0  0  0  0  0  0  0  0  0  0  0
    5.0213   -4.8294   -2.7044 H   0  0  0  0  0  0  0  0  0  0  0  0
    5.6055   -3.7145   -3.9355 H   0  0  0  0  0  0  0  0  0  0  0  0
    3.8778   -3.8535   -3.5857 H   0  0  0  0  0  0  0  0  0  0  0  0
    6.9455   -3.4295   -1.2975 H   0  0  0  0  0  0  0  0  0  0  0  0
    7.0663   -1.9752   -2.2459 H   0  0  0  0  0  0  0  0  0  0  0  0
    6.5640   -2.1494    0.6428 H   0  0  0  0  0  0  0  0  0  0  0  0
    6.6083   -0.6602   -0.2731 H   0  0  0  0  0  0  0  0  0  0  0  0
    2.2979   -0.6483    0.1404 H   0  0  0  0  0  0  0  0  0  0  0  0
    2.9864   -0.9278    3.8164 H   0  0  0  0  0  0  0  0  0  0  0  0
    1.6329    0.1989    5.4775 H   0  0  0  0  0  0  0  0  0  0  0  0
   -2.2912    2.0830    3.9156 H   0  0  0  0  0  0  0  0  0  0  0  0
   -3.0897    3.3026    6.2811 H   0  0  0  0  0  0  0  0  0  0  0  0
    0.9602    2.1064    6.6555 H   0  0  0  0  0  0  0  0  0  0  0  0
   -0.6587    2.1032    2.3078 H   0  0  0  0  0  0  0  0  0  0  0  0
    0.7118    0.9470    0.6526 H   0  0  0  0  0  0  0  0  0  0  0  0
    2.1073   -3.2015   -0.0631 H   0  0  0  0  0  0  0  0  0  0  0  0
    2.4074   -4.0500   -1.5646 H   0  0  0  0  0  0  0  0  0  0  0  0
    2.2199   -2.3217   -1.5695 H   0  0  0  0  0  0  0  0  0  0  0  0
    4.0743   -4.2073    1.0393 H   0  0  0  0  0  0  0  0  0  0  0  0
    5.6737   -4.2000    0.3798 H   0  0  0  0  0  0  0  0  0  0  0  0
    4.4398   -5.1335   -0.4087 H   0  0  0  0  0  0  0  0  0  0  0  0
   -1.0312    3.2130    7.7824 H   0  0  0  0  0  0  0  0  0  0  0  0
  2  1  1  6
  1 26  1  0
  1 27  1  0
  1 28  1  0
  2 21  1  0
  2 23  1  0
  2  3  1  0
  3  4  1  0
  3 29  1  0
  3 30  1  0
  4  5  1  0
  4 31  1  0
  4 32  1  0
  5  6  1  1
  5 20  1  0
  5 23  1  0
  6  7  2  0
  6  8  1  0
  8  9  1  0
  8 33  1  0
  9 19  1  0
  9 10  2  0
 10 11  1  0
 10 34  1  0
 11 12  2  0
 11 35  1  0
 12 13  1  0
 12 18  1  0
 13 17  1  0
 13 14  1  0
 14 15  2  0
 14 36  1  0
 15 16  1  0
 15 37  1  0
 16 17  2  0
 16 47  1  0
 17 38  1  0
 18 19  2  0
 18 39  1  0
 19 40  1  0
 20 21  1  0
 21 22  2  0
 23 24  1  0
 23 25  1  0
 24 41  1  0
 24 42  1  0
 24 43  1  0
 25 44  1  0
 25 45  1  0
 25 46  1  0
M  CHG  1  16   1
M  END
>  <i_m_ct_stereo_status>  (144) 
1

>  <s_m_source_file>  (144) 
/var/tmp/pbs.5076255.sched01/tmpio9qf6gp/4214r_5_m5.sdf

>  <i_m_source_file_index>  (144) 
17

>  <i_lp_mmshare_version>  (144) 
48012

>  <i_f3d_flags>  (144) 
0

>  <s_epik_input>  (144) 
W0NIM11bQ0BAXTEyW0NIMl1bQ0gyXVtDQEBdKE9DMT1PKShDMihbQ0gzXSlbQ0gzXSlDKD1PKVtOSF1jM1tjSF1bY0hdYyhbY0hdW2NIXTMpLW40W2NIXVtjSF1uW2NIXTQ=

>  <s_epik_cmdline>  (144) 
J2VwaWtfcHl0aG9uJywgJy1waHQnLCAnMi4wJywgJy1waCcsICc3LjAnLCAnLXRuJywgJzgnLCAnLW1hJywgJzIwMCcsICctaW1hZScsICc8aW5maWxlLm1hZT4nLCAnLW9tYWUnLCAnPG91dGZpbGUubWFlPic=

>  <r_lp_tautomer_probability>  (144) 
1

>  <r_epik_Ionization_Penalty>  (144) 
1.96591

>  <r_epik_Ionization_Penalty_Charging>  (144) 
0

>  <r_epik_Ionization_Penalty_Neutral>  (144) 
1.96591

>  <r_epik_State_Penalty>  (144) 
2.09207

>  <r_epik_Charging_Adjusted_Penalty>  (144) 
2.09207

>  <i_epik_Tot_Q>  (144) 
1

>  <i_epik_Tot_abs_Q>  (144) 
1

>  <s_epik_Chemistry_Notes>  (144) 
This compound has an ester and may undergo hydrolysis at high or low pH.

>  <s_lp_Force_Field>  (144) 
OPLS3e

>  <r_lp_Energy>  (144) 
56.8547

>  <b_lp_Chiralities_Consistent>  (144) 
1

>  <s_lp_Variant>  (144) 
42:0-2

>  <s_i_glide_gridfile>  (144) 
pfpi4k_grid

>  <i_i_glide_lignum>  (144) 
17

>  <i_i_glide_rotatable_bonds>  (144) 
4

>  <r_i_docking_score>  (144) 
-3.24328

>  <r_i_glide_ligand_efficiency>  (144) 
-0.129731

>  <r_i_glide_ligand_efficiency_sa>  (144) 
-0.379336

>  <r_i_glide_ligand_efficiency_ln>  (144) 
-0.768754

>  <r_i_glide_gscore>  (144) 
-3.24328

>  <r_i_glide_lipo>  (144) 
-0.186424

>  <r_i_glide_hbond>  (144) 
-0.145751

>  <r_i_glide_metal>  (144) 
-0

>  <r_i_glide_rewards>  (144) 
-1.08821

>  <r_i_glide_evdw>  (144) 
-30.4823

>  <r_i_glide_ecoul>  (144) 
-5.51931

>  <r_i_glide_erotb>  (144) 
0.653729

>  <r_i_glide_esite>  (144) 
-0.124613

>  <r_i_glide_emodel>  (144) 
-42.3188

>  <r_i_glide_energy>  (144) 
-36.0017

>  <r_i_glide_einternal>  (144) 
1.30505

>  <r_i_glide_intrahb_reward>  (144) 
-0

>  <i_i_glide_confnum>  (144) 
6

>  <i_i_glide_posenum>  (144) 
6

>  <r_i_glide_eff_state_penalty>  (144) 
0

>  <ligand_id>  (144) 
42

>  <original_smiles>  (144) 
CC12CCC(C(=O)Nc3ccc(-n4ccnc4)cc3)(OC1=O)C2(C)C

>  <smiles>  (144) 
[H]c1c([H])c(-n2c([H])c([H])[n+]([H])c2[H])c([H])c([H])c1N([H])C(=O)C12OC(=O)C(C([H])([H])[H])(C([H])([H])C1([H])[H])C2(C([H])([H])[H])C([H])([H])[H]

$$$$
42:1:2
     RDKit          3D

 47 50  0  0  1  0  0  0  0  0999 V2000
    5.0199   -3.8410   -2.8131 C   0  0  0  0  0  0  0  0  0  0  0  0
    5.0824   -2.7088   -1.7812 C   0  0  1  0  0  0  0  0  0  0  0  0
    6.4870   -2.3816   -1.2001 C   0  0  0  0  0  0  0  0  0  0  0  0
    6.1524   -1.5038    0.0371 C   0  0  0  0  0  0  0  0  0  0  0  0
    4.5939   -1.4866   -0.0143 C   0  0  1  0  0  0  0  0  0  0  0  0
    3.8984   -1.0150    1.2760 C   0  0  0  0  0  0  0  0  0  0  0  0
    4.5192   -1.0722    2.3371 O   0  0  0  0  0  0  0  0  0  0  0  0
    2.6287   -0.5837    1.1737 N   0  0  0  0  0  0  0  0  0  0  0  0
    1.8169    0.0291    2.1534 C   0  0  0  0  0  0  0  0  0  0  0  0
    1.9869   -0.1508    3.5429 C   0  0  0  0  0  0  0  0  0  0  0  0
    1.1304    0.4962    4.4521 C   0  0  0  0  0  0  0  0  0  0  0  0
    0.0854    1.3252    3.9776 C   0  0  0  0  0  0  0  0  0  0  0  0
   -0.7694    1.9828    4.8865 N   0  0  0  0  0  0  0  0  0  0  0  0
   -0.4463    2.3419    6.1806 C   0  0  0  0  0  0  0  0  0  0  0  0
   -1.5502    2.9486    6.7282 C   0  0  0  0  0  0  0  0  0  0  0  0
   -2.5107    2.9462    5.7518 N   0  0  0  0  0  0  0  0  0  0  0  0
   -2.0357    2.3664    4.6425 C   0  0  0  0  0  0  0  0  0  0  0  0
   -0.0969    1.4845    2.5856 C   0  0  0  0  0  0  0  0  0  0  0  0
    0.7634    0.8329    1.6861 C   0  0  0  0  0  0  0  0  0  0  0  0
    4.2656   -0.6761   -1.1557 O   0  0  0  0  0  0  0  0  0  0  0  0
    4.5067   -1.3730   -2.2744 C   0  0  0  0  0  0  0  0  0  0  0  0
    4.3051   -1.0466   -3.4439 O   0  0  0  0  0  0  0  0  0  0  0  0
    4.2234   -2.9083   -0.5153 C   0  0  0  0  0  0  0  0  0  0  0  0
    2.7077   -3.1306   -0.7922 C   0  0  0  0  0  0  0  0  0  0  0  0
    4.6737   -4.0620    0.4276 C   0  0  0  0  0  0  0  0  0  0  0  0
    5.1955   -4.7958   -2.3251 H   0  0  0  0  0  0  0  0  0  0  0  0
    5.7709   -3.7212   -3.5920 H   0  0  0  0  0  0  0  0  0  0  0  0
    4.0409   -3.9049   -3.2894 H   0  0  0  0  0  0  0  0  0  0  0  0
    7.0183   -3.2893   -0.9162 H   0  0  0  0  0  0  0  0  0  0  0  0
    7.1218   -1.8686   -1.9225 H   0  0  0  0  0  0  0  0  0  0  0  0
    6.5299   -1.9498    0.9576 H   0  0  0  0  0  0  0  0  0  0  0  0
    6.5697   -0.4955   -0.0123 H   0  0  0  0  0  0  0  0  0  0  0  0
    2.1912   -0.6502    0.2577 H   0  0  0  0  0  0  0  0  0  0  0  0
    2.7606   -0.7848    3.9463 H   0  0  0  0  0  0  0  0  0  0  0  0
    1.2932    0.3441    5.5091 H   0  0  0  0  0  0  0  0  0  0  0  0
    0.5324    2.1506    6.6183 H   0  0  0  0  0  0  0  0  0  0  0  0
   -1.7040    3.3646    7.7135 H   0  0  0  0  0  0  0  0  0  0  0  0
   -2.5814    2.2171    3.7231 H   0  0  0  0  0  0  0  0  0  0  0  0
   -0.8771    2.1139    2.1802 H   0  0  0  0  0  0  0  0  0  0  0  0
    0.6148    0.9559    0.6259 H   0  0  0  0  0  0  0  0  0  0  0  0
    2.1403   -3.1704    0.1355 H   0  0  0  0  0  0  0  0  0  0  0  0
    2.5214   -4.0644   -1.3188 H   0  0  0  0  0  0  0  0  0  0  0  0
    2.2438   -2.3563   -1.4010 H   0  0  0  0  0  0  0  0  0  0  0  0
    4.0922   -4.0631    1.3481 H   0  0  0  0  0  0  0  0  0  0  0  0
    5.7135   -4.0294    0.7443 H   0  0  0  0  0  0  0  0  0  0  0  0
    4.5356   -5.0328   -0.0445 H   0  0  0  0  0  0  0  0  0  0  0  0
   -3.4429    3.3200    5.8525 H   0  0  0  0  0  0  0  0  0  0  0  0
  2  1  1  6
  1 26  1  0
  1 27  1  0
  1 28  1  0
  2 21  1  0
  2 23  1  0
  2  3  1  0
  3  4  1  0
  3 29  1  0
  3 30  1  0
  4  5  1  0
  4 31  1  0
  4 32  1  0
  5  6  1  1
  5 20  1  0
  5 23  1  0
  6  7  2  0
  6  8  1  0
  8  9  1  0
  8 33  1  0
  9 19  1  0
  9 10  2  0
 10 11  1  0
 10 34  1  0
 11 12  2  0
 11 35  1  0
 12 13  1  0
 12 18  1  0
 13 17  1  0
 13 14  1  0
 14 15  2  0
 14 36  1  0
 15 16  1  0
 15 37  1  0
 16 17  2  0
 16 47  1  0
 17 38  1  0
 18 19  2  0
 18 39  1  0
 19 40  1  0
 20 21  1  0
 21 22  2  0
 23 24  1  0
 23 25  1  0
 24 41  1  0
 24 42  1  0
 24 43  1  0
 25 44  1  0
 25 45  1  0
 25 46  1  0
M  CHG  1  16   1
M  END
>  <i_m_ct_stereo_status>  (145) 
1

>  <s_m_source_file>  (145) 
/var/tmp/pbs.5076255.sched01/tmpio9qf6gp/4214r_5_m5.sdf

>  <i_m_source_file_index>  (145) 
17

>  <i_lp_mmshare_version>  (145) 
48012

>  <i_f3d_flags>  (145) 
0

>  <s_epik_input>  (145) 
W0NIM11bQ0BAXTEyW0NIMl1bQ0gyXVtDQEBdKE9DMT1PKShDMihbQ0gzXSlbQ0gzXSlDKD1PKVtOSF1jM1tjSF1bY0hdYyhbY0hdW2NIXTMpLW40W2NIXVtjSF1uW2NIXTQ=

>  <s_epik_cmdline>  (145) 
J2VwaWtfcHl0aG9uJywgJy1waHQnLCAnMi4wJywgJy1waCcsICc3LjAnLCAnLXRuJywgJzgnLCAnLW1hJywgJzIwMCcsICctaW1hZScsICc8aW5maWxlLm1hZT4nLCAnLW9tYWUnLCAnPG91dGZpbGUubWFlPic=

>  <r_lp_tautomer_probability>  (145) 
1

>  <r_epik_Ionization_Penalty>  (145) 
1.96591

>  <r_epik_Ionization_Penalty_Charging>  (145) 
0

>  <r_epik_Ionization_Penalty_Neutral>  (145) 
1.96591

>  <r_epik_State_Penalty>  (145) 
2.09207

>  <r_epik_Charging_Adjusted_Penalty>  (145) 
2.09207

>  <i_epik_Tot_Q>  (145) 
1

>  <i_epik_Tot_abs_Q>  (145) 
1

>  <s_epik_Chemistry_Notes>  (145) 
This compound has an ester and may undergo hydrolysis at high or low pH.

>  <s_lp_Force_Field>  (145) 
OPLS3e

>  <r_lp_Energy>  (145) 
56.8547

>  <b_lp_Chiralities_Consistent>  (145) 
1

>  <s_lp_Variant>  (145) 
42:0-2

>  <s_i_glide_gridfile>  (145) 
pfpi4k_grid

>  <i_i_glide_lignum>  (145) 
17

>  <i_i_glide_rotatable_bonds>  (145) 
4

>  <r_i_docking_score>  (145) 
-3.21795

>  <r_i_glide_ligand_efficiency>  (145) 
-0.128718

>  <r_i_glide_ligand_efficiency_sa>  (145) 
-0.376374

>  <r_i_glide_ligand_efficiency_ln>  (145) 
-0.762751

>  <r_i_glide_gscore>  (145) 
-3.21795

>  <r_i_glide_lipo>  (145) 
-0.114787

>  <r_i_glide_hbond>  (145) 
-0.16

>  <r_i_glide_metal>  (145) 
-0

>  <r_i_glide_rewards>  (145) 
-1.08821

>  <r_i_glide_evdw>  (145) 
-29.7942

>  <r_i_glide_ecoul>  (145) 
-5.82924

>  <r_i_glide_erotb>  (145) 
0.653729

>  <r_i_glide_esite>  (145) 
-0.144591

>  <r_i_glide_emodel>  (145) 
-41.841

>  <r_i_glide_energy>  (145) 
-35.6234

>  <r_i_glide_einternal>  (145) 
1.36638

>  <r_i_glide_intrahb_reward>  (145) 
-0

>  <i_i_glide_confnum>  (145) 
1

>  <i_i_glide_posenum>  (145) 
20

>  <r_i_glide_eff_state_penalty>  (145) 
0

>  <ligand_id>  (145) 
42

>  <original_smiles>  (145) 
CC12CCC(C(=O)Nc3ccc(-n4ccnc4)cc3)(OC1=O)C2(C)C

>  <smiles>  (145) 
[H]c1c([H])c(-n2c([H])c([H])[n+]([H])c2[H])c([H])c([H])c1N([H])C(=O)C12OC(=O)C(C([H])([H])[H])(C([H])([H])C1([H])[H])C2(C([H])([H])[H])C([H])([H])[H]

$$$$
43:0:0
     RDKit          3D

 49 52  0  0  1  0  0  0  0  0999 V2000
    1.0154    0.1594    3.2253 C   0  0  0  0  0  0  0  0  0  0  0  0
    2.4198   -0.4063    2.9260 C   0  0  2  0  0  0  0  0  0  0  0  0
    3.0502    0.4629    1.8166 C   0  0  0  0  0  0  0  0  0  0  0  0
    4.2733   -0.1547    1.1378 C   0  0  0  0  0  0  0  0  0  0  0  0
    3.9194   -1.5160    0.5252 C   0  0  2  0  0  0  0  0  0  0  0  0
    3.4839   -2.4828    1.6606 C   0  0  2  0  0  0  0  0  0  0  0  0
    3.0536   -3.8367    1.0482 C   0  0  0  0  0  0  0  0  0  0  0  0
    4.1034   -4.4462    0.1087 C   0  0  0  0  0  0  0  0  0  0  0  0
    4.5173   -3.4659   -1.0060 C   0  0  1  0  0  0  0  0  0  0  0  0
    3.3820   -3.2947   -2.0510 C   0  0  0  0  0  0  0  0  0  0  0  0
    3.6736   -2.2290   -3.1019 C   0  0  0  0  0  0  0  0  0  0  0  0
    3.4945   -2.4204   -4.3024 O   0  0  0  0  0  0  0  0  0  0  0  0
    4.2143   -0.9168   -2.5701 C   0  0  0  0  0  0  0  0  0  0  0  0
    5.3764   -1.1975   -1.6065 C   0  0  0  0  0  0  0  0  0  0  0  0
    5.0296   -2.1214   -0.4099 C   0  0  1  0  0  0  0  0  0  0  0  0
    6.3627   -2.3483    0.3534 C   0  0  0  0  0  0  0  0  0  0  0  0
    2.3330   -1.9132    2.5559 C   0  0  1  0  0  0  0  0  0  0  0  0
    2.3262   -2.6242    3.9311 C   0  0  0  0  0  0  0  0  0  0  0  0
    3.2201   -1.7960    4.8661 C   0  0  0  0  0  0  0  0  0  0  0  0
    3.2136   -0.4166    4.2323 C   0  0  0  0  0  0  0  0  0  0  0  0
    3.7422    0.5714    4.7418 O   0  0  0  0  0  0  0  0  0  0  0  0
    0.3556    0.0380    2.3659 H   0  0  0  0  0  0  0  0  0  0  0  0
    1.0551    1.2249    3.4509 H   0  0  0  0  0  0  0  0  0  0  0  0
    0.5444   -0.3369    4.0725 H   0  0  0  0  0  0  0  0  0  0  0  0
    2.3024    0.6767    1.0548 H   0  0  0  0  0  0  0  0  0  0  0  0
    3.3403    1.4303    2.2199 H   0  0  0  0  0  0  0  0  0  0  0  0
    4.5931    0.5403    0.3688 H   0  0  0  0  0  0  0  0  0  0  0  0
    5.0994   -0.2293    1.8442 H   0  0  0  0  0  0  0  0  0  0  0  0
    3.0344   -1.3422   -0.0918 H   0  0  0  0  0  0  0  0  0  0  0  0
    4.3465   -2.6501    2.3095 H   0  0  0  0  0  0  0  0  0  0  0  0
    2.8262   -4.5552    1.8354 H   0  0  0  0  0  0  0  0  0  0  0  0
    2.1267   -3.6939    0.4939 H   0  0  0  0  0  0  0  0  0  0  0  0
    4.9726   -4.7527    0.6894 H   0  0  0  0  0  0  0  0  0  0  0  0
    3.7038   -5.3634   -0.3249 H   0  0  0  0  0  0  0  0  0  0  0  0
    5.3444   -3.9359   -1.5380 H   0  0  0  0  0  0  0  0  0  0  0  0
    3.2424   -4.2318   -2.5766 H   0  0  0  0  0  0  0  0  0  0  0  0
    2.4344   -3.0460   -1.5785 H   0  0  0  0  0  0  0  0  0  0  0  0
    4.5462   -0.2953   -3.4022 H   0  0  0  0  0  0  0  0  0  0  0  0
    3.4068   -0.3862   -2.0689 H   0  0  0  0  0  0  0  0  0  0  0  0
    6.1756   -1.6717   -2.1791 H   0  0  0  0  0  0  0  0  0  0  0  0
    5.7987   -0.2580   -1.2527 H   0  0  0  0  0  0  0  0  0  0  0  0
    7.1049   -2.8278   -0.2873 H   0  0  0  0  0  0  0  0  0  0  0  0
    6.2490   -2.9842    1.2307 H   0  0  0  0  0  0  0  0  0  0  0  0
    6.7959   -1.4067    0.6941 H   0  0  0  0  0  0  0  0  0  0  0  0
    1.3882   -2.0872    2.0390 H   0  0  0  0  0  0  0  0  0  0  0  0
    1.3118   -2.6406    4.3303 H   0  0  0  0  0  0  0  0  0  0  0  0
    2.6657   -3.6588    3.8859 H   0  0  0  0  0  0  0  0  0  0  0  0
    2.8404   -1.7688    5.8846 H   0  0  0  0  0  0  0  0  0  0  0  0
    4.2420   -2.1687    4.8929 H   0  0  0  0  0  0  0  0  0  0  0  0
  2  1  1  1
  1 22  1  0
  1 23  1  0
  1 24  1  0
  2 17  1  0
  2 20  1  0
  2  3  1  0
  3  4  1  0
  3 25  1  0
  3 26  1  0
  4  5  1  0
  4 27  1  0
  4 28  1  0
  5 15  1  0
  5  6  1  0
  5 29  1  6
  6  7  1  0
  6 17  1  0
  6 30  1  1
  7  8  1  0
  7 31  1  0
  7 32  1  0
  8  9  1  0
  8 33  1  0
  8 34  1  0
  9 15  1  0
  9 10  1  0
  9 35  1  6
 10 11  1  0
 10 36  1  0
 10 37  1  0
 11 12  2  0
 11 13  1  0
 13 14  1  0
 13 38  1  0
 13 39  1  0
 14 15  1  0
 14 40  1  0
 14 41  1  0
 15 16  1  1
 16 42  1  0
 16 43  1  0
 16 44  1  0
 17 18  1  0
 17 45  1  6
 18 19  1  0
 18 46  1  0
 18 47  1  0
 19 20  1  0
 19 48  1  0
 19 49  1  0
 20 21  2  0
M  END
>  <i_m_ct_stereo_status>  (146) 
1

>  <s_m_source_file>  (146) 
/var/tmp/pbs.5076255.sched01/tmpio9qf6gp/4214r_5_m5.sdf

>  <i_m_source_file_index>  (146) 
18

>  <i_lp_mmshare_version>  (146) 
48012

>  <i_f3d_flags>  (146) 
0

>  <s_epik_input>  (146) 
Tz1DMVtDSDJdW0NIMl1bQ0BASF0oW0NAQF0xMltDSDNdKVtDQEBIXTNbQ0BASF0oW0NIMl1bQ0gyXTIpW0NAQF00KFtDSDNdKVtDQEBIXShbQ0gyXVtDSDJdMylbQ0gyXUMoPU8pW0NIMl1bQ0gyXTQ=

>  <s_epik_cmdline>  (146) 
J2VwaWtfcHl0aG9uJywgJy1waHQnLCAnMi4wJywgJy1waCcsICc3LjAnLCAnLXRuJywgJzgnLCAnLW1hJywgJzIwMCcsICctaW1hZScsICc8aW5maWxlLm1hZT4nLCAnLW9tYWUnLCAnPG91dGZpbGUubWFlPic=

>  <r_lp_tautomer_probability>  (146) 
1

>  <r_epik_Ionization_Penalty>  (146) 
1.47608e-13

>  <r_epik_Ionization_Penalty_Charging>  (146) 
0

>  <r_epik_Ionization_Penalty_Neutral>  (146) 
1.47608e-13

>  <r_epik_State_Penalty>  (146) 
-0

>  <r_epik_Charging_Adjusted_Penalty>  (146) 
0

>  <i_epik_Tot_Q>  (146) 
0

>  <i_epik_Tot_abs_Q>  (146) 
0

>  <s_lp_Force_Field>  (146) 
OPLS3e

>  <r_lp_Energy>  (146) 
22.9296

>  <b_lp_Chiralities_Consistent>  (146) 
1

>  <s_lp_Variant>  (146) 
43:0-1

>  <s_i_glide_gridfile>  (146) 
pfpi4k_grid

>  <i_i_glide_lignum>  (146) 
18

>  <i_i_glide_rotatable_bonds>  (146) 
0

>  <r_i_docking_score>  (146) 
-3.90809

>  <r_i_glide_ligand_efficiency>  (146) 
-0.1861

>  <r_i_glide_ligand_efficiency_sa>  (146) 
-0.513434

>  <r_i_glide_ligand_efficiency_ln>  (146) 
-0.966267

>  <r_i_glide_gscore>  (146) 
-3.90809

>  <r_i_glide_lipo>  (146) 
-0.286478

>  <r_i_glide_hbond>  (146) 
-0.32

>  <r_i_glide_metal>  (146) 
-0

>  <r_i_glide_rewards>  (146) 
-1.58306

>  <r_i_glide_evdw>  (146) 
-24.5341

>  <r_i_glide_ecoul>  (146) 
-3.279

>  <r_i_glide_erotb>  (146) 
0

>  <r_i_glide_esite>  (146) 
0

>  <r_i_glide_emodel>  (146) 
-34.0626

>  <r_i_glide_energy>  (146) 
-27.8131

>  <r_i_glide_einternal>  (146) 
0

>  <r_i_glide_intrahb_reward>  (146) 
-0

>  <i_i_glide_confnum>  (146) 
1

>  <i_i_glide_posenum>  (146) 
1

>  <r_i_glide_eff_state_penalty>  (146) 
0

>  <ligand_id>  (146) 
43

>  <original_smiles>  (146) 
CC12CCC3C(CCC4CC(=O)CCC43C)C1CCC2=O

>  <smiles>  (146) 
[H]C([H])([H])C12C(=O)C([H])([H])C([H])([H])C1([H])C1([H])C([H])([H])C([H])([H])C3([H])C([H])([H])C(=O)C([H])([H])C([H])([H])C3(C([H])([H])[H])C1([H])C([H])([H])C2([H])[H]

$$$$
43:0:1
     RDKit          3D

 49 52  0  0  1  0  0  0  0  0999 V2000
    2.5801   -0.1818    4.3945 C   0  0  0  0  0  0  0  0  0  0  0  0
    3.6924   -1.0858    3.8246 C   0  0  2  0  0  0  0  0  0  0  0  0
    4.4908   -0.2616    2.7925 C   0  0  0  0  0  0  0  0  0  0  0  0
    5.3896   -1.0782    1.8637 C   0  0  0  0  0  0  0  0  0  0  0  0
    4.5579   -2.1232    1.1013 C   0  0  2  0  0  0  0  0  0  0  0  0
    3.9058   -3.1013    2.1185 C   0  0  2  0  0  0  0  0  0  0  0  0
    3.0077   -4.1069    1.3603 C   0  0  0  0  0  0  0  0  0  0  0  0
    3.7176   -4.8216    0.2025 C   0  0  0  0  0  0  0  0  0  0  0  0
    4.3489   -3.8304   -0.7918 C   0  0  1  0  0  0  0  0  0  0  0  0
    3.2558   -3.1281   -1.6477 C   0  0  0  0  0  0  0  0  0  0  0  0
    3.8181   -2.0161   -2.5280 C   0  0  0  0  0  0  0  0  0  0  0  0
    3.4923   -1.8882   -3.7096 O   0  0  0  0  0  0  0  0  0  0  0  0
    4.7965   -1.0616   -1.8654 C   0  0  0  0  0  0  0  0  0  0  0  0
    5.8745   -1.8644   -1.1232 C   0  0  0  0  0  0  0  0  0  0  0  0
    5.3249   -2.8546   -0.0611 C   0  0  1  0  0  0  0  0  0  0  0  0
    6.5541   -3.6308    0.4747 C   0  0  0  0  0  0  0  0  0  0  0  0
    3.0792   -2.3842    3.2348 C   0  0  1  0  0  0  0  0  0  0  0  0
    2.9395   -3.3121    4.4678 C   0  0  0  0  0  0  0  0  0  0  0  0
    4.1168   -3.0084    5.4013 C   0  0  0  0  0  0  0  0  0  0  0  0
    4.5257   -1.6120    4.9912 C   0  0  0  0  0  0  0  0  0  0  0  0
    5.3830   -0.9442    5.5854 O   0  0  0  0  0  0  0  0  0  0  0  0
    1.8514    0.0787    3.6233 H   0  0  0  0  0  0  0  0  0  0  0  0
    2.9852    0.7548    4.7810 H   0  0  0  0  0  0  0  0  0  0  0  0
    2.0341   -0.6576    5.2073 H   0  0  0  0  0  0  0  0  0  0  0  0
    3.7984    0.3320    2.1797 H   0  0  0  0  0  0  0  0  0  0  0  0
    5.1234    0.4454    3.3133 H   0  0  0  0  0  0  0  0  0  0  0  0
    5.8602   -0.3736    1.1739 H   0  0  0  0  0  0  0  0  0  0  0  0
    6.1980   -1.5449    2.4336 H   0  0  0  0  0  0  0  0  0  0  0  0
    3.7422   -1.5702    0.6440 H   0  0  0  0  0  0  0  0  0  0  0  0
    4.7066   -3.6519    2.6100 H   0  0  0  0  0  0  0  0  0  0  0  0
    2.6149   -4.8580    2.0464 H   0  0  0  0  0  0  0  0  0  0  0  0
    2.1481   -3.5730    0.9651 H   0  0  0  0  0  0  0  0  0  0  0  0
    4.4760   -5.4922    0.6038 H   0  0  0  0  0  0  0  0  0  0  0  0
    3.0077   -5.4637   -0.3195 H   0  0  0  0  0  0  0  0  0  0  0  0
    4.9339   -4.4252   -1.4929 H   0  0  0  0  0  0  0  0  0  0  0  0
    2.7520   -3.8531   -2.2792 H   0  0  0  0  0  0  0  0  0  0  0  0
    2.4896   -2.6814   -1.0160 H   0  0  0  0  0  0  0  0  0  0  0  0
    5.2415   -0.4217   -2.6238 H   0  0  0  0  0  0  0  0  0  0  0  0
    4.2610   -0.4111   -1.1785 H   0  0  0  0  0  0  0  0  0  0  0  0
    6.4304   -2.4332   -1.8690 H   0  0  0  0  0  0  0  0  0  0  0  0
    6.6093   -1.1947   -0.6734 H   0  0  0  0  0  0  0  0  0  0  0  0
    7.0497   -4.1827   -0.3237 H   0  0  0  0  0  0  0  0  0  0  0  0
    6.3014   -4.3563    1.2470 H   0  0  0  0  0  0  0  0  0  0  0  0
    7.3010   -2.9593    0.9018 H   0  0  0  0  0  0  0  0  0  0  0  0
    2.0904   -2.1538    2.8249 H   0  0  0  0  0  0  0  0  0  0  0  0
    2.0067   -3.0886    4.9874 H   0  0  0  0  0  0  0  0  0  0  0  0
    2.9045   -4.3786    4.2151 H   0  0  0  0  0  0  0  0  0  0  0  0
    3.8403   -3.0598    6.4561 H   0  0  0  0  0  0  0  0  0  0  0  0
    4.9570   -3.6780    5.2326 H   0  0  0  0  0  0  0  0  0  0  0  0
  2  1  1  1
  1 22  1  0
  1 23  1  0
  1 24  1  0
  2 17  1  0
  2 20  1  0
  2  3  1  0
  3  4  1  0
  3 25  1  0
  3 26  1  0
  4  5  1  0
  4 27  1  0
  4 28  1  0
  5 15  1  0
  5  6  1  0
  5 29  1  6
  6  7  1  0
  6 17  1  0
  6 30  1  1
  7  8  1  0
  7 31  1  0
  7 32  1  0
  8  9  1  0
  8 33  1  0
  8 34  1  0
  9 15  1  0
  9 10  1  0
  9 35  1  6
 10 11  1  0
 10 36  1  0
 10 37  1  0
 11 12  2  0
 11 13  1  0
 13 14  1  0
 13 38  1  0
 13 39  1  0
 14 15  1  0
 14 40  1  0
 14 41  1  0
 15 16  1  1
 16 42  1  0
 16 43  1  0
 16 44  1  0
 17 18  1  0
 17 45  1  6
 18 19  1  0
 18 46  1  0
 18 47  1  0
 19 20  1  0
 19 48  1  0
 19 49  1  0
 20 21  2  0
M  END
>  <i_m_ct_stereo_status>  (147) 
1

>  <s_m_source_file>  (147) 
/var/tmp/pbs.5076255.sched01/tmpio9qf6gp/4214r_5_m5.sdf

>  <i_m_source_file_index>  (147) 
18

>  <i_lp_mmshare_version>  (147) 
48012

>  <i_f3d_flags>  (147) 
0

>  <s_epik_input>  (147) 
Tz1DMVtDSDJdW0NIMl1bQ0BASF0oW0NAQF0xMltDSDNdKVtDQEBIXTNbQ0BASF0oW0NIMl1bQ0gyXTIpW0NAQF00KFtDSDNdKVtDQEBIXShbQ0gyXVtDSDJdMylbQ0gyXUMoPU8pW0NIMl1bQ0gyXTQ=

>  <s_epik_cmdline>  (147) 
J2VwaWtfcHl0aG9uJywgJy1waHQnLCAnMi4wJywgJy1waCcsICc3LjAnLCAnLXRuJywgJzgnLCAnLW1hJywgJzIwMCcsICctaW1hZScsICc8aW5maWxlLm1hZT4nLCAnLW9tYWUnLCAnPG91dGZpbGUubWFlPic=

>  <r_lp_tautomer_probability>  (147) 
1

>  <r_epik_Ionization_Penalty>  (147) 
1.47608e-13

>  <r_epik_Ionization_Penalty_Charging>  (147) 
0

>  <r_epik_Ionization_Penalty_Neutral>  (147) 
1.47608e-13

>  <r_epik_State_Penalty>  (147) 
-0

>  <r_epik_Charging_Adjusted_Penalty>  (147) 
0

>  <i_epik_Tot_Q>  (147) 
0

>  <i_epik_Tot_abs_Q>  (147) 
0

>  <s_lp_Force_Field>  (147) 
OPLS3e

>  <r_lp_Energy>  (147) 
22.9296

>  <b_lp_Chiralities_Consistent>  (147) 
1

>  <s_lp_Variant>  (147) 
43:0-1

>  <s_i_glide_gridfile>  (147) 
pfpi4k_grid

>  <i_i_glide_lignum>  (147) 
18

>  <i_i_glide_rotatable_bonds>  (147) 
0

>  <r_i_docking_score>  (147) 
-3.35357

>  <r_i_glide_ligand_efficiency>  (147) 
-0.159694

>  <r_i_glide_ligand_efficiency_sa>  (147) 
-0.440583

>  <r_i_glide_ligand_efficiency_ln>  (147) 
-0.829163

>  <r_i_glide_gscore>  (147) 
-3.35357

>  <r_i_glide_lipo>  (147) 
-0.36233

>  <r_i_glide_hbond>  (147) 
0

>  <r_i_glide_metal>  (147) 
-0

>  <r_i_glide_rewards>  (147) 
-1.46465

>  <r_i_glide_evdw>  (147) 
-24.5171

>  <r_i_glide_ecoul>  (147) 
-1.92068

>  <r_i_glide_erotb>  (147) 
0

>  <r_i_glide_esite>  (147) 
-0.0126285

>  <r_i_glide_emodel>  (147) 
-31.7553

>  <r_i_glide_energy>  (147) 
-26.4378

>  <r_i_glide_einternal>  (147) 
0

>  <r_i_glide_intrahb_reward>  (147) 
-0

>  <i_i_glide_confnum>  (147) 
2

>  <i_i_glide_posenum>  (147) 
32

>  <r_i_glide_eff_state_penalty>  (147) 
0

>  <ligand_id>  (147) 
43

>  <original_smiles>  (147) 
CC12CCC3C(CCC4CC(=O)CCC43C)C1CCC2=O

>  <smiles>  (147) 
[H]C([H])([H])C12C(=O)C([H])([H])C([H])([H])C1([H])C1([H])C([H])([H])C([H])([H])C3([H])C([H])([H])C(=O)C([H])([H])C([H])([H])C3(C([H])([H])[H])C1([H])C([H])([H])C2([H])[H]

$$$$
44:0:0
     RDKit          3D

 25 26  0  0  1  0  0  0  0  0999 V2000
    4.3834   -2.8932    3.4404 C   0  0  0  0  0  0  0  0  0  0  0  0
    4.3334   -2.1343    2.2010 N   0  0  0  0  0  0  0  0  0  0  0  0
    4.1263   -0.7766    2.0700 C   0  0  0  0  0  0  0  0  0  0  0  0
    4.1491   -0.3237    0.8428 N   0  0  0  0  0  0  0  0  0  0  0  0
    4.3527   -1.4610    0.0681 C   0  0  0  0  0  0  0  0  0  0  0  0
    4.4740   -1.6887   -1.3280 C   0  0  0  0  0  0  0  0  0  0  0  0
    4.4322   -0.6674   -2.2125 N   0  0  0  0  0  0  0  0  0  0  0  0
    4.0908   -0.9156   -3.6134 C   0  0  0  0  0  0  0  0  0  0  0  0
    3.5095    0.3321   -4.2972 C   0  0  0  0  0  0  0  0  0  0  0  0
    3.4122    0.1368   -5.6926 O   0  0  0  0  0  0  0  0  0  0  0  0
    4.6868   -2.9645   -1.7470 N   0  0  0  0  0  0  0  0  0  0  0  0
    4.7930   -3.9478   -0.8420 C   0  0  0  0  0  0  0  0  0  0  0  0
    4.7145   -3.8801    0.4873 N   0  0  0  0  0  0  0  0  0  0  0  0
    4.4778   -2.6012    0.9071 C   0  0  0  0  0  0  0  0  0  0  0  0
    4.5180    0.2978   -1.9237 H   0  0  0  0  0  0  0  0  0  0  0  0
    5.3476   -3.3955    3.5357 H   0  0  0  0  0  0  0  0  0  0  0  0
    3.5832   -3.6346    3.4579 H   0  0  0  0  0  0  0  0  0  0  0  0
    4.2547   -2.2197    4.2866 H   0  0  0  0  0  0  0  0  0  0  0  0
    3.9630   -0.1229    2.9152 H   0  0  0  0  0  0  0  0  0  0  0  0
    3.3696   -1.7275   -3.7116 H   0  0  0  0  0  0  0  0  0  0  0  0
    5.0090   -1.2330   -4.1237 H   0  0  0  0  0  0  0  0  0  0  0  0
    2.5140    0.5448   -3.9005 H   0  0  0  0  0  0  0  0  0  0  0  0
    4.1508    1.2029   -4.1579 H   0  0  0  0  0  0  0  0  0  0  0  0
    2.7326   -0.5001   -5.8608 H   0  0  0  0  0  0  0  0  0  0  0  0
    4.9910   -4.9346   -1.2421 H   0  0  0  0  0  0  0  0  0  0  0  0
  1 16  1  0
  1 17  1  0
  1 18  1  0
  1  2  1  0
  2  3  1  0
  2 14  1  0
  3  4  2  0
  3 19  1  0
  4  5  1  0
  5  6  1  0
  5 14  2  0
  6 11  2  0
  6  7  1  0
  7  8  1  0
  7 15  1  0
  8  9  1  0
  8 20  1  0
  8 21  1  0
  9 10  1  0
  9 22  1  0
  9 23  1  0
 10 24  1  0
 11 12  1  0
 12 25  1  0
 12 13  2  0
 13 14  1  0
M  END
>  <i_m_ct_stereo_status>  (148) 
1

>  <s_m_source_file>  (148) 
/var/tmp/pbs.5076255.sched01/tmpio9qf6gp/4214r_5_m5.sdf

>  <i_m_source_file_index>  (148) 
19

>  <i_lp_mmshare_version>  (148) 
48012

>  <i_f3d_flags>  (148) 
0

>  <s_epik_input>  (148) 
bjFbY0hdbihbQ0gzXSljKGMxMiluW2NIXVtuSF1jXDI9TlxbQ0gyXVtDSDJdW09IXQ==

>  <s_epik_cmdline>  (148) 
J2VwaWtfcHl0aG9uJywgJy1waHQnLCAnMi4wJywgJy1waCcsICc3LjAnLCAnLXRuJywgJzgnLCAnLW1hJywgJzIwMCcsICctaW1hZScsICc8aW5maWxlLm1hZT4nLCAnLW9tYWUnLCAnPG91dGZpbGUubWFlPic=

>  <r_lp_tautomer_probability>  (148) 
1

>  <r_epik_Ionization_Penalty>  (148) 
0.00219017

>  <r_epik_Ionization_Penalty_Charging>  (148) 
0

>  <r_epik_Ionization_Penalty_Neutral>  (148) 
0.00219017

>  <r_epik_State_Penalty>  (148) 
-0

>  <r_epik_Charging_Adjusted_Penalty>  (148) 
0

>  <i_epik_Tot_Q>  (148) 
0

>  <i_epik_Tot_abs_Q>  (148) 
0

>  <s_lp_Force_Field>  (148) 
OPLS3e

>  <r_lp_Energy>  (148) 
19.3547

>  <b_lp_Chiralities_Consistent>  (148) 
1

>  <s_lp_Variant>  (148) 
44:0-1

>  <s_i_glide_gridfile>  (148) 
pfpi4k_grid

>  <i_i_glide_lignum>  (148) 
19

>  <i_i_glide_rotatable_bonds>  (148) 
4

>  <r_i_docking_score>  (148) 
-3.52326

>  <r_i_glide_ligand_efficiency>  (148) 
-0.251662

>  <r_i_glide_ligand_efficiency_sa>  (148) 
-0.60654

>  <r_i_glide_ligand_efficiency_ln>  (148) 
-0.96818

>  <r_i_glide_gscore>  (148) 
-3.52326

>  <r_i_glide_lipo>  (148) 
-0.294979

>  <r_i_glide_hbond>  (148) 
-0.546963

>  <r_i_glide_metal>  (148) 
-0

>  <r_i_glide_rewards>  (148) 
-2.18883

>  <r_i_glide_evdw>  (148) 
-21.3724

>  <r_i_glide_ecoul>  (148) 
-4.72731

>  <r_i_glide_erotb>  (148) 
1.29746

>  <r_i_glide_esite>  (148) 
-0.0122355

>  <r_i_glide_emodel>  (148) 
-31.6624

>  <r_i_glide_energy>  (148) 
-26.0997

>  <r_i_glide_einternal>  (148) 
1.42951

>  <r_i_glide_intrahb_reward>  (148) 
-0

>  <i_i_glide_confnum>  (148) 
5

>  <i_i_glide_posenum>  (148) 
6

>  <r_i_glide_eff_state_penalty>  (148) 
0

>  <ligand_id>  (148) 
44

>  <original_smiles>  (148) 
Cn1cnc2c(=NCCO)[nH]cnc21

>  <smiles>  (148) 
[H]OC([H])([H])C([H])([H])N([H])c1nc([H])nc2c1nc([H])n2C([H])([H])[H]

$$$$
44:0:1
     RDKit          3D

 25 26  0  0  1  0  0  0  0  0999 V2000
    0.0193   -1.8441    6.1465 C   0  0  0  0  0  0  0  0  0  0  0  0
   -0.2452   -0.7467    5.2307 N   0  0  0  0  0  0  0  0  0  0  0  0
    0.1889   -0.6377    3.9223 C   0  0  0  0  0  0  0  0  0  0  0  0
   -0.1806    0.4546    3.3033 N   0  0  0  0  0  0  0  0  0  0  0  0
   -0.9192    1.1520    4.2516 C   0  0  0  0  0  0  0  0  0  0  0  0
   -1.5950    2.3916    4.2431 C   0  0  0  0  0  0  0  0  0  0  0  0
   -1.5926    3.1559    3.1169 N   0  0  0  0  0  0  0  0  0  0  0  0
   -2.6533    4.0965    2.8327 C   0  0  0  0  0  0  0  0  0  0  0  0
   -3.8951    3.4144    2.2411 C   0  0  0  0  0  0  0  0  0  0  0  0
   -4.9481    4.3558    2.0446 O   0  0  0  0  0  0  0  0  0  0  0  0
   -2.2067    2.7934    5.3845 N   0  0  0  0  0  0  0  0  0  0  0  0
   -2.1671    2.0015    6.4718 C   0  0  0  0  0  0  0  0  0  0  0  0
   -1.6014    0.8024    6.6197 N   0  0  0  0  0  0  0  0  0  0  0  0
   -0.9664    0.4100    5.4716 C   0  0  0  0  0  0  0  0  0  0  0  0
   -0.9591    3.0137    2.3377 H   0  0  0  0  0  0  0  0  0  0  0  0
   -0.9222   -2.2703    6.4973 H   0  0  0  0  0  0  0  0  0  0  0  0
    0.6062   -1.4857    6.9955 H   0  0  0  0  0  0  0  0  0  0  0  0
    0.5868   -2.6171    5.6256 H   0  0  0  0  0  0  0  0  0  0  0  0
    0.7762   -1.3989    3.4252 H   0  0  0  0  0  0  0  0  0  0  0  0
   -2.2599    4.8090    2.1034 H   0  0  0  0  0  0  0  0  0  0  0  0
   -2.9015    4.6444    3.7319 H   0  0  0  0  0  0  0  0  0  0  0  0
   -3.6870    2.9184    1.2901 H   0  0  0  0  0  0  0  0  0  0  0  0
   -4.2129    2.6262    2.9153 H   0  0  0  0  0  0  0  0  0  0  0  0
   -5.7048    3.9101    1.7037 H   0  0  0  0  0  0  0  0  0  0  0  0
   -2.6607    2.4062    7.3470 H   0  0  0  0  0  0  0  0  0  0  0  0
  1 16  1  0
  1 17  1  0
  1 18  1  0
  1  2  1  0
  2  3  1  0
  2 14  1  0
  3  4  2  0
  3 19  1  0
  4  5  1  0
  5  6  1  0
  5 14  2  0
  6 11  2  0
  6  7  1  0
  7  8  1  0
  7 15  1  0
  8  9  1  0
  8 20  1  0
  8 21  1  0
  9 10  1  0
  9 22  1  0
  9 23  1  0
 10 24  1  0
 11 12  1  0
 12 25  1  0
 12 13  2  0
 13 14  1  0
M  END
>  <i_m_ct_stereo_status>  (149) 
1

>  <s_m_source_file>  (149) 
/var/tmp/pbs.5076255.sched01/tmpio9qf6gp/4214r_5_m5.sdf

>  <i_m_source_file_index>  (149) 
19

>  <i_lp_mmshare_version>  (149) 
48012

>  <i_f3d_flags>  (149) 
0

>  <s_epik_input>  (149) 
bjFbY0hdbihbQ0gzXSljKGMxMiluW2NIXVtuSF1jXDI9TlxbQ0gyXVtDSDJdW09IXQ==

>  <s_epik_cmdline>  (149) 
J2VwaWtfcHl0aG9uJywgJy1waHQnLCAnMi4wJywgJy1waCcsICc3LjAnLCAnLXRuJywgJzgnLCAnLW1hJywgJzIwMCcsICctaW1hZScsICc8aW5maWxlLm1hZT4nLCAnLW9tYWUnLCAnPG91dGZpbGUubWFlPic=

>  <r_lp_tautomer_probability>  (149) 
1

>  <r_epik_Ionization_Penalty>  (149) 
0.00219017

>  <r_epik_Ionization_Penalty_Charging>  (149) 
0

>  <r_epik_Ionization_Penalty_Neutral>  (149) 
0.00219017

>  <r_epik_State_Penalty>  (149) 
-0

>  <r_epik_Charging_Adjusted_Penalty>  (149) 
0

>  <i_epik_Tot_Q>  (149) 
0

>  <i_epik_Tot_abs_Q>  (149) 
0

>  <s_lp_Force_Field>  (149) 
OPLS3e

>  <r_lp_Energy>  (149) 
19.3547

>  <b_lp_Chiralities_Consistent>  (149) 
1

>  <s_lp_Variant>  (149) 
44:0-1

>  <s_i_glide_gridfile>  (149) 
pfpi4k_grid

>  <i_i_glide_lignum>  (149) 
19

>  <i_i_glide_rotatable_bonds>  (149) 
4

>  <r_i_docking_score>  (149) 
-3.45152

>  <r_i_glide_ligand_efficiency>  (149) 
-0.246537

>  <r_i_glide_ligand_efficiency_sa>  (149) 
-0.59419

>  <r_i_glide_ligand_efficiency_ln>  (149) 
-0.948466

>  <r_i_glide_gscore>  (149) 
-3.45152

>  <r_i_glide_lipo>  (149) 
-0.190522

>  <r_i_glide_hbond>  (149) 
-0.373315

>  <r_i_glide_metal>  (149) 
-0

>  <r_i_glide_rewards>  (149) 
-2.09178

>  <r_i_glide_evdw>  (149) 
-18.7464

>  <r_i_glide_ecoul>  (149) 
-6.79927

>  <r_i_glide_erotb>  (149) 
1.29746

>  <r_i_glide_esite>  (149) 
-0.13616

>  <r_i_glide_emodel>  (149) 
-30.9473

>  <r_i_glide_energy>  (149) 
-25.5457

>  <r_i_glide_einternal>  (149) 
1.51692

>  <r_i_glide_intrahb_reward>  (149) 
-0

>  <i_i_glide_confnum>  (149) 
5

>  <i_i_glide_posenum>  (149) 
22

>  <r_i_glide_eff_state_penalty>  (149) 
0

>  <ligand_id>  (149) 
44

>  <original_smiles>  (149) 
Cn1cnc2c(=NCCO)[nH]cnc21

>  <smiles>  (149) 
[H]OC([H])([H])C([H])([H])N([H])c1nc([H])nc2c1nc([H])n2C([H])([H])[H]

$$$$
44:0:2
     RDKit          3D

 25 26  0  0  1  0  0  0  0  0999 V2000
    1.5310   -2.0108    3.4487 C   0  0  0  0  0  0  0  0  0  0  0  0
    1.0222   -0.6914    3.1164 N   0  0  0  0  0  0  0  0  0  0  0  0
    1.4338    0.1171    2.0786 C   0  0  0  0  0  0  0  0  0  0  0  0
    0.8306    1.2720    2.0023 N   0  0  0  0  0  0  0  0  0  0  0  0
   -0.0803    1.2491    3.0456 C   0  0  0  0  0  0  0  0  0  0  0  0
   -1.0553    2.1643    3.5068 C   0  0  0  0  0  0  0  0  0  0  0  0
   -1.2303    3.3448    2.8734 N   0  0  0  0  0  0  0  0  0  0  0  0
   -2.4652    4.1066    2.9821 C   0  0  0  0  0  0  0  0  0  0  0  0
   -3.6820    3.3545    2.4075 C   0  0  0  0  0  0  0  0  0  0  0  0
   -4.7401    4.2457    2.0980 O   0  0  0  0  0  0  0  0  0  0  0  0
   -1.7857    1.8201    4.6011 N   0  0  0  0  0  0  0  0  0  0  0  0
   -1.5735    0.6356    5.1890 C   0  0  0  0  0  0  0  0  0  0  0  0
   -0.7157   -0.3299    4.8560 N   0  0  0  0  0  0  0  0  0  0  0  0
    0.0277    0.0265    3.7644 C   0  0  0  0  0  0  0  0  0  0  0  0
   -0.6105    3.6692    2.1272 H   0  0  0  0  0  0  0  0  0  0  0  0
    0.7190   -2.7375    3.4249 H   0  0  0  0  0  0  0  0  0  0  0  0
    1.9793   -1.9926    4.4424 H   0  0  0  0  0  0  0  0  0  0  0  0
    2.2891   -2.3000    2.7245 H   0  0  0  0  0  0  0  0  0  0  0  0
    2.1979   -0.1742    1.3726 H   0  0  0  0  0  0  0  0  0  0  0  0
   -2.3034    5.0063    2.3899 H   0  0  0  0  0  0  0  0  0  0  0  0
   -2.5997    4.4334    4.0145 H   0  0  0  0  0  0  0  0  0  0  0  0
   -3.4067    2.8273    1.4916 H   0  0  0  0  0  0  0  0  0  0  0  0
   -4.0321    2.6112    3.1196 H   0  0  0  0  0  0  0  0  0  0  0  0
   -5.4601    3.7562    1.7220 H   0  0  0  0  0  0  0  0  0  0  0  0
   -2.1872    0.4344    6.0519 H   0  0  0  0  0  0  0  0  0  0  0  0
  1 16  1  0
  1 17  1  0
  1 18  1  0
  1  2  1  0
  2  3  1  0
  2 14  1  0
  3  4  2  0
  3 19  1  0
  4  5  1  0
  5  6  1  0
  5 14  2  0
  6 11  2  0
  6  7  1  0
  7  8  1  0
  7 15  1  0
  8  9  1  0
  8 20  1  0
  8 21  1  0
  9 10  1  0
  9 22  1  0
  9 23  1  0
 10 24  1  0
 11 12  1  0
 12 25  1  0
 12 13  2  0
 13 14  1  0
M  END
>  <i_m_ct_stereo_status>  (150) 
1

>  <s_m_source_file>  (150) 
/var/tmp/pbs.5076255.sched01/tmpio9qf6gp/4214r_5_m5.sdf

>  <i_m_source_file_index>  (150) 
19

>  <i_lp_mmshare_version>  (150) 
48012

>  <i_f3d_flags>  (150) 
0

>  <s_epik_input>  (150) 
bjFbY0hdbihbQ0gzXSljKGMxMiluW2NIXVtuSF1jXDI9TlxbQ0gyXVtDSDJdW09IXQ==

>  <s_epik_cmdline>  (150) 
J2VwaWtfcHl0aG9uJywgJy1waHQnLCAnMi4wJywgJy1waCcsICc3LjAnLCAnLXRuJywgJzgnLCAnLW1hJywgJzIwMCcsICctaW1hZScsICc8aW5maWxlLm1hZT4nLCAnLW9tYWUnLCAnPG91dGZpbGUubWFlPic=

>  <r_lp_tautomer_probability>  (150) 
1

>  <r_epik_Ionization_Penalty>  (150) 
0.00219017

>  <r_epik_Ionization_Penalty_Charging>  (150) 
0

>  <r_epik_Ionization_Penalty_Neutral>  (150) 
0.00219017

>  <r_epik_State_Penalty>  (150) 
-0

>  <r_epik_Charging_Adjusted_Penalty>  (150) 
0

>  <i_epik_Tot_Q>  (150) 
0

>  <i_epik_Tot_abs_Q>  (150) 
0

>  <s_lp_Force_Field>  (150) 
OPLS3e

>  <r_lp_Energy>  (150) 
19.3547

>  <b_lp_Chiralities_Consistent>  (150) 
1

>  <s_lp_Variant>  (150) 
44:0-1

>  <s_i_glide_gridfile>  (150) 
pfpi4k_grid

>  <i_i_glide_lignum>  (150) 
19

>  <i_i_glide_rotatable_bonds>  (150) 
4

>  <r_i_docking_score>  (150) 
-3.18175

>  <r_i_glide_ligand_efficiency>  (150) 
-0.227268

>  <r_i_glide_ligand_efficiency_sa>  (150) 
-0.547748

>  <r_i_glide_ligand_efficiency_ln>  (150) 
-0.874334

>  <r_i_glide_gscore>  (150) 
-3.18175

>  <r_i_glide_lipo>  (150) 
-0.149375

>  <r_i_glide_hbond>  (150) 
-0.225299

>  <r_i_glide_metal>  (150) 
-0

>  <r_i_glide_rewards>  (150) 
-2.09178

>  <r_i_glide_evdw>  (150) 
-19.564

>  <r_i_glide_ecoul>  (150) 
-5.33922

>  <r_i_glide_erotb>  (150) 
1.29746

>  <r_i_glide_esite>  (150) 
-0.233676

>  <r_i_glide_emodel>  (150) 
-29.7148

>  <r_i_glide_energy>  (150) 
-24.9033

>  <r_i_glide_einternal>  (150) 
1.52798

>  <r_i_glide_intrahb_reward>  (150) 
-0

>  <i_i_glide_confnum>  (150) 
1

>  <i_i_glide_posenum>  (150) 
2

>  <r_i_glide_eff_state_penalty>  (150) 
0

>  <ligand_id>  (150) 
44

>  <original_smiles>  (150) 
Cn1cnc2c(=NCCO)[nH]cnc21

>  <smiles>  (150) 
[H]OC([H])([H])C([H])([H])N([H])c1nc([H])nc2c1nc([H])n2C([H])([H])[H]

$$$$
45:0:0
     RDKit          3D

 72 77  0  0  1  0  0  0  0  0999 V2000
    4.5659   -8.2144    5.6366 C   0  0  0  0  0  0  0  0  0  0  0  0
    3.2018   -7.7472    5.0444 C   0  0  2  0  0  0  0  0  0  0  0  0
    2.1963   -7.4761    6.2155 C   0  0  0  0  0  0  0  0  0  0  0  0
    1.6870   -8.7246    6.9485 C   0  0  0  0  0  0  0  0  0  0  0  0
    1.0498   -9.7494    5.9905 C   0  0  1  0  0  0  0  0  0  0  0  0
   -0.1813   -9.2183    5.5588 O   0  0  0  0  0  0  0  0  0  0  0  0
    1.9787  -10.1480    4.8284 C   0  0  0  0  0  0  0  0  0  0  0  0
    3.1105  -11.0778    5.3829 C   0  0  0  0  0  0  0  0  0  0  0  0
    1.2177  -11.0761    3.8404 C   0  0  0  0  0  0  0  0  0  0  0  0
    2.6059   -8.8720    4.1222 C   0  0  1  0  0  0  0  0  0  0  0  0
    1.6370   -8.2375    3.1011 C   0  0  0  0  0  0  0  0  0  0  0  0
    2.3726   -7.2313    2.2146 C   0  0  0  0  0  0  0  0  0  0  0  0
    3.1066   -6.1610    3.0107 C   0  0  0  0  0  0  0  0  0  0  0  0
    3.4546   -6.4108    4.2991 C   0  0  0  0  0  0  0  0  0  0  0  0
    4.2095   -5.3527    5.0854 C   0  0  0  0  0  0  0  0  0  0  0  0
    4.0151   -3.9326    4.5248 C   0  0  0  0  0  0  0  0  0  0  0  0
    4.3959   -3.8866    3.0249 C   0  0  1  0  0  0  0  0  0  0  0  0
    3.4734   -4.8714    2.2300 C   0  0  1  0  0  0  0  0  0  0  0  0
    4.1134   -5.2760    0.8901 C   0  0  0  0  0  0  0  0  0  0  0  0
    2.1808   -4.0950    1.9763 C   0  0  0  0  0  0  0  0  0  0  0  0
    2.3614   -2.7630    1.2355 C   0  0  0  0  0  0  0  0  0  0  0  0
    3.2087   -1.7154    1.9876 C   0  0  2  0  0  0  0  0  0  0  0  0
    2.3616   -1.0161    3.0695 C   0  0  0  0  0  0  0  0  0  0  0  0
    3.6306   -0.6786    0.8722 C   0  0  0  0  0  0  0  0  0  0  0  0
    4.8334   -1.3304    0.4079 C   0  0  0  0  0  0  0  0  0  0  0  0
    5.3603   -2.2764    1.2565 C   0  0  0  0  0  0  0  0  0  0  0  0
    6.5181   -2.8068    0.8515 N   0  0  0  0  0  0  0  0  0  0  0  0
    6.6902   -2.2739   -0.4544 O   0  0  0  0  0  0  0  0  0  0  0  0
    5.5983   -1.5012   -0.6912 C   0  0  0  0  0  0  0  0  0  0  0  0
    5.4488   -0.9563   -1.9375 O   0  0  0  0  0  0  0  0  0  0  0  0
    4.5569   -2.4117    2.4877 C   0  0  2  0  0  0  0  0  0  0  0  0
    5.2713   -1.4863    3.4843 C   0  0  0  0  0  0  0  0  0  0  0  0
    4.5053   -9.0738    6.2664 H   0  0  0  0  0  0  0  0  0  0  0  0
    5.0358   -7.4554    6.2732 H   0  0  0  0  0  0  0  0  0  0  0  0
    5.2786   -8.4352    4.8389 H   0  0  0  0  0  0  0  0  0  0  0  0
    2.6440   -6.8130    6.9638 H   0  0  0  0  0  0  0  0  0  0  0  0
    1.3395   -6.9259    5.8147 H   0  0  0  0  0  0  0  0  0  0  0  0
    2.5009   -9.1759    7.5100 H   0  0  0  0  0  0  0  0  0  0  0  0
    0.9554   -8.4239    7.7046 H   0  0  0  0  0  0  0  0  0  0  0  0
    0.7829  -10.6457    6.5476 H   0  0  0  0  0  0  0  0  0  0  0  0
   -0.7755   -9.9479    5.3446 H   0  0  0  0  0  0  0  0  0  0  0  0
    4.0118  -11.0618    4.7665 H   0  0  0  0  0  0  0  0  0  0  0  0
    2.7892  -12.1201    5.4483 H   0  0  0  0  0  0  0  0  0  0  0  0
    3.3971  -10.8379    6.4145 H   0  0  0  0  0  0  0  0  0  0  0  0
    1.8314  -11.3271    2.9798 H   0  0  0  0  0  0  0  0  0  0  0  0
    0.2896  -10.6045    3.4693 H   0  0  0  0  0  0  0  0  0  0  0  0
    0.9015  -11.9950    4.3164 H   0  0  0  0  0  0  0  0  0  0  0  0
    3.4292   -9.2499    3.5006 H   0  0  0  0  0  0  0  0  0  0  0  0
    1.1885   -8.9595    2.4312 H   0  0  0  0  0  0  0  0  0  0  0  0
    0.8022   -7.7301    3.6146 H   0  0  0  0  0  0  0  0  0  0  0  0
    3.0996   -7.7789    1.6024 H   0  0  0  0  0  0  0  0  0  0  0  0
    1.6380   -6.8087    1.5201 H   0  0  0  0  0  0  0  0  0  0  0  0
    3.9244   -5.3245    6.1270 H   0  0  0  0  0  0  0  0  0  0  0  0
    5.2854   -5.5733    5.0384 H   0  0  0  0  0  0  0  0  0  0  0  0
    2.9728   -3.6248    4.6815 H   0  0  0  0  0  0  0  0  0  0  0  0
    4.6220   -3.2836    5.1319 H   0  0  0  0  0  0  0  0  0  0  0  0
    5.4012   -4.3191    2.9849 H   0  0  0  0  0  0  0  0  0  0  0  0
    4.3712   -4.4346    0.2449 H   0  0  0  0  0  0  0  0  0  0  0  0
    3.4722   -5.9006    0.2693 H   0  0  0  0  0  0  0  0  0  0  0  0
    5.0432   -5.8321    1.0593 H   0  0  0  0  0  0  0  0  0  0  0  0
    1.5203   -4.6999    1.3425 H   0  0  0  0  0  0  0  0  0  0  0  0
    1.6122   -3.9241    2.8920 H   0  0  0  0  0  0  0  0  0  0  0  0
    2.7532   -2.9477    0.2303 H   0  0  0  0  0  0  0  0  0  0  0  0
    1.3941   -2.3120    1.0455 H   0  0  0  0  0  0  0  0  0  0  0  0
    2.8766   -0.1858    3.5241 H   0  0  0  0  0  0  0  0  0  0  0  0
    2.0649   -1.7119    3.8445 H   0  0  0  0  0  0  0  0  0  0  0  0
    1.4378   -0.6057    2.6340 H   0  0  0  0  0  0  0  0  0  0  0  0
    2.9003   -0.5089    0.1105 H   0  0  0  0  0  0  0  0  0  0  0  0
    3.8782    0.2874    1.3276 H   0  0  0  0  0  0  0  0  0  0  0  0
    4.6893   -1.2783    4.3841 H   0  0  0  0  0  0  0  0  0  0  0  0
    5.5271   -0.5313    3.0344 H   0  0  0  0  0  0  0  0  0  0  0  0
    6.1772   -2.0043    3.7319 H   0  0  0  0  0  0  0  0  0  0  0  0
  2  1  1  1
  1 33  1  0
  1 34  1  0
  1 35  1  0
  2 10  1  0
  2 14  1  0
  2  3  1  0
  3  4  1  0
  3 36  1  0
  3 37  1  0
  4  5  1  0
  4 38  1  0
  4 39  1  0
  5  6  1  0
  5  7  1  0
  5 40  1  1
  6 41  1  0
  7  8  1  0
  7  9  1  0
  7 10  1  0
  8 42  1  0
  8 43  1  0
  8 44  1  0
  9 45  1  0
  9 46  1  0
  9 47  1  0
 10 11  1  0
 10 48  1  6
 11 12  1  0
 11 49  1  0
 11 50  1  0
 12 13  1  0
 12 51  1  0
 12 52  1  0
 13 18  1  0
 13 14  2  0
 14 15  1  0
 15 16  1  0
 15 53  1  0
 15 54  1  0
 16 17  1  0
 16 55  1  0
 16 56  1  0
 17 31  1  0
 17 18  1  0
 17 57  1  1
 18 19  1  6
 18 20  1  0
 19 58  1  0
 19 59  1  0
 19 60  1  0
 20 21  1  0
 20 61  1  0
 20 62  1  0
 21 22  1  0
 21 63  1  0
 21 64  1  0
 22 31  1  0
 22 23  1  1
 22 24  1  0
 23 65  1  0
 23 66  1  0
 23 67  1  0
 24 25  1  0
 24 68  1  0
 24 69  1  0
 25 29  2  0
 25 26  1  0
 26 27  2  0
 26 31  1  0
 27 28  1  0
 28 29  1  0
 29 30  1  0
 31 32  1  1
 32 70  1  0
 32 71  1  0
 32 72  1  0
M  CHG  1  30  -1
M  END
>  <i_m_ct_stereo_status>  (151) 
1

>  <s_m_source_file>  (151) 
/var/tmp/pbs.5076255.sched01/tmpio9qf6gp/4214r_5_m5.sdf

>  <i_m_source_file_index>  (151) 
20

>  <i_lp_mmshare_version>  (151) 
48012

>  <i_f3d_flags>  (151) 
0

>  <s_epik_input>  (151) 
W0NIMl0xW0NIMl1bQ0BASF0oW09IXSlDKFtDSDNdKShbQ0gzXSlbQ0BIXShbQ0BdMTJbQ0gzXSlbQ0gyXVtDSDJdQzM9QzJbQ0gyXVtDSDJdW0NASF00W0NAXTMoW0NIM10pW0NIMl1bQ0gyXVtDQEBdNShbQ0gzXSlbQ0BdNChbQ0gzXSljNmMoW0NIMl01KWMoPU8pb1tuSF02

>  <s_epik_cmdline>  (151) 
J2VwaWtfcHl0aG9uJywgJy1waHQnLCAnMi4wJywgJy1waCcsICc3LjAnLCAnLXRuJywgJzgnLCAnLW1hJywgJzIwMCcsICctaW1hZScsICc8aW5maWxlLm1hZT4nLCAnLW9tYWUnLCAnPG91dGZpbGUubWFlPic=

>  <r_epik_Ionization_Penalty>  (151) 
0.0909304

>  <r_epik_Ionization_Penalty_Charging>  (151) 
0.0909274

>  <r_epik_Ionization_Penalty_Neutral>  (151) 
3.00637e-06

>  <r_epik_State_Penalty>  (151) 
0.0139893

>  <r_epik_Charging_Adjusted_Penalty>  (151) 
0.104917

>  <i_epik_Tot_Q>  (151) 
-1

>  <i_epik_Tot_abs_Q>  (151) 
1

>  <s_lp_Force_Field>  (151) 
OPLS3e

>  <r_lp_Energy>  (151) 
82.0338

>  <b_lp_Chiralities_Consistent>  (151) 
1

>  <s_lp_Variant>  (151) 
45:0-1

>  <s_i_glide_gridfile>  (151) 
pfpi4k_grid

>  <i_i_glide_lignum>  (151) 
20

>  <i_i_glide_rotatable_bonds>  (151) 
1

>  <r_i_docking_score>  (151) 
-2.69176

>  <r_i_glide_ligand_efficiency>  (151) 
-0.0841176

>  <r_i_glide_ligand_efficiency_sa>  (151) 
-0.267057

>  <r_i_glide_ligand_efficiency_ln>  (151) 
-0.602759

>  <r_i_glide_gscore>  (151) 
-2.69176

>  <r_i_glide_lipo>  (151) 
-0.389647

>  <r_i_glide_hbond>  (151) 
-0.174585

>  <r_i_glide_metal>  (151) 
-0

>  <r_i_glide_rewards>  (151) 
-0.418486

>  <r_i_glide_evdw>  (151) 
-20.3984

>  <r_i_glide_ecoul>  (151) 
-4.37109

>  <r_i_glide_erotb>  (151) 
0

>  <r_i_glide_esite>  (151) 
-0.0334617

>  <r_i_glide_emodel>  (151) 
-29.2184

>  <r_i_glide_energy>  (151) 
-24.7695

>  <r_i_glide_einternal>  (151) 
0.75779

>  <r_i_glide_intrahb_reward>  (151) 
-0

>  <i_i_glide_confnum>  (151) 
2

>  <i_i_glide_posenum>  (151) 
17

>  <r_i_glide_eff_state_penalty>  (151) 
0

>  <ligand_id>  (151) 
45

>  <original_smiles>  (151) 
CC12CCC(O)C(C)(C)C1CCC1=C2CCC2C1(C)CCC1(C)Cc3c([nH]oc3=O)C21C

>  <smiles>  (151) 
[H]OC1([H])C([H])([H])C([H])([H])C2(C([H])([H])[H])C3=C(C([H])([H])C([H])([H])C2([H])C1(C([H])([H])[H])C([H])([H])[H])C1(C([H])([H])[H])C([H])([H])C([H])([H])C2(C([H])([H])[H])C([H])([H])c4c(noc4[O-])C2(C([H])([H])[H])C1([H])C([H])([H])C3([H])[H]

$$$$
45:0:1
     RDKit          3D

 72 77  0  0  1  0  0  0  0  0999 V2000
    4.6215   -9.2457    2.4788 C   0  0  0  0  0  0  0  0  0  0  0  0
    3.8392   -8.1190    3.2118 C   0  0  2  0  0  0  0  0  0  0  0  0
    4.3197   -8.0059    4.6883 C   0  0  0  0  0  0  0  0  0  0  0  0
    3.8983   -9.1642    5.6101 C   0  0  0  0  0  0  0  0  0  0  0  0
    2.3812   -9.3985    5.6210 C   0  0  1  0  0  0  0  0  0  0  0  0
    1.7809   -8.3228    6.3140 O   0  0  0  0  0  0  0  0  0  0  0  0
    1.7930   -9.5778    4.1950 C   0  0  0  0  0  0  0  0  0  0  0  0
    2.1748  -10.9946    3.6780 C   0  0  0  0  0  0  0  0  0  0  0  0
    0.2452   -9.6252    4.2757 C   0  0  0  0  0  0  0  0  0  0  0  0
    2.2916   -8.4412    3.2082 C   0  0  1  0  0  0  0  0  0  0  0  0
    1.4916   -7.1270    3.3469 C   0  0  0  0  0  0  0  0  0  0  0  0
    1.7744   -6.1923    2.1829 C   0  0  0  0  0  0  0  0  0  0  0  0
    3.2558   -5.8967    2.0097 C   0  0  0  0  0  0  0  0  0  0  0  0
    4.1795   -6.7761    2.4889 C   0  0  0  0  0  0  0  0  0  0  0  0
    5.6607   -6.4967    2.2793 C   0  0  0  0  0  0  0  0  0  0  0  0
    5.9628   -5.0253    2.0329 C   0  0  0  0  0  0  0  0  0  0  0  0
    5.1232   -4.4857    0.8554 C   0  0  1  0  0  0  0  0  0  0  0  0
    3.5976   -4.5972    1.2126 C   0  0  1  0  0  0  0  0  0  0  0  0
    2.7698   -4.6137   -0.0894 C   0  0  0  0  0  0  0  0  0  0  0  0
    3.2069   -3.3669    2.0655 C   0  0  0  0  0  0  0  0  0  0  0  0
    3.5429   -2.0274    1.3942 C   0  0  0  0  0  0  0  0  0  0  0  0
    5.0413   -1.8131    1.0539 C   0  0  2  0  0  0  0  0  0  0  0  0
    5.7904   -1.3794    2.3269 C   0  0  0  0  0  0  0  0  0  0  0  0
    5.0585   -0.6560    0.0001 C   0  0  0  0  0  0  0  0  0  0  0  0
    4.9429   -1.4271   -1.2644 C   0  0  0  0  0  0  0  0  0  0  0  0
    5.2305   -2.7685   -1.0883 C   0  0  0  0  0  0  0  0  0  0  0  0
    5.2251   -3.4707   -2.2089 N   0  0  0  0  0  0  0  0  0  0  0  0
    4.7754   -2.5573   -3.1837 O   0  0  0  0  0  0  0  0  0  0  0  0
    4.6113   -1.3456   -2.5767 C   0  0  0  0  0  0  0  0  0  0  0  0
    4.2031   -0.3206   -3.3392 O   0  0  0  0  0  0  0  0  0  0  0  0
    5.6426   -3.0910    0.3161 C   0  0  2  0  0  0  0  0  0  0  0  0
    7.1935   -3.0413    0.2564 C   0  0  0  0  0  0  0  0  0  0  0  0
    4.5434  -10.2120    2.9559 H   0  0  0  0  0  0  0  0  0  0  0  0
    5.6937   -9.0623    2.4394 H   0  0  0  0  0  0  0  0  0  0  0  0
    4.2772   -9.3656    1.4498 H   0  0  0  0  0  0  0  0  0  0  0  0
    5.4059   -7.9427    4.7359 H   0  0  0  0  0  0  0  0  0  0  0  0
    3.9460   -7.0730    5.1123 H   0  0  0  0  0  0  0  0  0  0  0  0
    4.4126  -10.0763    5.3102 H   0  0  0  0  0  0  0  0  0  0  0  0
    4.2400   -8.9667    6.6286 H   0  0  0  0  0  0  0  0  0  0  0  0
    2.1740  -10.2942    6.2113 H   0  0  0  0  0  0  0  0  0  0  0  0
    0.8751   -8.5520    6.4534 H   0  0  0  0  0  0  0  0  0  0  0  0
    2.1832  -11.0452    2.5886 H   0  0  0  0  0  0  0  0  0  0  0  0
    1.4875  -11.7661    4.0310 H   0  0  0  0  0  0  0  0  0  0  0  0
    3.1460  -11.3293    4.0343 H   0  0  0  0  0  0  0  0  0  0  0  0
   -0.2056   -9.7139    3.2868 H   0  0  0  0  0  0  0  0  0  0  0  0
   -0.1949   -8.7578    4.7680 H   0  0  0  0  0  0  0  0  0  0  0  0
   -0.0836  -10.4810    4.8641 H   0  0  0  0  0  0  0  0  0  0  0  0
    2.0458   -8.7993    2.2084 H   0  0  0  0  0  0  0  0  0  0  0  0
    0.4163   -7.2875    3.3530 H   0  0  0  0  0  0  0  0  0  0  0  0
    1.7484   -6.6209    4.2781 H   0  0  0  0  0  0  0  0  0  0  0  0
    1.4111   -6.6550    1.2631 H   0  0  0  0  0  0  0  0  0  0  0  0
    1.2053   -5.2796    2.3441 H   0  0  0  0  0  0  0  0  0  0  0  0
    6.2520   -6.8212    3.1326 H   0  0  0  0  0  0  0  0  0  0  0  0
    5.9967   -7.0650    1.4107 H   0  0  0  0  0  0  0  0  0  0  0  0
    5.7557   -4.4621    2.9435 H   0  0  0  0  0  0  0  0  0  0  0  0
    7.0364   -4.9640    1.8621 H   0  0  0  0  0  0  0  0  0  0  0  0
    5.3128   -5.1938    0.0464 H   0  0  0  0  0  0  0  0  0  0  0  0
    2.9122   -3.7500   -0.7320 H   0  0  0  0  0  0  0  0  0  0  0  0
    1.6981   -4.6784    0.0725 H   0  0  0  0  0  0  0  0  0  0  0  0
    3.0632   -5.4784   -0.6738 H   0  0  0  0  0  0  0  0  0  0  0  0
    2.1343   -3.3587    2.2581 H   0  0  0  0  0  0  0  0  0  0  0  0
    3.6828   -3.4175    3.0439 H   0  0  0  0  0  0  0  0  0  0  0  0
    2.9347   -1.9221    0.4915 H   0  0  0  0  0  0  0  0  0  0  0  0
    3.1980   -1.2205    2.0410 H   0  0  0  0  0  0  0  0  0  0  0  0
    6.8154   -1.0686    2.1243 H   0  0  0  0  0  0  0  0  0  0  0  0
    5.8170   -2.1773    3.0698 H   0  0  0  0  0  0  0  0  0  0  0  0
    5.3052   -0.5243    2.8008 H   0  0  0  0  0  0  0  0  0  0  0  0
    4.2922    0.1077    0.1333 H   0  0  0  0  0  0  0  0  0  0  0  0
    6.0303   -0.1585    0.0268 H   0  0  0  0  0  0  0  0  0  0  0  0
    7.6526   -3.0266    1.2414 H   0  0  0  0  0  0  0  0  0  0  0  0
    7.5442   -2.1465   -0.2566 H   0  0  0  0  0  0  0  0  0  0  0  0
    7.5953   -3.8966   -0.2878 H   0  0  0  0  0  0  0  0  0  0  0  0
  2  1  1  6
  1 33  1  0
  1 34  1  0
  1 35  1  0
  2 10  1  0
  2 14  1  0
  2  3  1  0
  3  4  1  0
  3 36  1  0
  3 37  1  0
  4  5  1  0
  4 38  1  0
  4 39  1  0
  5  6  1  0
  5  7  1  0
  5 40  1  1
  6 41  1  0
  7  8  1  0
  7  9  1  0
  7 10  1  0
  8 42  1  0
  8 43  1  0
  8 44  1  0
  9 45  1  0
  9 46  1  0
  9 47  1  0
 10 11  1  0
 10 48  1  6
 11 12  1  0
 11 49  1  0
 11 50  1  0
 12 13  1  0
 12 51  1  0
 12 52  1  0
 13 18  1  0
 13 14  2  0
 14 15  1  0
 15 16  1  0
 15 53  1  0
 15 54  1  0
 16 17  1  0
 16 55  1  0
 16 56  1  0
 17 31  1  0
 17 18  1  0
 17 57  1  6
 18 19  1  6
 18 20  1  0
 19 58  1  0
 19 59  1  0
 19 60  1  0
 20 21  1  0
 20 61  1  0
 20 62  1  0
 21 22  1  0
 21 63  1  0
 21 64  1  0
 22 31  1  0
 22 23  1  1
 22 24  1  0
 23 65  1  0
 23 66  1  0
 23 67  1  0
 24 25  1  0
 24 68  1  0
 24 69  1  0
 25 29  2  0
 25 26  1  0
 26 27  2  0
 26 31  1  0
 27 28  1  0
 28 29  1  0
 29 30  1  0
 31 32  1  6
 32 70  1  0
 32 71  1  0
 32 72  1  0
M  CHG  1  30  -1
M  END
>  <i_m_ct_stereo_status>  (152) 
1

>  <s_m_source_file>  (152) 
/var/tmp/pbs.5076255.sched01/tmpio9qf6gp/4214r_5_m5.sdf

>  <i_m_source_file_index>  (152) 
20

>  <i_lp_mmshare_version>  (152) 
48012

>  <i_f3d_flags>  (152) 
0

>  <s_epik_input>  (152) 
W0NIMl0xW0NIMl1bQ0BASF0oW09IXSlDKFtDSDNdKShbQ0gzXSlbQ0BIXShbQ0BdMTJbQ0gzXSlbQ0gyXVtDSDJdQzM9QzJbQ0gyXVtDSDJdW0NASF00W0NAXTMoW0NIM10pW0NIMl1bQ0gyXVtDQEBdNShbQ0gzXSlbQ0BdNChbQ0gzXSljNmMoW0NIMl01KWMoPU8pb1tuSF02

>  <s_epik_cmdline>  (152) 
J2VwaWtfcHl0aG9uJywgJy1waHQnLCAnMi4wJywgJy1waCcsICc3LjAnLCAnLXRuJywgJzgnLCAnLW1hJywgJzIwMCcsICctaW1hZScsICc8aW5maWxlLm1hZT4nLCAnLW9tYWUnLCAnPG91dGZpbGUubWFlPic=

>  <r_epik_Ionization_Penalty>  (152) 
0.0909304

>  <r_epik_Ionization_Penalty_Charging>  (152) 
0.0909274

>  <r_epik_Ionization_Penalty_Neutral>  (152) 
3.00637e-06

>  <r_epik_State_Penalty>  (152) 
0.0139893

>  <r_epik_Charging_Adjusted_Penalty>  (152) 
0.104917

>  <i_epik_Tot_Q>  (152) 
-1

>  <i_epik_Tot_abs_Q>  (152) 
1

>  <s_lp_Force_Field>  (152) 
OPLS3e

>  <r_lp_Energy>  (152) 
82.0338

>  <b_lp_Chiralities_Consistent>  (152) 
1

>  <s_lp_Variant>  (152) 
45:0-1

>  <s_i_glide_gridfile>  (152) 
pfpi4k_grid

>  <i_i_glide_lignum>  (152) 
20

>  <i_i_glide_rotatable_bonds>  (152) 
1

>  <r_i_docking_score>  (152) 
-2.60308

>  <r_i_glide_ligand_efficiency>  (152) 
-0.0813464

>  <r_i_glide_ligand_efficiency_sa>  (152) 
-0.258259

>  <r_i_glide_ligand_efficiency_ln>  (152) 
-0.582902

>  <r_i_glide_gscore>  (152) 
-2.60308

>  <r_i_glide_lipo>  (152) 
-0.57086

>  <r_i_glide_hbond>  (152) 
0

>  <r_i_glide_metal>  (152) 
-0

>  <r_i_glide_rewards>  (152) 
-0.418486

>  <r_i_glide_evdw>  (152) 
-32.1277

>  <r_i_glide_ecoul>  (152) 
-0.0490333

>  <r_i_glide_erotb>  (152) 
0

>  <r_i_glide_esite>  (152) 
0

>  <r_i_glide_emodel>  (152) 
-37.3492

>  <r_i_glide_energy>  (152) 
-32.1767

>  <r_i_glide_einternal>  (152) 
0.339853

>  <r_i_glide_intrahb_reward>  (152) 
-0

>  <i_i_glide_confnum>  (152) 
2

>  <i_i_glide_posenum>  (152) 
11

>  <r_i_glide_eff_state_penalty>  (152) 
0

>  <ligand_id>  (152) 
45

>  <original_smiles>  (152) 
CC12CCC(O)C(C)(C)C1CCC1=C2CCC2C1(C)CCC1(C)Cc3c([nH]oc3=O)C21C

>  <smiles>  (152) 
[H]OC1([H])C([H])([H])C([H])([H])C2(C([H])([H])[H])C3=C(C([H])([H])C([H])([H])C2([H])C1(C([H])([H])[H])C([H])([H])[H])C1(C([H])([H])[H])C([H])([H])C([H])([H])C2(C([H])([H])[H])C([H])([H])c4c(noc4[O-])C2(C([H])([H])[H])C1([H])C([H])([H])C3([H])[H]

$$$$
45:0:2
     RDKit          3D

 72 77  0  0  1  0  0  0  0  0999 V2000
    3.1094   -5.0425    4.9202 C   0  0  0  0  0  0  0  0  0  0  0  0
    2.5213   -4.4551    3.6082 C   0  0  2  0  0  0  0  0  0  0  0  0
    1.1447   -5.1147    3.3187 C   0  0  0  0  0  0  0  0  0  0  0  0
    1.1772   -6.5783    2.8561 C   0  0  0  0  0  0  0  0  0  0  0  0
    2.0740   -6.7823    1.6266 C   0  0  1  0  0  0  0  0  0  0  0  0
    1.4347   -6.1744    0.5109 O   0  0  0  0  0  0  0  0  0  0  0  0
    3.5105   -6.2361    1.8377 C   0  0  0  0  0  0  0  0  0  0  0  0
    4.2810   -7.1879    2.8010 C   0  0  0  0  0  0  0  0  0  0  0  0
    4.3131   -6.3516    0.5124 C   0  0  0  0  0  0  0  0  0  0  0  0
    3.4846   -4.7508    2.3924 C   0  0  1  0  0  0  0  0  0  0  0  0
    3.2597   -3.6996    1.2811 C   0  0  0  0  0  0  0  0  0  0  0  0
    3.5583   -2.2981    1.7882 C   0  0  0  0  0  0  0  0  0  0  0  0
    2.7638   -1.9400    3.0349 C   0  0  0  0  0  0  0  0  0  0  0  0
    2.2899   -2.9293    3.8400 C   0  0  0  0  0  0  0  0  0  0  0  0
    1.5247   -2.5619    5.1035 C   0  0  0  0  0  0  0  0  0  0  0  0
    0.9200   -1.1618    5.0542 C   0  0  0  0  0  0  0  0  0  0  0  0
    2.0031   -0.1090    4.7327 C   0  0  1  0  0  0  0  0  0  0  0  0
    2.6268   -0.4144    3.3236 C   0  0  1  0  0  0  0  0  0  0  0  0
    4.0420    0.2016    3.2395 C   0  0  0  0  0  0  0  0  0  0  0  0
    1.6898    0.2154    2.2533 C   0  0  0  0  0  0  0  0  0  0  0  0
    1.4244    1.7131    2.4638 C   0  0  0  0  0  0  0  0  0  0  0  0
    0.7676    2.0919    3.8200 C   0  0  2  0  0  0  0  0  0  0  0  0
   -0.7473    1.8155    3.7496 C   0  0  0  0  0  0  0  0  0  0  0  0
    1.0429    3.6340    3.9897 C   0  0  0  0  0  0  0  0  0  0  0  0
    2.3489    3.6088    4.6842 C   0  0  0  0  0  0  0  0  0  0  0  0
    2.6367    2.3574    5.2169 C   0  0  0  0  0  0  0  0  0  0  0  0
    3.7671    2.3044    5.9029 N   0  0  0  0  0  0  0  0  0  0  0  0
    4.3334    3.5911    5.7168 O   0  0  0  0  0  0  0  0  0  0  0  0
    3.4493    4.3238    4.9928 C   0  0  0  0  0  0  0  0  0  0  0  0
    3.8002    5.6207    4.7138 O   0  0  0  0  0  0  0  0  0  0  0  0
    1.5309    1.3717    5.0225 C   0  0  2  0  0  0  0  0  0  0  0  0
    0.7153    1.4675    6.3437 C   0  0  0  0  0  0  0  0  0  0  0  0
    3.2071   -6.1150    4.9096 H   0  0  0  0  0  0  0  0  0  0  0  0
    2.4787   -4.8470    5.7882 H   0  0  0  0  0  0  0  0  0  0  0  0
    4.0927   -4.6193    5.1338 H   0  0  0  0  0  0  0  0  0  0  0  0
    0.4885   -5.0588    4.1872 H   0  0  0  0  0  0  0  0  0  0  0  0
    0.6744   -4.5281    2.5386 H   0  0  0  0  0  0  0  0  0  0  0  0
    1.5063   -7.2129    3.6775 H   0  0  0  0  0  0  0  0  0  0  0  0
    0.1654   -6.9192    2.6231 H   0  0  0  0  0  0  0  0  0  0  0  0
    2.1300   -7.8537    1.4167 H   0  0  0  0  0  0  0  0  0  0  0  0
    2.0324   -6.2419   -0.2182 H   0  0  0  0  0  0  0  0  0  0  0  0
    5.0937   -6.6765    3.3177 H   0  0  0  0  0  0  0  0  0  0  0  0
    4.7212   -8.0395    2.2807 H   0  0  0  0  0  0  0  0  0  0  0  0
    3.6404   -7.6431    3.5540 H   0  0  0  0  0  0  0  0  0  0  0  0
    5.3086   -5.9201    0.6118 H   0  0  0  0  0  0  0  0  0  0  0  0
    3.8209   -5.8450   -0.3221 H   0  0  0  0  0  0  0  0  0  0  0  0
    4.4291   -7.3862    0.1920 H   0  0  0  0  0  0  0  0  0  0  0  0
    4.4990   -4.5500    2.7400 H   0  0  0  0  0  0  0  0  0  0  0  0
    3.9005   -3.8494    0.4169 H   0  0  0  0  0  0  0  0  0  0  0  0
    2.2273   -3.7257    0.9248 H   0  0  0  0  0  0  0  0  0  0  0  0
    4.6209   -2.2303    2.0301 H   0  0  0  0  0  0  0  0  0  0  0  0
    3.3671   -1.5970    0.9750 H   0  0  0  0  0  0  0  0  0  0  0  0
    0.7242   -3.2650    5.3081 H   0  0  0  0  0  0  0  0  0  0  0  0
    2.2194   -2.5996    5.9457 H   0  0  0  0  0  0  0  0  0  0  0  0
    0.1291   -1.1431    4.3021 H   0  0  0  0  0  0  0  0  0  0  0  0
    0.4443   -1.0068    6.0181 H   0  0  0  0  0  0  0  0  0  0  0  0
    2.7872   -0.3043    5.4682 H   0  0  0  0  0  0  0  0  0  0  0  0
    4.0537    1.2743    3.4104 H   0  0  0  0  0  0  0  0  0  0  0  0
    4.5030    0.0804    2.2598 H   0  0  0  0  0  0  0  0  0  0  0  0
    4.7171   -0.2370    3.9780 H   0  0  0  0  0  0  0  0  0  0  0  0
    2.1164    0.1097    1.2555 H   0  0  0  0  0  0  0  0  0  0  0  0
    0.7426   -0.3186    2.2154 H   0  0  0  0  0  0  0  0  0  0  0  0
    2.3645    2.2543    2.3351 H   0  0  0  0  0  0  0  0  0  0  0  0
    0.7959    2.0751    1.6468 H   0  0  0  0  0  0  0  0  0  0  0  0
   -1.2850    2.1876    4.6181 H   0  0  0  0  0  0  0  0  0  0  0  0
   -0.9624    0.7522    3.6524 H   0  0  0  0  0  0  0  0  0  0  0  0
   -1.1911    2.3070    2.8776 H   0  0  0  0  0  0  0  0  0  0  0  0
    1.0342    4.2076    3.0660 H   0  0  0  0  0  0  0  0  0  0  0  0
    0.2977    4.0709    4.6580 H   0  0  0  0  0  0  0  0  0  0  0  0
   -0.2609    0.9925    6.2780 H   0  0  0  0  0  0  0  0  0  0  0  0
    0.5301    2.5035    6.6213 H   0  0  0  0  0  0  0  0  0  0  0  0
    1.2569    1.0101    7.1710 H   0  0  0  0  0  0  0  0  0  0  0  0
  2  1  1  1
  1 33  1  0
  1 34  1  0
  1 35  1  0
  2 10  1  0
  2 14  1  0
  2  3  1  0
  3  4  1  0
  3 36  1  0
  3 37  1  0
  4  5  1  0
  4 38  1  0
  4 39  1  0
  5  6  1  0
  5  7  1  0
  5 40  1  6
  6 41  1  0
  7  8  1  0
  7  9  1  0
  7 10  1  0
  8 42  1  0
  8 43  1  0
  8 44  1  0
  9 45  1  0
  9 46  1  0
  9 47  1  0
 10 11  1  0
 10 48  1  1
 11 12  1  0
 11 49  1  0
 11 50  1  0
 12 13  1  0
 12 51  1  0
 12 52  1  0
 13 18  1  0
 13 14  2  0
 14 15  1  0
 15 16  1  0
 15 53  1  0
 15 54  1  0
 16 17  1  0
 16 55  1  0
 16 56  1  0
 17 31  1  0
 17 18  1  0
 17 57  1  1
 18 19  1  1
 18 20  1  0
 19 58  1  0
 19 59  1  0
 19 60  1  0
 20 21  1  0
 20 61  1  0
 20 62  1  0
 21 22  1  0
 21 63  1  0
 21 64  1  0
 22 31  1  0
 22 23  1  6
 22 24  1  0
 23 65  1  0
 23 66  1  0
 23 67  1  0
 24 25  1  0
 24 68  1  0
 24 69  1  0
 25 29  2  0
 25 26  1  0
 26 27  2  0
 26 31  1  0
 27 28  1  0
 28 29  1  0
 29 30  1  0
 31 32  1  1
 32 70  1  0
 32 71  1  0
 32 72  1  0
M  CHG  1  30  -1
M  END
>  <i_m_ct_stereo_status>  (153) 
1

>  <s_m_source_file>  (153) 
/var/tmp/pbs.5076255.sched01/tmpio9qf6gp/4214r_5_m5.sdf

>  <i_m_source_file_index>  (153) 
20

>  <i_lp_mmshare_version>  (153) 
48012

>  <i_f3d_flags>  (153) 
0

>  <s_epik_input>  (153) 
W0NIMl0xW0NIMl1bQ0BASF0oW09IXSlDKFtDSDNdKShbQ0gzXSlbQ0BIXShbQ0BdMTJbQ0gzXSlbQ0gyXVtDSDJdQzM9QzJbQ0gyXVtDSDJdW0NASF00W0NAXTMoW0NIM10pW0NIMl1bQ0gyXVtDQEBdNShbQ0gzXSlbQ0BdNChbQ0gzXSljNmMoW0NIMl01KWMoPU8pb1tuSF02

>  <s_epik_cmdline>  (153) 
J2VwaWtfcHl0aG9uJywgJy1waHQnLCAnMi4wJywgJy1waCcsICc3LjAnLCAnLXRuJywgJzgnLCAnLW1hJywgJzIwMCcsICctaW1hZScsICc8aW5maWxlLm1hZT4nLCAnLW9tYWUnLCAnPG91dGZpbGUubWFlPic=

>  <r_epik_Ionization_Penalty>  (153) 
0.0909304

>  <r_epik_Ionization_Penalty_Charging>  (153) 
0.0909274

>  <r_epik_Ionization_Penalty_Neutral>  (153) 
3.00637e-06

>  <r_epik_State_Penalty>  (153) 
0.0139893

>  <r_epik_Charging_Adjusted_Penalty>  (153) 
0.104917

>  <i_epik_Tot_Q>  (153) 
-1

>  <i_epik_Tot_abs_Q>  (153) 
1

>  <s_lp_Force_Field>  (153) 
OPLS3e

>  <r_lp_Energy>  (153) 
82.0338

>  <b_lp_Chiralities_Consistent>  (153) 
1

>  <s_lp_Variant>  (153) 
45:0-1

>  <s_i_glide_gridfile>  (153) 
pfpi4k_grid

>  <i_i_glide_lignum>  (153) 
20

>  <i_i_glide_rotatable_bonds>  (153) 
1

>  <r_i_docking_score>  (153) 
-2.47474

>  <r_i_glide_ligand_efficiency>  (153) 
-0.0773355

>  <r_i_glide_ligand_efficiency_sa>  (153) 
-0.245525

>  <r_i_glide_ligand_efficiency_ln>  (153) 
-0.554161

>  <r_i_glide_gscore>  (153) 
-2.47474

>  <r_i_glide_lipo>  (153) 
-0.170952

>  <r_i_glide_hbond>  (153) 
-0.111321

>  <r_i_glide_metal>  (153) 
-0

>  <r_i_glide_rewards>  (153) 
-0.418486

>  <r_i_glide_evdw>  (153) 
-26.1579

>  <r_i_glide_ecoul>  (153) 
-3.10722

>  <r_i_glide_erotb>  (153) 
0

>  <r_i_glide_esite>  (153) 
0

>  <r_i_glide_emodel>  (153) 
-34.0185

>  <r_i_glide_energy>  (153) 
-29.2651

>  <r_i_glide_einternal>  (153) 
0.47962

>  <r_i_glide_intrahb_reward>  (153) 
-0

>  <i_i_glide_confnum>  (153) 
2

>  <i_i_glide_posenum>  (153) 
2

>  <r_i_glide_eff_state_penalty>  (153) 
0

>  <ligand_id>  (153) 
45

>  <original_smiles>  (153) 
CC12CCC(O)C(C)(C)C1CCC1=C2CCC2C1(C)CCC1(C)Cc3c([nH]oc3=O)C21C

>  <smiles>  (153) 
[H]OC1([H])C([H])([H])C([H])([H])C2(C([H])([H])[H])C3=C(C([H])([H])C([H])([H])C2([H])C1(C([H])([H])[H])C([H])([H])[H])C1(C([H])([H])[H])C([H])([H])C([H])([H])C2(C([H])([H])[H])C([H])([H])c4c(noc4[O-])C2(C([H])([H])[H])C1([H])C([H])([H])C3([H])[H]

$$$$
45:1:0
     RDKit          3D

 73 78  0  0  1  0  0  0  0  0999 V2000
    5.0271   -9.5551    2.1490 C   0  0  0  0  0  0  0  0  0  0  0  0
    4.3230   -8.4983    3.0432 C   0  0  2  0  0  0  0  0  0  0  0  0
    5.0338   -8.4083    4.4244 C   0  0  0  0  0  0  0  0  0  0  0  0
    4.8280   -9.6155    5.3599 C   0  0  0  0  0  0  0  0  0  0  0  0
    3.3477   -9.9287    5.6180 C   0  0  1  0  0  0  0  0  0  0  0  0
    2.8260   -8.9158    6.4442 O   0  0  0  0  0  0  0  0  0  0  0  0
    2.5413  -10.0958    4.3029 C   0  0  0  0  0  0  0  0  0  0  0  0
    2.9028  -11.4658    3.6758 C   0  0  0  0  0  0  0  0  0  0  0  0
    1.0287  -10.2456    4.6407 C   0  0  0  0  0  0  0  0  0  0  0  0
    2.8151   -8.9076    3.2841 C   0  0  1  0  0  0  0  0  0  0  0  0
    1.9796   -7.6494    3.5984 C   0  0  0  0  0  0  0  0  0  0  0  0
    2.0212   -6.6700    2.4340 C   0  0  0  0  0  0  0  0  0  0  0  0
    3.4347   -6.2811    2.0333 C   0  0  0  0  0  0  0  0  0  0  0  0
    4.4704   -7.1188    2.3278 C   0  0  0  0  0  0  0  0  0  0  0  0
    5.8761   -6.7391    1.8964 C   0  0  0  0  0  0  0  0  0  0  0  0
    6.0585   -5.2460    1.6336 C   0  0  0  0  0  0  0  0  0  0  0  0
    5.0067   -4.7227    0.6242 C   0  0  1  0  0  0  0  0  0  0  0  0
    3.5731   -4.9451    1.2424 C   0  0  1  0  0  0  0  0  0  0  0  0
    2.5213   -4.9849    0.1106 C   0  0  0  0  0  0  0  0  0  0  0  0
    3.2919   -3.7703    2.2044 C   0  0  0  0  0  0  0  0  0  0  0  0
    3.3796   -2.3944    1.5336 C   0  0  0  0  0  0  0  0  0  0  0  0
    4.7535   -2.0570    0.8726 C   0  0  2  0  0  0  0  0  0  0  0  0
    5.6920   -1.4716    1.9518 C   0  0  0  0  0  0  0  0  0  0  0  0
    4.4691   -0.9774   -0.2112 C   0  0  0  0  0  0  0  0  0  0  0  0
    3.8955   -1.8099   -1.3654 C   0  0  2  0  0  0  0  0  0  0  0  0
    4.7446   -3.0027   -1.3327 C   0  0  0  0  0  0  0  0  0  0  0  0
    5.0810   -3.4731   -2.4597 N   0  0  0  0  0  0  0  0  0  0  0  0
    4.6248   -2.5722   -3.4554 O   0  0  0  0  0  0  0  0  0  0  0  0
    4.1395   -1.4627   -2.8165 C   0  0  0  0  0  0  0  0  0  0  0  0
    3.8521   -0.3809   -3.3036 O   0  0  0  0  0  0  0  0  0  0  0  0
    5.3364   -3.2649    0.0504 C   0  0  2  0  0  0  0  0  0  0  0  0
    6.8782   -3.0966   -0.1426 C   0  0  0  0  0  0  0  0  0  0  0  0
    5.0706  -10.5427    2.5879 H   0  0  0  0  0  0  0  0  0  0  0  0
    6.0681   -9.3131    1.9501 H   0  0  0  0  0  0  0  0  0  0  0  0
    4.5277   -9.6580    1.1867 H   0  0  0  0  0  0  0  0  0  0  0  0
    6.1090   -8.2885    4.2995 H   0  0  0  0  0  0  0  0  0  0  0  0
    4.6943   -7.5121    4.9461 H   0  0  0  0  0  0  0  0  0  0  0  0
    5.3285  -10.4878    4.9445 H   0  0  0  0  0  0  0  0  0  0  0  0
    5.3255   -9.4311    6.3131 H   0  0  0  0  0  0  0  0  0  0  0  0
    3.2795  -10.8537    6.1957 H   0  0  0  0  0  0  0  0  0  0  0  0
    2.0066   -9.2424    6.8067 H   0  0  0  0  0  0  0  0  0  0  0  0
    2.7227  -11.5004    2.5987 H   0  0  0  0  0  0  0  0  0  0  0  0
    2.3276  -12.2807    4.1187 H   0  0  0  0  0  0  0  0  0  0  0  0
    3.9363  -11.7607    3.8433 H   0  0  0  0  0  0  0  0  0  0  0  0
    0.4196  -10.3258    3.7373 H   0  0  0  0  0  0  0  0  0  0  0  0
    0.6362   -9.4158    5.2244 H   0  0  0  0  0  0  0  0  0  0  0  0
    0.8280  -11.1343    5.2467 H   0  0  0  0  0  0  0  0  0  0  0  0
    2.4211   -9.2537    2.3285 H   0  0  0  0  0  0  0  0  0  0  0  0
    0.9284   -7.8692    3.7758 H   0  0  0  0  0  0  0  0  0  0  0  0
    2.3572   -7.1546    4.4938 H   0  0  0  0  0  0  0  0  0  0  0  0
    1.5373   -7.1315    1.5719 H   0  0  0  0  0  0  0  0  0  0  0  0
    1.4291   -5.7998    2.7081 H   0  0  0  0  0  0  0  0  0  0  0  0
    6.6159   -7.0436    2.6349 H   0  0  0  0  0  0  0  0  0  0  0  0
    6.1037   -7.2759    0.9750 H   0  0  0  0  0  0  0  0  0  0  0  0
    5.9963   -4.7033    2.5782 H   0  0  0  0  0  0  0  0  0  0  0  0
    7.0849   -5.1426    1.2822 H   0  0  0  0  0  0  0  0  0  0  0  0
    5.0942   -5.3940   -0.2270 H   0  0  0  0  0  0  0  0  0  0  0  0
    2.5324   -4.1294   -0.5509 H   0  0  0  0  0  0  0  0  0  0  0  0
    1.5031   -5.0642    0.4722 H   0  0  0  0  0  0  0  0  0  0  0  0
    2.6964   -5.8660   -0.4862 H   0  0  0  0  0  0  0  0  0  0  0  0
    2.2904   -3.8500    2.6256 H   0  0  0  0  0  0  0  0  0  0  0  0
    3.9620   -3.8115    3.0666 H   0  0  0  0  0  0  0  0  0  0  0  0
    2.5487   -2.3033    0.8305 H   0  0  0  0  0  0  0  0  0  0  0  0
    3.1537   -1.6442    2.2900 H   0  0  0  0  0  0  0  0  0  0  0  0
    6.6034   -1.0528    1.5265 H   0  0  0  0  0  0  0  0  0  0  0  0
    5.9801   -2.2240    2.6787 H   0  0  0  0  0  0  0  0  0  0  0  0
    5.2193   -0.6555    2.4946 H   0  0  0  0  0  0  0  0  0  0  0  0
    3.7619   -0.2147    0.1225 H   0  0  0  0  0  0  0  0  0  0  0  0
    5.3810   -0.4628   -0.5238 H   0  0  0  0  0  0  0  0  0  0  0  0
    7.4193   -3.0818    0.8010 H   0  0  0  0  0  0  0  0  0  0  0  0
    7.1356   -2.1673   -0.6534 H   0  0  0  0  0  0  0  0  0  0  0  0
    7.2930   -3.9103   -0.7317 H   0  0  0  0  0  0  0  0  0  0  0  0
    2.8477   -2.0712   -1.2271 H   0  0  0  0  0  0  0  0  0  0  0  0
  2  1  1  6
  1 33  1  0
  1 34  1  0
  1 35  1  0
  2 10  1  0
  2 14  1  0
  2  3  1  0
  3  4  1  0
  3 36  1  0
  3 37  1  0
  4  5  1  0
  4 38  1  0
  4 39  1  0
  5  6  1  0
  5  7  1  0
  5 40  1  1
  6 41  1  0
  7  8  1  0
  7  9  1  0
  7 10  1  0
  8 42  1  0
  8 43  1  0
  8 44  1  0
  9 45  1  0
  9 46  1  0
  9 47  1  0
 10 11  1  0
 10 48  1  6
 11 12  1  0
 11 49  1  0
 11 50  1  0
 12 13  1  0
 12 51  1  0
 12 52  1  0
 13 18  1  0
 13 14  2  0
 14 15  1  0
 15 16  1  0
 15 53  1  0
 15 54  1  0
 16 17  1  0
 16 55  1  0
 16 56  1  0
 17 31  1  0
 17 18  1  0
 17 57  1  6
 18 19  1  6
 18 20  1  0
 19 58  1  0
 19 59  1  0
 19 60  1  0
 20 21  1  0
 20 61  1  0
 20 62  1  0
 21 22  1  0
 21 63  1  0
 21 64  1  0
 22 31  1  0
 22 23  1  1
 22 24  1  0
 23 65  1  0
 23 66  1  0
 23 67  1  0
 24 68  1  0
 24 69  1  0
 24 25  1  0
 25 26  1  0
 25 73  1  6
 25 29  1  0
 26 27  2  0
 26 31  1  0
 27 28  1  0
 28 29  1  0
 29 30  2  0
 31 32  1  6
 32 70  1  0
 32 71  1  0
 32 72  1  0
M  END
>  <i_m_ct_stereo_status>  (154) 
1

>  <s_m_source_file>  (154) 
/var/tmp/pbs.5076255.sched01/tmpio9qf6gp/4214r_5_m5.sdf

>  <i_m_source_file_index>  (154) 
21

>  <i_lp_mmshare_version>  (154) 
48012

>  <i_f3d_flags>  (154) 
0

>  <s_epik_input>  (154) 
W0NIMl0xW0NIMl1bQ0BASF0oW09IXSlDKFtDSDNdKShbQ0gzXSlbQ0BIXShbQ0BdMTJbQ0gzXSlbQ0gyXVtDSDJdQzM9QzJbQ0gyXVtDSDJdW0NASF00W0NAXTMoW0NIM10pW0NIMl1bQ0gyXVtDQEBdNShbQ0gzXSlbQ0BdNChbQ0gzXSljNmMoW0NIMl01KWMoPU8pb1tuSF02

>  <s_epik_cmdline>  (154) 
J2VwaWtfcHl0aG9uJywgJy1waHQnLCAnMi4wJywgJy1waCcsICc3LjAnLCAnLXRuJywgJzgnLCAnLW1hJywgJzIwMCcsICctaW1hZScsICc8aW5maWxlLm1hZT4nLCAnLW9tYWUnLCAnPG91dGZpbGUubWFlPic=

>  <r_lp_tautomer_probability>  (154) 
0.242422

>  <r_epik_Ionization_Penalty>  (154) 
2.71357e-06

>  <r_epik_Ionization_Penalty_Charging>  (154) 
0

>  <r_epik_Ionization_Penalty_Neutral>  (154) 
2.71357e-06

>  <r_epik_State_Penalty>  (154) 
2.36534

>  <r_epik_Charging_Adjusted_Penalty>  (154) 
2.36534

>  <i_epik_Tot_Q>  (154) 
0

>  <i_epik_Tot_abs_Q>  (154) 
0

>  <s_epik_Chemistry_Notes>  (154) 
This compound has an imine and may undergo hydrolysis.

>  <s_lp_Force_Field>  (154) 
OPLS3e

>  <r_lp_Energy>  (154) 
66.9405

>  <b_lp_Chiralities_Consistent>  (154) 
1

>  <s_lp_Variant>  (154) 
45:0-2

>  <s_i_glide_gridfile>  (154) 
pfpi4k_grid

>  <i_i_glide_lignum>  (154) 
21

>  <i_i_glide_rotatable_bonds>  (154) 
1

>  <r_i_docking_score>  (154) 
-3.07947

>  <r_i_glide_ligand_efficiency>  (154) 
-0.0962335

>  <r_i_glide_ligand_efficiency_sa>  (154) 
-0.305522

>  <r_i_glide_ligand_efficiency_ln>  (154) 
-0.689578

>  <r_i_glide_gscore>  (154) 
-3.07947

>  <r_i_glide_lipo>  (154) 
-0.505826

>  <r_i_glide_hbond>  (154) 
0

>  <r_i_glide_metal>  (154) 
-0

>  <r_i_glide_rewards>  (154) 
-0.412484

>  <r_i_glide_evdw>  (154) 
-38.1596

>  <r_i_glide_ecoul>  (154) 
-1.59693

>  <r_i_glide_erotb>  (154) 
0

>  <r_i_glide_esite>  (154) 
-0.0136457

>  <r_i_glide_emodel>  (154) 
-47.0606

>  <r_i_glide_energy>  (154) 
-39.7565

>  <r_i_glide_einternal>  (154) 
0.438966

>  <r_i_glide_intrahb_reward>  (154) 
-0

>  <i_i_glide_confnum>  (154) 
1

>  <i_i_glide_posenum>  (154) 
7

>  <r_i_glide_eff_state_penalty>  (154) 
0

>  <ligand_id>  (154) 
45

>  <original_smiles>  (154) 
CC12CCC(O)C(C)(C)C1CCC1=C2CCC2C1(C)CCC1(C)Cc3c([nH]oc3=O)C21C

>  <smiles>  (154) 
[H]OC1([H])C([H])([H])C([H])([H])C2(C([H])([H])[H])C3=C(C([H])([H])C([H])([H])C2([H])C1(C([H])([H])[H])C([H])([H])[H])C1(C([H])([H])[H])C([H])([H])C([H])([H])C2(C([H])([H])[H])C([H])([H])C4([H])C(=O)ON=C4C2(C([H])([H])[H])C1([H])C([H])([H])C3([H])[H]

$$$$
45:1:1
     RDKit          3D

 73 78  0  0  1  0  0  0  0  0999 V2000
    4.9104   -9.5343    2.1568 C   0  0  0  0  0  0  0  0  0  0  0  0
    4.2216   -8.4670    3.0498 C   0  0  2  0  0  0  0  0  0  0  0  0
    4.9335   -8.3862    4.4312 C   0  0  0  0  0  0  0  0  0  0  0  0
    4.7109   -9.5911    5.3681 C   0  0  0  0  0  0  0  0  0  0  0  0
    3.2253   -9.8784    5.6271 C   0  0  1  0  0  0  0  0  0  0  0  0
    2.7212   -8.8432    6.4404 O   0  0  0  0  0  0  0  0  0  0  0  0
    2.4192  -10.0392    4.3091 C   0  0  0  0  0  0  0  0  0  0  0  0
    2.7593  -11.4198    3.6847 C   0  0  0  0  0  0  0  0  0  0  0  0
    0.9059  -10.1658    4.6469 C   0  0  0  0  0  0  0  0  0  0  0  0
    2.7081   -8.8557    3.2896 C   0  0  1  0  0  0  0  0  0  0  0  0
    1.8897   -7.5852    3.6021 C   0  0  0  0  0  0  0  0  0  0  0  0
    1.9449   -6.6080    2.4362 C   0  0  0  0  0  0  0  0  0  0  0  0
    3.3638   -6.2396    2.0348 C   0  0  0  0  0  0  0  0  0  0  0  0
    4.3876   -7.0906    2.3317 C   0  0  0  0  0  0  0  0  0  0  0  0
    5.7985   -6.7309    1.8997 C   0  0  0  0  0  0  0  0  0  0  0  0
    6.0016   -5.2408    1.6350 C   0  0  0  0  0  0  0  0  0  0  0  0
    4.9577   -4.7049    0.6242 C   0  0  1  0  0  0  0  0  0  0  0  0
    3.5208   -4.9079    1.2404 C   0  0  1  0  0  0  0  0  0  0  0  0
    2.4724   -4.9396    0.1045 C   0  0  0  0  0  0  0  0  0  0  0  0
    3.2547   -3.7271    2.2010 C   0  0  0  0  0  0  0  0  0  0  0  0
    3.3620   -2.3531    1.5290 C   0  0  0  0  0  0  0  0  0  0  0  0
    4.7409   -2.0357    0.8684 C   0  0  2  0  0  0  0  0  0  0  0  0
    5.6868   -1.4617    1.9471 C   0  0  0  0  0  0  0  0  0  0  0  0
    4.4724   -0.9537   -0.2174 C   0  0  0  0  0  0  0  0  0  0  0  0
    3.8867   -1.7808   -1.3698 C   0  0  2  0  0  0  0  0  0  0  0  0
    4.7203   -2.9840   -1.3358 C   0  0  0  0  0  0  0  0  0  0  0  0
    5.0544   -3.4586   -2.4621 N   0  0  0  0  0  0  0  0  0  0  0  0
    4.6121   -2.5526   -3.4591 O   0  0  0  0  0  0  0  0  0  0  0  0
    4.1318   -1.4396   -2.8222 C   0  0  0  0  0  0  0  0  0  0  0  0
    3.8476   -0.3579   -3.3121 O   0  0  0  0  0  0  0  0  0  0  0  0
    5.3075   -3.2529    0.0483 C   0  0  2  0  0  0  0  0  0  0  0  0
    6.8513   -3.1057   -0.1440 C   0  0  0  0  0  0  0  0  0  0  0  0
    4.9401  -10.5218    2.5971 H   0  0  0  0  0  0  0  0  0  0  0  0
    5.9548   -9.3071    1.9574 H   0  0  0  0  0  0  0  0  0  0  0  0
    4.4094   -9.6315    1.1945 H   0  0  0  0  0  0  0  0  0  0  0  0
    6.0099   -8.2799    4.3055 H   0  0  0  0  0  0  0  0  0  0  0  0
    4.6062   -7.4839    4.9501 H   0  0  0  0  0  0  0  0  0  0  0  0
    5.1990  -10.4701    4.9527 H   0  0  0  0  0  0  0  0  0  0  0  0
    5.2153   -9.4126    6.3187 H   0  0  0  0  0  0  0  0  0  0  0  0
    3.1299  -10.8028    6.2026 H   0  0  0  0  0  0  0  0  0  0  0  0
    3.0397   -8.9919    7.3263 H   0  0  0  0  0  0  0  0  0  0  0  0
    2.5821  -11.4501    2.6070 H   0  0  0  0  0  0  0  0  0  0  0  0
    2.1723  -12.2282    4.1264 H   0  0  0  0  0  0  0  0  0  0  0  0
    3.7890  -11.7266    3.8535 H   0  0  0  0  0  0  0  0  0  0  0  0
    0.2926  -10.2369    3.7450 H   0  0  0  0  0  0  0  0  0  0  0  0
    0.5308   -9.3306    5.2358 H   0  0  0  0  0  0  0  0  0  0  0  0
    0.6930  -11.0505    5.2553 H   0  0  0  0  0  0  0  0  0  0  0  0
    2.3094   -9.1969    2.3340 H   0  0  0  0  0  0  0  0  0  0  0  0
    0.8357   -7.7906    3.7803 H   0  0  0  0  0  0  0  0  0  0  0  0
    2.2727   -7.0943    4.4974 H   0  0  0  0  0  0  0  0  0  0  0  0
    1.4545   -7.0647    1.5752 H   0  0  0  0  0  0  0  0  0  0  0  0
    1.3648   -5.7292    2.7088 H   0  0  0  0  0  0  0  0  0  0  0  0
    6.5336   -7.0447    2.6389 H   0  0  0  0  0  0  0  0  0  0  0  0
    6.0187   -7.2722    0.9790 H   0  0  0  0  0  0  0  0  0  0  0  0
    5.9464   -4.6956    2.5787 H   0  0  0  0  0  0  0  0  0  0  0  0
    7.0293   -5.1522    1.2837 H   0  0  0  0  0  0  0  0  0  0  0  0
    5.0366   -5.3788   -0.2262 H   0  0  0  0  0  0  0  0  0  0  0  0
    2.4896   -4.0798   -0.5520 H   0  0  0  0  0  0  0  0  0  0  0  0
    1.4540   -5.0188    0.4647 H   0  0  0  0  0  0  0  0  0  0  0  0
    2.6387   -5.8196   -0.4976 H   0  0  0  0  0  0  0  0  0  0  0  0
    2.2521   -3.7919    2.6224 H   0  0  0  0  0  0  0  0  0  0  0  0
    3.9235   -3.7758    3.0638 H   0  0  0  0  0  0  0  0  0  0  0  0
    2.5326   -2.2517    0.8259 H   0  0  0  0  0  0  0  0  0  0  0  0
    3.1460   -1.5985    2.2843 H   0  0  0  0  0  0  0  0  0  0  0  0
    6.6040   -1.0560    1.5214 H   0  0  0  0  0  0  0  0  0  0  0  0
    5.9645   -2.2169    2.6754 H   0  0  0  0  0  0  0  0  0  0  0  0
    5.2252   -0.6382    2.4884 H   0  0  0  0  0  0  0  0  0  0  0  0
    3.7778   -0.1799    0.1158 H   0  0  0  0  0  0  0  0  0  0  0  0
    5.3915   -0.4530   -0.5304 H   0  0  0  0  0  0  0  0  0  0  0  0
    7.3922   -3.0966    0.7999 H   0  0  0  0  0  0  0  0  0  0  0  0
    7.1220   -2.1814   -0.6569 H   0  0  0  0  0  0  0  0  0  0  0  0
    7.2551   -3.9271   -0.7301 H   0  0  0  0  0  0  0  0  0  0  0  0
    2.8360   -2.0278   -1.2308 H   0  0  0  0  0  0  0  0  0  0  0  0
  2  1  1  6
  1 33  1  0
  1 34  1  0
  1 35  1  0
  2 10  1  0
  2 14  1  0
  2  3  1  0
  3  4  1  0
  3 36  1  0
  3 37  1  0
  4  5  1  0
  4 38  1  0
  4 39  1  0
  5  6  1  0
  5  7  1  0
  5 40  1  1
  6 41  1  0
  7  8  1  0
  7  9  1  0
  7 10  1  0
  8 42  1  0
  8 43  1  0
  8 44  1  0
  9 45  1  0
  9 46  1  0
  9 47  1  0
 10 11  1  0
 10 48  1  6
 11 12  1  0
 11 49  1  0
 11 50  1  0
 12 13  1  0
 12 51  1  0
 12 52  1  0
 13 18  1  0
 13 14  2  0
 14 15  1  0
 15 16  1  0
 15 53  1  0
 15 54  1  0
 16 17  1  0
 16 55  1  0
 16 56  1  0
 17 31  1  0
 17 18  1  0
 17 57  1  6
 18 19  1  6
 18 20  1  0
 19 58  1  0
 19 59  1  0
 19 60  1  0
 20 21  1  0
 20 61  1  0
 20 62  1  0
 21 22  1  0
 21 63  1  0
 21 64  1  0
 22 31  1  0
 22 23  1  1
 22 24  1  0
 23 65  1  0
 23 66  1  0
 23 67  1  0
 24 68  1  0
 24 69  1  0
 24 25  1  0
 25 26  1  0
 25 73  1  6
 25 29  1  0
 26 27  2  0
 26 31  1  0
 27 28  1  0
 28 29  1  0
 29 30  2  0
 31 32  1  6
 32 70  1  0
 32 71  1  0
 32 72  1  0
M  END
>  <i_m_ct_stereo_status>  (155) 
1

>  <s_m_source_file>  (155) 
/var/tmp/pbs.5076255.sched01/tmpio9qf6gp/4214r_5_m5.sdf

>  <i_m_source_file_index>  (155) 
21

>  <i_lp_mmshare_version>  (155) 
48012

>  <i_f3d_flags>  (155) 
0

>  <s_epik_input>  (155) 
W0NIMl0xW0NIMl1bQ0BASF0oW09IXSlDKFtDSDNdKShbQ0gzXSlbQ0BIXShbQ0BdMTJbQ0gzXSlbQ0gyXVtDSDJdQzM9QzJbQ0gyXVtDSDJdW0NASF00W0NAXTMoW0NIM10pW0NIMl1bQ0gyXVtDQEBdNShbQ0gzXSlbQ0BdNChbQ0gzXSljNmMoW0NIMl01KWMoPU8pb1tuSF02

>  <s_epik_cmdline>  (155) 
J2VwaWtfcHl0aG9uJywgJy1waHQnLCAnMi4wJywgJy1waCcsICc3LjAnLCAnLXRuJywgJzgnLCAnLW1hJywgJzIwMCcsICctaW1hZScsICc8aW5maWxlLm1hZT4nLCAnLW9tYWUnLCAnPG91dGZpbGUubWFlPic=

>  <r_lp_tautomer_probability>  (155) 
0.242422

>  <r_epik_Ionization_Penalty>  (155) 
2.71357e-06

>  <r_epik_Ionization_Penalty_Charging>  (155) 
0

>  <r_epik_Ionization_Penalty_Neutral>  (155) 
2.71357e-06

>  <r_epik_State_Penalty>  (155) 
2.36534

>  <r_epik_Charging_Adjusted_Penalty>  (155) 
2.36534

>  <i_epik_Tot_Q>  (155) 
0

>  <i_epik_Tot_abs_Q>  (155) 
0

>  <s_epik_Chemistry_Notes>  (155) 
This compound has an imine and may undergo hydrolysis.

>  <s_lp_Force_Field>  (155) 
OPLS3e

>  <r_lp_Energy>  (155) 
66.9405

>  <b_lp_Chiralities_Consistent>  (155) 
1

>  <s_lp_Variant>  (155) 
45:0-2

>  <s_i_glide_gridfile>  (155) 
pfpi4k_grid

>  <i_i_glide_lignum>  (155) 
21

>  <i_i_glide_rotatable_bonds>  (155) 
1

>  <r_i_docking_score>  (155) 
-3.00032

>  <r_i_glide_ligand_efficiency>  (155) 
-0.09376

>  <r_i_glide_ligand_efficiency_sa>  (155) 
-0.297669

>  <r_i_glide_ligand_efficiency_ln>  (155) 
-0.671853

>  <r_i_glide_gscore>  (155) 
-3.00032

>  <r_i_glide_lipo>  (155) 
-0.495008

>  <r_i_glide_hbond>  (155) 
0

>  <r_i_glide_metal>  (155) 
-0

>  <r_i_glide_rewards>  (155) 
-0.411613

>  <r_i_glide_evdw>  (155) 
-38.0757

>  <r_i_glide_ecoul>  (155) 
-1.16353

>  <r_i_glide_erotb>  (155) 
0

>  <r_i_glide_esite>  (155) 
-0.0153829

>  <r_i_glide_emodel>  (155) 
-46.2558

>  <r_i_glide_energy>  (155) 
-39.2393

>  <r_i_glide_einternal>  (155) 
0.504379

>  <r_i_glide_intrahb_reward>  (155) 
-0

>  <i_i_glide_confnum>  (155) 
1

>  <i_i_glide_posenum>  (155) 
1

>  <r_i_glide_eff_state_penalty>  (155) 
0

>  <ligand_id>  (155) 
45

>  <original_smiles>  (155) 
CC12CCC(O)C(C)(C)C1CCC1=C2CCC2C1(C)CCC1(C)Cc3c([nH]oc3=O)C21C

>  <smiles>  (155) 
[H]OC1([H])C([H])([H])C([H])([H])C2(C([H])([H])[H])C3=C(C([H])([H])C([H])([H])C2([H])C1(C([H])([H])[H])C([H])([H])[H])C1(C([H])([H])[H])C([H])([H])C([H])([H])C2(C([H])([H])[H])C([H])([H])C4([H])C(=O)ON=C4C2(C([H])([H])[H])C1([H])C([H])([H])C3([H])[H]

$$$$
45:1:2
     RDKit          3D

 73 78  0  0  1  0  0  0  0  0999 V2000
    1.0211   -7.0760    1.2876 C   0  0  0  0  0  0  0  0  0  0  0  0
    1.8794   -6.8790    2.5661 C   0  0  2  0  0  0  0  0  0  0  0  0
    3.2634   -7.5718    2.3941 C   0  0  0  0  0  0  0  0  0  0  0  0
    3.2430   -9.1117    2.4194 C   0  0  0  0  0  0  0  0  0  0  0  0
    2.5870   -9.6795    3.6876 C   0  0  1  0  0  0  0  0  0  0  0  0
    3.4567   -9.4446    4.7799 O   0  0  0  0  0  0  0  0  0  0  0  0
    1.1619   -9.1062    3.9336 C   0  0  0  0  0  0  0  0  0  0  0  0
    0.1877   -9.7592    2.9154 C   0  0  0  0  0  0  0  0  0  0  0  0
    0.6392   -9.5949    5.3161 C   0  0  0  0  0  0  0  0  0  0  0  0
    1.1463   -7.5186    3.8181 C   0  0  1  0  0  0  0  0  0  0  0  0
    1.6258   -6.8136    5.1041 C   0  0  0  0  0  0  0  0  0  0  0  0
    1.2743   -5.3338    5.0712 C   0  0  0  0  0  0  0  0  0  0  0  0
    1.8341   -4.6234    3.8434 C   0  0  0  0  0  0  0  0  0  0  0  0
    2.1164   -5.3395    2.7229 C   0  0  0  0  0  0  0  0  0  0  0  0
    2.6495   -4.6219    1.4894 C   0  0  0  0  0  0  0  0  0  0  0  0
    3.2880   -3.2732    1.8021 C   0  0  0  0  0  0  0  0  0  0  0  0
    2.3257   -2.3622    2.6036 C   0  0  1  0  0  0  0  0  0  0  0  0
    1.9845   -3.0716    3.9689 C   0  0  1  0  0  0  0  0  0  0  0  0
    0.6381   -2.5290    4.5220 C   0  0  0  0  0  0  0  0  0  0  0  0
    3.1495   -2.7724    4.9448 C   0  0  0  0  0  0  0  0  0  0  0  0
    3.4025   -1.2783    5.1658 C   0  0  0  0  0  0  0  0  0  0  0  0
    3.7192   -0.4497    3.8832 C   0  0  2  0  0  0  0  0  0  0  0  0
    5.2353   -0.5456    3.6001 C   0  0  0  0  0  0  0  0  0  0  0  0
    3.3351    1.0287    4.1947 C   0  0  0  0  0  0  0  0  0  0  0  0
    1.8172    1.0081    4.0280 C   0  0  2  0  0  0  0  0  0  0  0  0
    1.6298    0.1487    2.8544 C   0  0  0  0  0  0  0  0  0  0  0  0
    0.6974    0.4824    2.0783 N   0  0  0  0  0  0  0  0  0  0  0  0
    0.2480    1.7623    2.4976 O   0  0  0  0  0  0  0  0  0  0  0  0
    1.0376    2.1849    3.5149 C   0  0  0  0  0  0  0  0  0  0  0  0
    1.0609    3.3036    4.0290 O   0  0  0  0  0  0  0  0  0  0  0  0
    2.7881   -0.8383    2.6685 C   0  0  2  0  0  0  0  0  0  0  0  0
    3.4383   -0.4054    1.3192 C   0  0  0  0  0  0  0  0  0  0  0  0
    0.8844   -8.1153    1.0252 H   0  0  0  0  0  0  0  0  0  0  0  0
    1.4807   -6.6458    0.4010 H   0  0  0  0  0  0  0  0  0  0  0  0
    0.0305   -6.6357    1.3928 H   0  0  0  0  0  0  0  0  0  0  0  0
    3.7309   -7.2768    1.4560 H   0  0  0  0  0  0  0  0  0  0  0  0
    3.9351   -7.2252    3.1810 H   0  0  0  0  0  0  0  0  0  0  0  0
    2.7386   -9.4895    1.5327 H   0  0  0  0  0  0  0  0  0  0  0  0
    4.2628   -9.4926    2.3433 H   0  0  0  0  0  0  0  0  0  0  0  0
    2.5224  -10.7651    3.5872 H   0  0  0  0  0  0  0  0  0  0  0  0
    3.1496   -9.9577    5.5118 H   0  0  0  0  0  0  0  0  0  0  0  0
   -0.6940   -9.1444    2.7323 H   0  0  0  0  0  0  0  0  0  0  0  0
   -0.1732  -10.7279    3.2586 H   0  0  0  0  0  0  0  0  0  0  0  0
    0.6561   -9.9756    1.9606 H   0  0  0  0  0  0  0  0  0  0  0  0
   -0.3433   -9.1764    5.5385 H   0  0  0  0  0  0  0  0  0  0  0  0
    1.3024   -9.3425    6.1429 H   0  0  0  0  0  0  0  0  0  0  0  0
    0.5408  -10.6818    5.3508 H   0  0  0  0  0  0  0  0  0  0  0  0
    0.0925   -7.2484    3.7405 H   0  0  0  0  0  0  0  0  0  0  0  0
    1.1578   -7.2131    5.9997 H   0  0  0  0  0  0  0  0  0  0  0  0
    2.7020   -6.9346    5.2323 H   0  0  0  0  0  0  0  0  0  0  0  0
    0.1893   -5.2231    5.0649 H   0  0  0  0  0  0  0  0  0  0  0  0
    1.6346   -4.8852    5.9916 H   0  0  0  0  0  0  0  0  0  0  0  0
    3.3794   -5.2281    0.9593 H   0  0  0  0  0  0  0  0  0  0  0  0
    1.8202   -4.4572    0.8031 H   0  0  0  0  0  0  0  0  0  0  0  0
    4.2227   -3.4219    2.3428 H   0  0  0  0  0  0  0  0  0  0  0  0
    3.5534   -2.8588    0.8326 H   0  0  0  0  0  0  0  0  0  0  0  0
    1.4112   -2.3551    2.0147 H   0  0  0  0  0  0  0  0  0  0  0  0
    0.6140   -1.4547    4.6364 H   0  0  0  0  0  0  0  0  0  0  0  0
    0.4042   -2.9188    5.5125 H   0  0  0  0  0  0  0  0  0  0  0  0
   -0.1845   -2.7934    3.8581 H   0  0  0  0  0  0  0  0  0  0  0  0
    2.9554   -3.2081    5.9239 H   0  0  0  0  0  0  0  0  0  0  0  0
    4.0672   -3.2544    4.6051 H   0  0  0  0  0  0  0  0  0  0  0  0
    2.5443   -0.8782    5.7062 H   0  0  0  0  0  0  0  0  0  0  0  0
    4.2205   -1.1734    5.8779 H   0  0  0  0  0  0  0  0  0  0  0  0
    5.5572    0.1404    2.8191 H   0  0  0  0  0  0  0  0  0  0  0  0
    5.5263   -1.5474    3.2939 H   0  0  0  0  0  0  0  0  0  0  0  0
    5.8224   -0.2853    4.4816 H   0  0  0  0  0  0  0  0  0  0  0  0
    3.6341    1.3481    5.1947 H   0  0  0  0  0  0  0  0  0  0  0  0
    3.7919    1.7257    3.4866 H   0  0  0  0  0  0  0  0  0  0  0  0
    4.3869   -0.9054    1.1316 H   0  0  0  0  0  0  0  0  0  0  0  0
    3.6488    0.6648    1.2718 H   0  0  0  0  0  0  0  0  0  0  0  0
    2.7832   -0.6394    0.4802 H   0  0  0  0  0  0  0  0  0  0  0  0
    1.2991    0.6043    4.8934 H   0  0  0  0  0  0  0  0  0  0  0  0
  2  1  1  6
  1 33  1  0
  1 34  1  0
  1 35  1  0
  2 10  1  0
  2 14  1  0
  2  3  1  0
  3  4  1  0
  3 36  1  0
  3 37  1  0
  4  5  1  0
  4 38  1  0
  4 39  1  0
  5  6  1  0
  5  7  1  0
  5 40  1  6
  6 41  1  0
  7  8  1  0
  7  9  1  0
  7 10  1  0
  8 42  1  0
  8 43  1  0
  8 44  1  0
  9 45  1  0
  9 46  1  0
  9 47  1  0
 10 11  1  0
 10 48  1  6
 11 12  1  0
 11 49  1  0
 11 50  1  0
 12 13  1  0
 12 51  1  0
 12 52  1  0
 13 18  1  0
 13 14  2  0
 14 15  1  0
 15 16  1  0
 15 53  1  0
 15 54  1  0
 16 17  1  0
 16 55  1  0
 16 56  1  0
 17 31  1  0
 17 18  1  0
 17 57  1  6
 18 19  1  1
 18 20  1  0
 19 58  1  0
 19 59  1  0
 19 60  1  0
 20 21  1  0
 20 61  1  0
 20 62  1  0
 21 22  1  0
 21 63  1  0
 21 64  1  0
 22 31  1  0
 22 23  1  6
 22 24  1  0
 23 65  1  0
 23 66  1  0
 23 67  1  0
 24 68  1  0
 24 69  1  0
 24 25  1  0
 25 26  1  0
 25 73  1  1
 25 29  1  0
 26 27  2  0
 26 31  1  0
 27 28  1  0
 28 29  1  0
 29 30  2  0
 31 32  1  6
 32 70  1  0
 32 71  1  0
 32 72  1  0
M  END
>  <i_m_ct_stereo_status>  (156) 
1

>  <s_m_source_file>  (156) 
/var/tmp/pbs.5076255.sched01/tmpio9qf6gp/4214r_5_m5.sdf

>  <i_m_source_file_index>  (156) 
21

>  <i_lp_mmshare_version>  (156) 
48012

>  <i_f3d_flags>  (156) 
0

>  <s_epik_input>  (156) 
W0NIMl0xW0NIMl1bQ0BASF0oW09IXSlDKFtDSDNdKShbQ0gzXSlbQ0BIXShbQ0BdMTJbQ0gzXSlbQ0gyXVtDSDJdQzM9QzJbQ0gyXVtDSDJdW0NASF00W0NAXTMoW0NIM10pW0NIMl1bQ0gyXVtDQEBdNShbQ0gzXSlbQ0BdNChbQ0gzXSljNmMoW0NIMl01KWMoPU8pb1tuSF02

>  <s_epik_cmdline>  (156) 
J2VwaWtfcHl0aG9uJywgJy1waHQnLCAnMi4wJywgJy1waCcsICc3LjAnLCAnLXRuJywgJzgnLCAnLW1hJywgJzIwMCcsICctaW1hZScsICc8aW5maWxlLm1hZT4nLCAnLW9tYWUnLCAnPG91dGZpbGUubWFlPic=

>  <r_lp_tautomer_probability>  (156) 
0.242422

>  <r_epik_Ionization_Penalty>  (156) 
2.71357e-06

>  <r_epik_Ionization_Penalty_Charging>  (156) 
0

>  <r_epik_Ionization_Penalty_Neutral>  (156) 
2.71357e-06

>  <r_epik_State_Penalty>  (156) 
2.36534

>  <r_epik_Charging_Adjusted_Penalty>  (156) 
2.36534

>  <i_epik_Tot_Q>  (156) 
0

>  <i_epik_Tot_abs_Q>  (156) 
0

>  <s_epik_Chemistry_Notes>  (156) 
This compound has an imine and may undergo hydrolysis.

>  <s_lp_Force_Field>  (156) 
OPLS3e

>  <r_lp_Energy>  (156) 
66.9405

>  <b_lp_Chiralities_Consistent>  (156) 
1

>  <s_lp_Variant>  (156) 
45:0-2

>  <s_i_glide_gridfile>  (156) 
pfpi4k_grid

>  <i_i_glide_lignum>  (156) 
21

>  <i_i_glide_rotatable_bonds>  (156) 
1

>  <r_i_docking_score>  (156) 
-2.51384

>  <r_i_glide_ligand_efficiency>  (156) 
-0.0785576

>  <r_i_glide_ligand_efficiency_sa>  (156) 
-0.249405

>  <r_i_glide_ligand_efficiency_ln>  (156) 
-0.562918

>  <r_i_glide_gscore>  (156) 
-2.51384

>  <r_i_glide_lipo>  (156) 
-0.170175

>  <r_i_glide_hbond>  (156) 
0

>  <r_i_glide_metal>  (156) 
-0

>  <r_i_glide_rewards>  (156) 
-0.411613

>  <r_i_glide_evdw>  (156) 
-32.9968

>  <r_i_glide_ecoul>  (156) 
-0.616454

>  <r_i_glide_erotb>  (156) 
0

>  <r_i_glide_esite>  (156) 
-0.189746

>  <r_i_glide_emodel>  (156) 
-39.5839

>  <r_i_glide_energy>  (156) 
-33.6133

>  <r_i_glide_einternal>  (156) 
0.374536

>  <r_i_glide_intrahb_reward>  (156) 
-0

>  <i_i_glide_confnum>  (156) 
2

>  <i_i_glide_posenum>  (156) 
9

>  <r_i_glide_eff_state_penalty>  (156) 
0

>  <ligand_id>  (156) 
45

>  <original_smiles>  (156) 
CC12CCC(O)C(C)(C)C1CCC1=C2CCC2C1(C)CCC1(C)Cc3c([nH]oc3=O)C21C

>  <smiles>  (156) 
[H]OC1([H])C([H])([H])C([H])([H])C2(C([H])([H])[H])C3=C(C([H])([H])C([H])([H])C2([H])C1(C([H])([H])[H])C([H])([H])[H])C1(C([H])([H])[H])C([H])([H])C([H])([H])C2(C([H])([H])[H])C([H])([H])C4([H])C(=O)ON=C4C2(C([H])([H])[H])C1([H])C([H])([H])C3([H])[H]

$$$$
45:2:0
     RDKit          3D

 73 78  0  0  1  0  0  0  0  0999 V2000
    1.1631   -6.9878    1.2861 C   0  0  0  0  0  0  0  0  0  0  0  0
    1.9305   -6.7049    2.6066 C   0  0  2  0  0  0  0  0  0  0  0  0
    3.3591   -7.3218    2.5385 C   0  0  0  0  0  0  0  0  0  0  0  0
    3.4242   -8.8591    2.6097 C   0  0  0  0  0  0  0  0  0  0  0  0
    2.7189   -9.4317    3.8481 C   0  0  1  0  0  0  0  0  0  0  0  0
    3.5068   -9.1249    4.9836 O   0  0  0  0  0  0  0  0  0  0  0  0
    1.2518   -8.9334    3.9878 C   0  0  0  0  0  0  0  0  0  0  0  0
    0.3806   -9.6640    2.9285 C   0  0  0  0  0  0  0  0  0  0  0  0
    0.6649   -9.4164    5.3453 C   0  0  0  0  0  0  0  0  0  0  0  0
    1.1594   -7.3522    3.8290 C   0  0  1  0  0  0  0  0  0  0  0  0
    1.5224   -6.5870    5.1191 C   0  0  0  0  0  0  0  0  0  0  0  0
    1.0924   -5.1302    5.0215 C   0  0  0  0  0  0  0  0  0  0  0  0
    1.6904   -4.4158    3.8129 C   0  0  0  0  0  0  0  0  0  0  0  0
    2.0761   -5.1502    2.7345 C   0  0  0  0  0  0  0  0  0  0  0  0
    2.6404   -4.4406    1.5149 C   0  0  0  0  0  0  0  0  0  0  0  0
    3.2582   -3.0959    1.8595 C   0  0  0  0  0  0  0  0  0  0  0  0
    2.2370   -2.1607    2.5538 C   0  0  1  0  0  0  0  0  0  0  0  0
    1.7442   -2.8493    3.8980 C   0  0  1  0  0  0  0  0  0  0  0  0
    0.3144   -2.3777    4.2470 C   0  0  0  0  0  0  0  0  0  0  0  0
    2.7025   -2.4376    5.0397 C   0  0  0  0  0  0  0  0  0  0  0  0
    2.8888   -0.9224    5.1746 C   0  0  0  0  0  0  0  0  0  0  0  0
    3.5191   -0.2585    3.9286 C   0  0  2  0  0  0  0  0  0  0  0  0
    5.0274   -0.6025    3.8976 C   0  0  0  0  0  0  0  0  0  0  0  0
    3.3322    1.2861    4.0864 C   0  0  0  0  0  0  0  0  0  0  0  0
    2.1675    1.6862    3.1656 C   0  0  1  0  0  0  0  0  0  0  0  0
    1.6301    0.4121    2.6718 C   0  0  0  0  0  0  0  0  0  0  0  0
    0.3812    0.3545    2.5366 N   0  0  0  0  0  0  0  0  0  0  0  0
   -0.1512    1.5154    3.1591 O   0  0  0  0  0  0  0  0  0  0  0  0
    0.8706    2.2149    3.7134 C   0  0  0  0  0  0  0  0  0  0  0  0
    0.7862    3.1684    4.4889 O   0  0  0  0  0  0  0  0  0  0  0  0
    2.7340   -0.6397    2.6171 C   0  0  2  0  0  0  0  0  0  0  0  0
    3.5422   -0.2543    1.3422 C   0  0  0  0  0  0  0  0  0  0  0  0
    1.1056   -8.0384    1.0354 H   0  0  0  0  0  0  0  0  0  0  0  0
    1.6438   -6.5406    0.4188 H   0  0  0  0  0  0  0  0  0  0  0  0
    0.1423   -6.6113    1.3257 H   0  0  0  0  0  0  0  0  0  0  0  0
    3.8654   -7.0268    1.6207 H   0  0  0  0  0  0  0  0  0  0  0  0
    3.9624   -6.9148    3.3521 H   0  0  0  0  0  0  0  0  0  0  0  0
    2.9998   -9.2883    1.7046 H   0  0  0  0  0  0  0  0  0  0  0  0
    4.4668   -9.1814    2.6111 H   0  0  0  0  0  0  0  0  0  0  0  0
    2.7181  -10.5210    3.7721 H   0  0  0  0  0  0  0  0  0  0  0  0
    3.2197   -9.6765    5.6949 H   0  0  0  0  0  0  0  0  0  0  0  0
   -0.5134   -9.0970    2.6679 H   0  0  0  0  0  0  0  0  0  0  0  0
    0.0443  -10.6418    3.2742 H   0  0  0  0  0  0  0  0  0  0  0  0
    0.9224   -9.8803    2.0124 H   0  0  0  0  0  0  0  0  0  0  0  0
   -0.3505   -9.0441    5.4913 H   0  0  0  0  0  0  0  0  0  0  0  0
    1.2599   -9.1084    6.2046 H   0  0  0  0  0  0  0  0  0  0  0  0
    0.6202  -10.5058    5.4024 H   0  0  0  0  0  0  0  0  0  0  0  0
    0.0999   -7.1418    3.6815 H   0  0  0  0  0  0  0  0  0  0  0  0
    1.0269   -6.9915    5.9978 H   0  0  0  0  0  0  0  0  0  0  0  0
    2.5950   -6.6420    5.3102 H   0  0  0  0  0  0  0  0  0  0  0  0
    0.0062   -5.0861    4.9415 H   0  0  0  0  0  0  0  0  0  0  0  0
    1.3659   -4.6485    5.9538 H   0  0  0  0  0  0  0  0  0  0  0  0
    3.3940   -5.0404    1.0131 H   0  0  0  0  0  0  0  0  0  0  0  0
    1.8341   -4.2880    0.7993 H   0  0  0  0  0  0  0  0  0  0  0  0
    4.1333   -3.2522    2.4918 H   0  0  0  0  0  0  0  0  0  0  0  0
    3.6162   -2.7045    0.9093 H   0  0  0  0  0  0  0  0  0  0  0  0
    1.3927   -2.1457    1.8676 H   0  0  0  0  0  0  0  0  0  0  0  0
    0.2195   -1.3112    4.3998 H   0  0  0  0  0  0  0  0  0  0  0  0
   -0.0814   -2.8274    5.1562 H   0  0  0  0  0  0  0  0  0  0  0  0
   -0.3514   -2.6528    3.4392 H   0  0  0  0  0  0  0  0  0  0  0  0
    2.3290   -2.7851    6.0006 H   0  0  0  0  0  0  0  0  0  0  0  0
    3.6688   -2.9257    4.9079 H   0  0  0  0  0  0  0  0  0  0  0  0
    1.9317   -0.4543    5.4090 H   0  0  0  0  0  0  0  0  0  0  0  0
    3.5068   -0.7250    6.0508 H   0  0  0  0  0  0  0  0  0  0  0  0
    5.5689   -0.0411    3.1367 H   0  0  0  0  0  0  0  0  0  0  0  0
    5.1989   -1.6583    3.7037 H   0  0  0  0  0  0  0  0  0  0  0  0
    5.5053   -0.3682    4.8500 H   0  0  0  0  0  0  0  0  0  0  0  0
    3.1923    1.6044    5.1242 H   0  0  0  0  0  0  0  0  0  0  0  0
    4.2153    1.8115    3.7336 H   0  0  0  0  0  0  0  0  0  0  0  0
    4.4849   -0.7893    1.2668 H   0  0  0  0  0  0  0  0  0  0  0  0
    3.8113    0.8025    1.2966 H   0  0  0  0  0  0  0  0  0  0  0  0
    2.9628   -0.4706    0.4459 H   0  0  0  0  0  0  0  0  0  0  0  0
    2.4878    2.3225    2.3419 H   0  0  0  0  0  0  0  0  0  0  0  0
  2  1  1  6
  1 33  1  0
  1 34  1  0
  1 35  1  0
  2 10  1  0
  2 14  1  0
  2  3  1  0
  3  4  1  0
  3 36  1  0
  3 37  1  0
  4  5  1  0
  4 38  1  0
  4 39  1  0
  5  6  1  0
  5  7  1  0
  5 40  1  6
  6 41  1  0
  7  8  1  0
  7  9  1  0
  7 10  1  0
  8 42  1  0
  8 43  1  0
  8 44  1  0
  9 45  1  0
  9 46  1  0
  9 47  1  0
 10 11  1  0
 10 48  1  6
 11 12  1  0
 11 49  1  0
 11 50  1  0
 12 13  1  0
 12 51  1  0
 12 52  1  0
 13 18  1  0
 13 14  2  0
 14 15  1  0
 15 16  1  0
 15 53  1  0
 15 54  1  0
 16 17  1  0
 16 55  1  0
 16 56  1  0
 17 31  1  0
 17 18  1  0
 17 57  1  6
 18 19  1  1
 18 20  1  0
 19 58  1  0
 19 59  1  0
 19 60  1  0
 20 21  1  0
 20 61  1  0
 20 62  1  0
 21 22  1  0
 21 63  1  0
 21 64  1  0
 22 31  1  0
 22 23  1  6
 22 24  1  0
 23 65  1  0
 23 66  1  0
 23 67  1  0
 24 68  1  0
 24 69  1  0
 24 25  1  0
 25 26  1  0
 25 73  1  6
 25 29  1  0
 26 27  2  0
 26 31  1  0
 27 28  1  0
 28 29  1  0
 29 30  2  0
 31 32  1  6
 32 70  1  0
 32 71  1  0
 32 72  1  0
M  END
>  <i_m_ct_stereo_status>  (157) 
1

>  <s_m_source_file>  (157) 
/var/tmp/pbs.5076255.sched01/tmpio9qf6gp/4214r_5_m5.sdf

>  <i_m_source_file_index>  (157) 
22

>  <i_lp_mmshare_version>  (157) 
48012

>  <i_f3d_flags>  (157) 
0

>  <s_epik_input>  (157) 
W0NIMl0xW0NIMl1bQ0BASF0oW09IXSlDKFtDSDNdKShbQ0gzXSlbQ0BIXShbQ0BdMTJbQ0gzXSlbQ0gyXVtDSDJdQzM9QzJbQ0gyXVtDSDJdW0NASF00W0NAXTMoW0NIM10pW0NIMl1bQ0gyXVtDQEBdNShbQ0gzXSlbQ0BdNChbQ0gzXSljNmMoW0NIMl01KWMoPU8pb1tuSF02

>  <s_epik_cmdline>  (157) 
J2VwaWtfcHl0aG9uJywgJy1waHQnLCAnMi4wJywgJy1waCcsICc3LjAnLCAnLXRuJywgJzgnLCAnLW1hJywgJzIwMCcsICctaW1hZScsICc8aW5maWxlLm1hZT4nLCAnLW9tYWUnLCAnPG91dGZpbGUubWFlPic=

>  <r_lp_tautomer_probability>  (157) 
0.242422

>  <r_epik_Ionization_Penalty>  (157) 
2.71357e-06

>  <r_epik_Ionization_Penalty_Charging>  (157) 
0

>  <r_epik_Ionization_Penalty_Neutral>  (157) 
2.71357e-06

>  <r_epik_State_Penalty>  (157) 
2.36534

>  <r_epik_Charging_Adjusted_Penalty>  (157) 
2.36534

>  <i_epik_Tot_Q>  (157) 
0

>  <i_epik_Tot_abs_Q>  (157) 
0

>  <s_epik_Chemistry_Notes>  (157) 
This compound has an imine and may undergo hydrolysis.

>  <s_lp_Force_Field>  (157) 
OPLS3e

>  <r_lp_Energy>  (157) 
66.7212

>  <b_lp_Chiralities_Consistent>  (157) 
1

>  <s_lp_Variant>  (157) 
45:0-3

>  <s_i_glide_gridfile>  (157) 
pfpi4k_grid

>  <i_i_glide_lignum>  (157) 
22

>  <i_i_glide_rotatable_bonds>  (157) 
1

>  <r_i_docking_score>  (157) 
-2.47853

>  <r_i_glide_ligand_efficiency>  (157) 
-0.0774539

>  <r_i_glide_ligand_efficiency_sa>  (157) 
-0.245901

>  <r_i_glide_ligand_efficiency_ln>  (157) 
-0.555009

>  <r_i_glide_gscore>  (157) 
-2.47853

>  <r_i_glide_lipo>  (157) 
-0.180694

>  <r_i_glide_hbond>  (157) 
0

>  <r_i_glide_metal>  (157) 
-0

>  <r_i_glide_rewards>  (157) 
-0.411613

>  <r_i_glide_evdw>  (157) 
-31.1066

>  <r_i_glide_ecoul>  (157) 
-1.29128

>  <r_i_glide_erotb>  (157) 
0

>  <r_i_glide_esite>  (157) 
-0.137194

>  <r_i_glide_emodel>  (157) 
-37.1444

>  <r_i_glide_energy>  (157) 
-32.3979

>  <r_i_glide_einternal>  (157) 
0.46081

>  <r_i_glide_intrahb_reward>  (157) 
-0

>  <i_i_glide_confnum>  (157) 
2

>  <i_i_glide_posenum>  (157) 
1

>  <r_i_glide_eff_state_penalty>  (157) 
0

>  <ligand_id>  (157) 
45

>  <original_smiles>  (157) 
CC12CCC(O)C(C)(C)C1CCC1=C2CCC2C1(C)CCC1(C)Cc3c([nH]oc3=O)C21C

>  <smiles>  (157) 
[H]OC1([H])C([H])([H])C([H])([H])C2(C([H])([H])[H])C3=C(C([H])([H])C([H])([H])C2([H])C1(C([H])([H])[H])C([H])([H])[H])C1(C([H])([H])[H])C([H])([H])C([H])([H])C2(C([H])([H])[H])C([H])([H])C4([H])C(=O)ON=C4C2(C([H])([H])[H])C1([H])C([H])([H])C3([H])[H]

$$$$
45:2:1
     RDKit          3D

 73 78  0  0  1  0  0  0  0  0999 V2000
    1.2399   -6.9282    1.2884 C   0  0  0  0  0  0  0  0  0  0  0  0
    2.0638   -6.6477    2.5754 C   0  0  2  0  0  0  0  0  0  0  0  0
    3.4991   -7.2328    2.4299 C   0  0  0  0  0  0  0  0  0  0  0  0
    3.6015   -8.7708    2.4723 C   0  0  0  0  0  0  0  0  0  0  0  0
    2.9723   -9.3782    3.7329 C   0  0  1  0  0  0  0  0  0  0  0  0
    3.8022   -9.0692    4.8270 O   0  0  0  0  0  0  0  0  0  0  0  0
    1.5072   -8.9115    3.9469 C   0  0  0  0  0  0  0  0  0  0  0  0
    0.5957   -9.6457    2.9254 C   0  0  0  0  0  0  0  0  0  0  0  0
    0.9884   -9.4326    5.3189 C   0  0  0  0  0  0  0  0  0  0  0  0
    1.3705   -7.3333    3.8182 C   0  0  1  0  0  0  0  0  0  0  0  0
    1.7673   -6.5843    5.1080 C   0  0  0  0  0  0  0  0  0  0  0  0
    1.3107   -5.1325    5.0523 C   0  0  0  0  0  0  0  0  0  0  0  0
    1.8281   -4.3864    3.8329 C   0  0  0  0  0  0  0  0  0  0  0  0
    2.1823   -5.0988    2.7231 C   0  0  0  0  0  0  0  0  0  0  0  0
    2.6754   -4.3570    1.4985 C   0  0  0  0  0  0  0  0  0  0  0  0
    3.2750   -2.9988    1.8294 C   0  0  0  0  0  0  0  0  0  0  0  0
    2.2655   -2.1043    2.5920 C   0  0  1  0  0  0  0  0  0  0  0  0
    1.8493   -2.8265    3.9399 C   0  0  1  0  0  0  0  0  0  0  0  0
    0.4276   -2.3891    4.3623 C   0  0  0  0  0  0  0  0  0  0  0  0
    2.8546   -2.4109    5.0416 C   0  0  0  0  0  0  0  0  0  0  0  0
    3.0198   -0.8929    5.1946 C   0  0  0  0  0  0  0  0  0  0  0  0
    3.5785   -0.1946    3.9359 C   0  0  2  0  0  0  0  0  0  0  0  0
    5.0891   -0.5072    3.8281 C   0  0  0  0  0  0  0  0  0  0  0  0
    3.3642    1.3398    4.1328 C   0  0  0  0  0  0  0  0  0  0  0  0
    2.1529    1.7349    3.2697 C   0  0  1  0  0  0  0  0  0  0  0  0
    1.6306    0.4611    2.7739 C   0  0  0  0  0  0  0  0  0  0  0  0
    0.3728    0.3668    2.7050 N   0  0  0  0  0  0  0  0  0  0  0  0
   -0.1770    1.5008    3.3601 O   0  0  0  0  0  0  0  0  0  0  0  0
    0.8652    2.2165    3.8938 C   0  0  0  0  0  0  0  0  0  0  0  0
    0.8261    3.1582    4.6710 O   0  0  0  0  0  0  0  0  0  0  0  0
    2.7389   -0.5672    2.6614 C   0  0  2  0  0  0  0  0  0  0  0  0
    3.4793   -0.1512    1.3569 C   0  0  0  0  0  0  0  0  0  0  0  0
    1.1941   -7.9755    1.0214 H   0  0  0  0  0  0  0  0  0  0  0  0
    1.6675   -6.4548    0.4083 H   0  0  0  0  0  0  0  0  0  0  0  0
    0.2154   -6.5765    1.3850 H   0  0  0  0  0  0  0  0  0  0  0  0
    3.9553   -6.9151    1.4933 H   0  0  0  0  0  0  0  0  0  0  0  0
    4.1341   -6.8227    3.2168 H   0  0  0  0  0  0  0  0  0  0  0  0
    3.1432   -9.1938    1.5812 H   0  0  0  0  0  0  0  0  0  0  0  0
    4.6487   -9.0723    2.4168 H   0  0  0  0  0  0  0  0  0  0  0  0
    2.9852  -10.4691    3.6428 H   0  0  0  0  0  0  0  0  0  0  0  0
    3.7602   -8.1294    4.9797 H   0  0  0  0  0  0  0  0  0  0  0  0
   -0.3243   -9.0973    2.7132 H   0  0  0  0  0  0  0  0  0  0  0  0
    0.2956  -10.6400    3.2670 H   0  0  0  0  0  0  0  0  0  0  0  0
    1.0911   -9.8375    1.9761 H   0  0  0  0  0  0  0  0  0  0  0  0
   -0.0271   -9.0850    5.5251 H   0  0  0  0  0  0  0  0  0  0  0  0
    1.6198   -9.1335    6.1536 H   0  0  0  0  0  0  0  0  0  0  0  0
    0.9706  -10.5256    5.3627 H   0  0  0  0  0  0  0  0  0  0  0  0
    0.3006   -7.1476    3.7307 H   0  0  0  0  0  0  0  0  0  0  0  0
    1.3234   -7.0151    6.0047 H   0  0  0  0  0  0  0  0  0  0  0  0
    2.8482   -6.5992    5.2481 H   0  0  0  0  0  0  0  0  0  0  0  0
    0.2216   -5.1121    5.0271 H   0  0  0  0  0  0  0  0  0  0  0  0
    1.6203   -4.6612    5.9818 H   0  0  0  0  0  0  0  0  0  0  0  0
    3.4185   -4.9296    0.9483 H   0  0  0  0  0  0  0  0  0  0  0  0
    1.8344   -4.2110    0.8235 H   0  0  0  0  0  0  0  0  0  0  0  0
    4.1796   -3.1530    2.4197 H   0  0  0  0  0  0  0  0  0  0  0  0
    3.5810   -2.5847    0.8688 H   0  0  0  0  0  0  0  0  0  0  0  0
    1.3932   -2.0913    1.9452 H   0  0  0  0  0  0  0  0  0  0  0  0
    0.3261   -1.3281    4.5432 H   0  0  0  0  0  0  0  0  0  0  0  0
    0.0912   -2.8628    5.2796 H   0  0  0  0  0  0  0  0  0  0  0  0
   -0.2807   -2.6558    3.5888 H   0  0  0  0  0  0  0  0  0  0  0  0
    2.5377   -2.7804    6.0139 H   0  0  0  0  0  0  0  0  0  0  0  0
    3.8258   -2.8749    4.8580 H   0  0  0  0  0  0  0  0  0  0  0  0
    2.0668   -0.4471    5.4853 H   0  0  0  0  0  0  0  0  0  0  0  0
    3.6781   -0.7002    6.0431 H   0  0  0  0  0  0  0  0  0  0  0  0
    5.5825    0.0786    3.0532 H   0  0  0  0  0  0  0  0  0  0  0  0
    5.2743   -1.5553    3.6082 H   0  0  0  0  0  0  0  0  0  0  0  0
    5.6070   -0.2785    4.7600 H   0  0  0  0  0  0  0  0  0  0  0  0
    3.2647    1.6399    5.1801 H   0  0  0  0  0  0  0  0  0  0  0  0
    4.2175    1.8940    3.7480 H   0  0  0  0  0  0  0  0  0  0  0  0
    4.4266   -0.6648    1.2244 H   0  0  0  0  0  0  0  0  0  0  0  0
    3.7306    0.9141    1.3170 H   0  0  0  0  0  0  0  0  0  0  0  0
    2.8614   -0.3587    0.4829 H   0  0  0  0  0  0  0  0  0  0  0  0
    2.4200    2.3872    2.4406 H   0  0  0  0  0  0  0  0  0  0  0  0
  2  1  1  6
  1 33  1  0
  1 34  1  0
  1 35  1  0
  2 10  1  0
  2 14  1  0
  2  3  1  0
  3  4  1  0
  3 36  1  0
  3 37  1  0
  4  5  1  0
  4 38  1  0
  4 39  1  0
  5  6  1  0
  5  7  1  0
  5 40  1  6
  6 41  1  0
  7  8  1  0
  7  9  1  0
  7 10  1  0
  8 42  1  0
  8 43  1  0
  8 44  1  0
  9 45  1  0
  9 46  1  0
  9 47  1  0
 10 11  1  0
 10 48  1  6
 11 12  1  0
 11 49  1  0
 11 50  1  0
 12 13  1  0
 12 51  1  0
 12 52  1  0
 13 18  1  0
 13 14  2  0
 14 15  1  0
 15 16  1  0
 15 53  1  0
 15 54  1  0
 16 17  1  0
 16 55  1  0
 16 56  1  0
 17 31  1  0
 17 18  1  0
 17 57  1  6
 18 19  1  1
 18 20  1  0
 19 58  1  0
 19 59  1  0
 19 60  1  0
 20 21  1  0
 20 61  1  0
 20 62  1  0
 21 22  1  0
 21 63  1  0
 21 64  1  0
 22 31  1  0
 22 23  1  6
 22 24  1  0
 23 65  1  0
 23 66  1  0
 23 67  1  0
 24 68  1  0
 24 69  1  0
 24 25  1  0
 25 26  1  0
 25 73  1  6
 25 29  1  0
 26 27  2  0
 26 31  1  0
 27 28  1  0
 28 29  1  0
 29 30  2  0
 31 32  1  6
 32 70  1  0
 32 71  1  0
 32 72  1  0
M  END
>  <i_m_ct_stereo_status>  (158) 
1

>  <s_m_source_file>  (158) 
/var/tmp/pbs.5076255.sched01/tmpio9qf6gp/4214r_5_m5.sdf

>  <i_m_source_file_index>  (158) 
22

>  <i_lp_mmshare_version>  (158) 
48012

>  <i_f3d_flags>  (158) 
0

>  <s_epik_input>  (158) 
W0NIMl0xW0NIMl1bQ0BASF0oW09IXSlDKFtDSDNdKShbQ0gzXSlbQ0BIXShbQ0BdMTJbQ0gzXSlbQ0gyXVtDSDJdQzM9QzJbQ0gyXVtDSDJdW0NASF00W0NAXTMoW0NIM10pW0NIMl1bQ0gyXVtDQEBdNShbQ0gzXSlbQ0BdNChbQ0gzXSljNmMoW0NIMl01KWMoPU8pb1tuSF02

>  <s_epik_cmdline>  (158) 
J2VwaWtfcHl0aG9uJywgJy1waHQnLCAnMi4wJywgJy1waCcsICc3LjAnLCAnLXRuJywgJzgnLCAnLW1hJywgJzIwMCcsICctaW1hZScsICc8aW5maWxlLm1hZT4nLCAnLW9tYWUnLCAnPG91dGZpbGUubWFlPic=

>  <r_lp_tautomer_probability>  (158) 
0.242422

>  <r_epik_Ionization_Penalty>  (158) 
2.71357e-06

>  <r_epik_Ionization_Penalty_Charging>  (158) 
0

>  <r_epik_Ionization_Penalty_Neutral>  (158) 
2.71357e-06

>  <r_epik_State_Penalty>  (158) 
2.36534

>  <r_epik_Charging_Adjusted_Penalty>  (158) 
2.36534

>  <i_epik_Tot_Q>  (158) 
0

>  <i_epik_Tot_abs_Q>  (158) 
0

>  <s_epik_Chemistry_Notes>  (158) 
This compound has an imine and may undergo hydrolysis.

>  <s_lp_Force_Field>  (158) 
OPLS3e

>  <r_lp_Energy>  (158) 
66.7212

>  <b_lp_Chiralities_Consistent>  (158) 
1

>  <s_lp_Variant>  (158) 
45:0-3

>  <s_i_glide_gridfile>  (158) 
pfpi4k_grid

>  <i_i_glide_lignum>  (158) 
22

>  <i_i_glide_rotatable_bonds>  (158) 
1

>  <r_i_docking_score>  (158) 
-2.34764

>  <r_i_glide_ligand_efficiency>  (158) 
-0.0733638

>  <r_i_glide_ligand_efficiency_sa>  (158) 
-0.232916

>  <r_i_glide_ligand_efficiency_ln>  (158) 
-0.525701

>  <r_i_glide_gscore>  (158) 
-2.34764

>  <r_i_glide_lipo>  (158) 
-0.186446

>  <r_i_glide_hbond>  (158) 
0

>  <r_i_glide_metal>  (158) 
-0

>  <r_i_glide_rewards>  (158) 
-0.411613

>  <r_i_glide_evdw>  (158) 
-30.7841

>  <r_i_glide_ecoul>  (158) 
-0.60994

>  <r_i_glide_erotb>  (158) 
0

>  <r_i_glide_esite>  (158) 
-0.118885

>  <r_i_glide_emodel>  (158) 
-36.0725

>  <r_i_glide_energy>  (158) 
-31.3941

>  <r_i_glide_einternal>  (158) 
0.0207574

>  <r_i_glide_intrahb_reward>  (158) 
-0

>  <i_i_glide_confnum>  (158) 
1

>  <i_i_glide_posenum>  (158) 
28

>  <r_i_glide_eff_state_penalty>  (158) 
0

>  <ligand_id>  (158) 
45

>  <original_smiles>  (158) 
CC12CCC(O)C(C)(C)C1CCC1=C2CCC2C1(C)CCC1(C)Cc3c([nH]oc3=O)C21C

>  <smiles>  (158) 
[H]OC1([H])C([H])([H])C([H])([H])C2(C([H])([H])[H])C3=C(C([H])([H])C([H])([H])C2([H])C1(C([H])([H])[H])C([H])([H])[H])C1(C([H])([H])[H])C([H])([H])C([H])([H])C2(C([H])([H])[H])C([H])([H])C4([H])C(=O)ON=C4C2(C([H])([H])[H])C1([H])C([H])([H])C3([H])[H]

$$$$
45:2:2
     RDKit          3D

 73 78  0  0  1  0  0  0  0  0999 V2000
    3.2829   -0.2560    0.8955 C   0  0  0  0  0  0  0  0  0  0  0  0
    3.3158   -1.1316    2.1762 C   0  0  2  0  0  0  0  0  0  0  0  0
    4.7887   -1.3482    2.6233 C   0  0  0  0  0  0  0  0  0  0  0  0
    5.6157   -2.2796    1.7179 C   0  0  0  0  0  0  0  0  0  0  0  0
    4.9726   -3.6619    1.5347 C   0  0  1  0  0  0  0  0  0  0  0  0
    5.0713   -4.3547    2.7652 O   0  0  0  0  0  0  0  0  0  0  0  0
    3.5088   -3.5710    1.0206 C   0  0  0  0  0  0  0  0  0  0  0  0
    3.5323   -3.1721   -0.4819 C   0  0  0  0  0  0  0  0  0  0  0  0
    2.8744   -4.9921    1.0133 C   0  0  0  0  0  0  0  0  0  0  0  0
    2.6597   -2.5418    1.8857 C   0  0  1  0  0  0  0  0  0  0  0  0
    2.1376   -3.1418    3.2095 C   0  0  0  0  0  0  0  0  0  0  0  0
    1.0615   -2.2535    3.8170 C   0  0  0  0  0  0  0  0  0  0  0  0
    1.5323   -0.8200    4.0405 C   0  0  0  0  0  0  0  0  0  0  0  0
    2.5629   -0.3371    3.2973 C   0  0  0  0  0  0  0  0  0  0  0  0
    3.0081    1.1007    3.4959 C   0  0  0  0  0  0  0  0  0  0  0  0
    2.6883    1.6212    4.8864 C   0  0  0  0  0  0  0  0  0  0  0  0
    1.1715    1.5320    5.1840 C   0  0  1  0  0  0  0  0  0  0  0  0
    0.7178    0.0137    5.0922 C   0  0  1  0  0  0  0  0  0  0  0  0
   -0.7703   -0.0706    4.6621 C   0  0  0  0  0  0  0  0  0  0  0  0
    0.9005   -0.6323    6.4900 C   0  0  0  0  0  0  0  0  0  0  0  0
    0.2160    0.1349    7.6276 C   0  0  0  0  0  0  0  0  0  0  0  0
    0.7582    1.5677    7.8322 C   0  0  2  0  0  0  0  0  0  0  0  0
    2.1419    1.4792    8.5182 C   0  0  0  0  0  0  0  0  0  0  0  0
   -0.2470    2.3127    8.7709 C   0  0  0  0  0  0  0  0  0  0  0  0
   -1.0937    3.2182    7.8648 C   0  0  1  0  0  0  0  0  0  0  0  0
   -0.6974    2.8648    6.4960 C   0  0  0  0  0  0  0  0  0  0  0  0
   -1.6137    2.8829    5.6345 N   0  0  0  0  0  0  0  0  0  0  0  0
   -2.8372    3.0037    6.3453 O   0  0  0  0  0  0  0  0  0  0  0  0
   -2.5697    2.9997    7.6752 C   0  0  0  0  0  0  0  0  0  0  0  0
   -3.3812    2.9442    8.5966 O   0  0  0  0  0  0  0  0  0  0  0  0
    0.7466    2.3759    6.4786 C   0  0  2  0  0  0  0  0  0  0  0  0
    1.5828    3.6858    6.5979 C   0  0  0  0  0  0  0  0  0  0  0  0
    3.8507   -0.6570    0.0669 H   0  0  0  0  0  0  0  0  0  0  0  0
    3.7008    0.7362    1.0455 H   0  0  0  0  0  0  0  0  0  0  0  0
    2.2593   -0.1158    0.5486 H   0  0  0  0  0  0  0  0  0  0  0  0
    5.3175   -0.3972    2.6740 H   0  0  0  0  0  0  0  0  0  0  0  0
    4.7942   -1.7469    3.6393 H   0  0  0  0  0  0  0  0  0  0  0  0
    5.7816   -1.8049    0.7544 H   0  0  0  0  0  0  0  0  0  0  0  0
    6.6122   -2.4016    2.1376 H   0  0  0  0  0  0  0  0  0  0  0  0
    5.5615   -4.2329    0.8137 H   0  0  0  0  0  0  0  0  0  0  0  0
    5.9854   -4.4873    2.9637 H   0  0  0  0  0  0  0  0  0  0  0  0
    2.6072   -2.6841   -0.7920 H   0  0  0  0  0  0  0  0  0  0  0  0
    3.6733   -4.0339   -1.1361 H   0  0  0  0  0  0  0  0  0  0  0  0
    4.3579   -2.5128   -0.7343 H   0  0  0  0  0  0  0  0  0  0  0  0
    1.8290   -4.9597    0.7054 H   0  0  0  0  0  0  0  0  0  0  0  0
    2.9213   -5.4824    1.9857 H   0  0  0  0  0  0  0  0  0  0  0  0
    3.3945   -5.6641    0.3279 H   0  0  0  0  0  0  0  0  0  0  0  0
    1.7636   -2.3454    1.2990 H   0  0  0  0  0  0  0  0  0  0  0  0
    1.6800   -4.1183    3.0736 H   0  0  0  0  0  0  0  0  0  0  0  0
    2.9537   -3.2734    3.9204 H   0  0  0  0  0  0  0  0  0  0  0  0
    0.2116   -2.2231    3.1414 H   0  0  0  0  0  0  0  0  0  0  0  0
    0.7255   -2.7248    4.7340 H   0  0  0  0  0  0  0  0  0  0  0  0
    4.0759    1.2092    3.3348 H   0  0  0  0  0  0  0  0  0  0  0  0
    2.5068    1.7245    2.7544 H   0  0  0  0  0  0  0  0  0  0  0  0
    3.2661    1.0631    5.6238 H   0  0  0  0  0  0  0  0  0  0  0  0
    3.0679    2.6415    4.8923 H   0  0  0  0  0  0  0  0  0  0  0  0
    0.7113    2.0500    4.3434 H   0  0  0  0  0  0  0  0  0  0  0  0
   -1.4505    0.4000    5.3588 H   0  0  0  0  0  0  0  0  0  0  0  0
   -1.1289   -1.0956    4.5842 H   0  0  0  0  0  0  0  0  0  0  0  0
   -0.9214    0.4000    3.6896 H   0  0  0  0  0  0  0  0  0  0  0  0
    0.4917   -1.6404    6.5102 H   0  0  0  0  0  0  0  0  0  0  0  0
    1.9627   -0.7497    6.7089 H   0  0  0  0  0  0  0  0  0  0  0  0
   -0.8575    0.1631    7.4459 H   0  0  0  0  0  0  0  0  0  0  0  0
    0.3263   -0.4341    8.5514 H   0  0  0  0  0  0  0  0  0  0  0  0
    2.5117    2.4548    8.8328 H   0  0  0  0  0  0  0  0  0  0  0  0
    2.8934    1.0431    7.8639 H   0  0  0  0  0  0  0  0  0  0  0  0
    2.0977    0.8626    9.4166 H   0  0  0  0  0  0  0  0  0  0  0  0
   -0.8479    1.6410    9.3895 H   0  0  0  0  0  0  0  0  0  0  0  0
    0.2868    2.9597    9.4703 H   0  0  0  0  0  0  0  0  0  0  0  0
    2.6338    3.4919    6.7968 H   0  0  0  0  0  0  0  0  0  0  0  0
    1.2595    4.3397    7.4102 H   0  0  0  0  0  0  0  0  0  0  0  0
    1.5229    4.2678    5.6790 H   0  0  0  0  0  0  0  0  0  0  0  0
   -0.9214    4.2757    8.0591 H   0  0  0  0  0  0  0  0  0  0  0  0
  2  1  1  6
  1 33  1  0
  1 34  1  0
  1 35  1  0
  2 10  1  0
  2 14  1  0
  2  3  1  0
  3  4  1  0
  3 36  1  0
  3 37  1  0
  4  5  1  0
  4 38  1  0
  4 39  1  0
  5  6  1  0
  5  7  1  0
  5 40  1  6
  6 41  1  0
  7  8  1  0
  7  9  1  0
  7 10  1  0
  8 42  1  0
  8 43  1  0
  8 44  1  0
  9 45  1  0
  9 46  1  0
  9 47  1  0
 10 11  1  0
 10 48  1  6
 11 12  1  0
 11 49  1  0
 11 50  1  0
 12 13  1  0
 12 51  1  0
 12 52  1  0
 13 18  1  0
 13 14  2  0
 14 15  1  0
 15 16  1  0
 15 53  1  0
 15 54  1  0
 16 17  1  0
 16 55  1  0
 16 56  1  0
 17 31  1  0
 17 18  1  0
 17 57  1  6
 18 19  1  6
 18 20  1  0
 19 58  1  0
 19 59  1  0
 19 60  1  0
 20 21  1  0
 20 61  1  0
 20 62  1  0
 21 22  1  0
 21 63  1  0
 21 64  1  0
 22 31  1  0
 22 23  1  1
 22 24  1  0
 23 65  1  0
 23 66  1  0
 23 67  1  0
 24 68  1  0
 24 69  1  0
 24 25  1  0
 25 26  1  0
 25 73  1  1
 25 29  1  0
 26 27  2  0
 26 31  1  0
 27 28  1  0
 28 29  1  0
 29 30  2  0
 31 32  1  1
 32 70  1  0
 32 71  1  0
 32 72  1  0
M  END
>  <i_m_ct_stereo_status>  (159) 
1

>  <s_m_source_file>  (159) 
/var/tmp/pbs.5076255.sched01/tmpio9qf6gp/4214r_5_m5.sdf

>  <i_m_source_file_index>  (159) 
22

>  <i_lp_mmshare_version>  (159) 
48012

>  <i_f3d_flags>  (159) 
0

>  <s_epik_input>  (159) 
W0NIMl0xW0NIMl1bQ0BASF0oW09IXSlDKFtDSDNdKShbQ0gzXSlbQ0BIXShbQ0BdMTJbQ0gzXSlbQ0gyXVtDSDJdQzM9QzJbQ0gyXVtDSDJdW0NASF00W0NAXTMoW0NIM10pW0NIMl1bQ0gyXVtDQEBdNShbQ0gzXSlbQ0BdNChbQ0gzXSljNmMoW0NIMl01KWMoPU8pb1tuSF02

>  <s_epik_cmdline>  (159) 
J2VwaWtfcHl0aG9uJywgJy1waHQnLCAnMi4wJywgJy1waCcsICc3LjAnLCAnLXRuJywgJzgnLCAnLW1hJywgJzIwMCcsICctaW1hZScsICc8aW5maWxlLm1hZT4nLCAnLW9tYWUnLCAnPG91dGZpbGUubWFlPic=

>  <r_lp_tautomer_probability>  (159) 
0.242422

>  <r_epik_Ionization_Penalty>  (159) 
2.71357e-06

>  <r_epik_Ionization_Penalty_Charging>  (159) 
0

>  <r_epik_Ionization_Penalty_Neutral>  (159) 
2.71357e-06

>  <r_epik_State_Penalty>  (159) 
2.36534

>  <r_epik_Charging_Adjusted_Penalty>  (159) 
2.36534

>  <i_epik_Tot_Q>  (159) 
0

>  <i_epik_Tot_abs_Q>  (159) 
0

>  <s_epik_Chemistry_Notes>  (159) 
This compound has an imine and may undergo hydrolysis.

>  <s_lp_Force_Field>  (159) 
OPLS3e

>  <r_lp_Energy>  (159) 
66.7212

>  <b_lp_Chiralities_Consistent>  (159) 
1

>  <s_lp_Variant>  (159) 
45:0-3

>  <s_i_glide_gridfile>  (159) 
pfpi4k_grid

>  <i_i_glide_lignum>  (159) 
22

>  <i_i_glide_rotatable_bonds>  (159) 
1

>  <r_i_docking_score>  (159) 
-2.26959

>  <r_i_glide_ligand_efficiency>  (159) 
-0.0709245

>  <r_i_glide_ligand_efficiency_sa>  (159) 
-0.225171

>  <r_i_glide_ligand_efficiency_ln>  (159) 
-0.508222

>  <r_i_glide_gscore>  (159) 
-2.26959

>  <r_i_glide_lipo>  (159) 
-0.223436

>  <r_i_glide_hbond>  (159) 
0

>  <r_i_glide_metal>  (159) 
-0

>  <r_i_glide_rewards>  (159) 
-0.569996

>  <r_i_glide_evdw>  (159) 
-29.1082

>  <r_i_glide_ecoul>  (159) 
-0.138297

>  <r_i_glide_erotb>  (159) 
0

>  <r_i_glide_esite>  (159) 
0

>  <r_i_glide_emodel>  (159) 
-33.6499

>  <r_i_glide_energy>  (159) 
-29.2465

>  <r_i_glide_einternal>  (159) 
0.334939

>  <r_i_glide_intrahb_reward>  (159) 
-0

>  <i_i_glide_confnum>  (159) 
2

>  <i_i_glide_posenum>  (159) 
3

>  <r_i_glide_eff_state_penalty>  (159) 
0

>  <ligand_id>  (159) 
45

>  <original_smiles>  (159) 
CC12CCC(O)C(C)(C)C1CCC1=C2CCC2C1(C)CCC1(C)Cc3c([nH]oc3=O)C21C

>  <smiles>  (159) 
[H]OC1([H])C([H])([H])C([H])([H])C2(C([H])([H])[H])C3=C(C([H])([H])C([H])([H])C2([H])C1(C([H])([H])[H])C([H])([H])[H])C1(C([H])([H])[H])C([H])([H])C([H])([H])C2(C([H])([H])[H])C([H])([H])C4([H])C(=O)ON=C4C2(C([H])([H])[H])C1([H])C([H])([H])C3([H])[H]

$$$$
46:0:0
     RDKit          3D

 73 78  0  0  1  0  0  0  0  0999 V2000
    5.8017   -1.4819    2.8787 C   0  0  0  0  0  0  0  0  0  0  0  0
    4.4193   -1.2374    2.2492 C   0  0  1  0  0  0  0  0  0  0  0  0
    4.5051   -1.3736    0.7048 C   0  0  0  0  0  0  0  0  0  0  0  0
    4.6668   -2.8233    0.2483 C   0  0  0  0  0  0  0  0  0  0  0  0
    3.5651   -3.7554    0.7908 C   0  0  1  0  0  0  0  0  0  0  0  0
    3.8697   -5.1902    0.3155 C   0  0  0  0  0  0  0  0  0  0  0  0
    3.4553   -6.3080    1.2852 C   0  0  0  0  0  0  0  0  0  0  0  0
    2.2044   -5.9424    2.1037 C   0  0  2  0  0  0  0  0  0  0  0  0
    2.5051   -4.7178    3.0001 C   0  0  2  0  0  0  0  0  0  0  0  0
    1.1915   -4.2013    3.6162 C   0  0  0  0  0  0  0  0  0  0  0  0
    0.3242   -5.3179    4.1533 C   0  0  0  0  0  0  0  0  0  0  0  0
    0.4763   -6.6235    3.8655 C   0  0  0  0  0  0  0  0  0  0  0  0
   -0.4688   -7.6470    4.4747 C   0  0  0  0  0  0  0  0  0  0  0  0
   -0.9791   -8.5727    3.3800 C   0  0  0  0  0  0  0  0  0  0  0  0
   -2.1735   -8.6611    3.1105 O   0  0  0  0  0  0  0  0  0  0  0  0
    0.0911   -9.2513    2.5350 C   0  0  0  0  0  0  0  0  0  0  0  0
    0.9536   -8.1574    1.8852 C   0  0  0  0  0  0  0  0  0  0  0  0
    1.5681   -7.1379    2.9004 C   0  0  1  0  0  0  0  0  0  0  0  0
    2.6139   -7.8620    3.7742 C   0  0  0  0  0  0  0  0  0  0  0  0
    3.4359   -3.6457    2.3294 C   0  0  2  0  0  0  0  0  0  0  0  0
    3.3134   -2.1627    2.8210 C   0  0  2  0  0  0  0  0  0  0  0  0
    2.0068   -1.3873    2.5366 C   0  0  0  0  0  0  0  0  0  0  0  0
    2.4623    0.0299    2.6204 C   0  0  0  0  0  0  0  0  0  0  0  0
    1.6357    1.0185    2.6594 N   0  0  0  0  0  0  0  0  0  0  0  0
    1.9505    2.4757    2.7429 C   0  0  0  0  0  0  0  0  0  0  0  0
    1.2277    3.1554    3.9253 C   0  0  0  0  0  0  0  0  0  0  0  0
    1.5374    4.5827    4.0411 N   0  0  0  0  0  0  0  0  0  0  0  0
    2.4417    5.1817    4.9049 C   0  0  0  0  0  0  0  0  0  0  0  0
    2.3601    6.5404    4.6539 C   0  0  0  0  0  0  0  0  0  0  0  0
    1.4175    6.6951    3.6777 N   0  0  0  0  0  0  0  0  0  0  0  0
    0.9238    5.5208    3.3096 C   0  0  0  0  0  0  0  0  0  0  0  0
    3.9351    0.1705    2.5972 C   0  0  0  0  0  0  0  0  0  0  0  0
    6.5426   -0.7665    2.5048 H   0  0  0  0  0  0  0  0  0  0  0  0
    6.1541   -2.4852    2.6354 H   0  0  0  0  0  0  0  0  0  0  0  0
    5.7621   -1.3910    3.9635 H   0  0  0  0  0  0  0  0  0  0  0  0
    3.6097   -0.9719    0.2323 H   0  0  0  0  0  0  0  0  0  0  0  0
    5.3344   -0.7763    0.3190 H   0  0  0  0  0  0  0  0  0  0  0  0
    4.6491   -2.8424   -0.8392 H   0  0  0  0  0  0  0  0  0  0  0  0
    5.6534   -3.1875    0.5366 H   0  0  0  0  0  0  0  0  0  0  0  0
    2.6142   -3.4499    0.3477 H   0  0  0  0  0  0  0  0  0  0  0  0
    3.3112   -5.3145   -0.5949 H   0  0  0  0  0  0  0  0  0  0  0  0
    4.9201   -5.3171    0.0225 H   0  0  0  0  0  0  0  0  0  0  0  0
    3.3139   -7.2414    0.7254 H   0  0  0  0  0  0  0  0  0  0  0  0
    4.2792   -6.4773    1.9741 H   0  0  0  0  0  0  0  0  0  0  0  0
    1.4543   -5.6201    1.3838 H   0  0  0  0  0  0  0  0  0  0  0  0
    3.0779   -5.0692    3.8569 H   0  0  0  0  0  0  0  0  0  0  0  0
    1.4028   -3.5338    4.4544 H   0  0  0  0  0  0  0  0  0  0  0  0
    0.5999   -3.6545    2.8856 H   0  0  0  0  0  0  0  0  0  0  0  0
   -0.4939   -4.9980    4.7808 H   0  0  0  0  0  0  0  0  0  0  0  0
    0.0397   -8.2057    5.2625 H   0  0  0  0  0  0  0  0  0  0  0  0
   -1.3327   -7.1478    4.9151 H   0  0  0  0  0  0  0  0  0  0  0  0
    0.7046   -9.9287    3.1325 H   0  0  0  0  0  0  0  0  0  0  0  0
   -0.3941   -9.8767    1.7856 H   0  0  0  0  0  0  0  0  0  0  0  0
    1.7300   -8.6398    1.2912 H   0  0  0  0  0  0  0  0  0  0  0  0
    0.3202   -7.6317    1.1677 H   0  0  0  0  0  0  0  0  0  0  0  0
    3.4027   -8.3083    3.1680 H   0  0  0  0  0  0  0  0  0  0  0  0
    2.1574   -8.6630    4.3620 H   0  0  0  0  0  0  0  0  0  0  0  0
    3.0658   -7.1731    4.4881 H   0  0  0  0  0  0  0  0  0  0  0  0
    4.4251   -3.9531    2.6643 H   0  0  0  0  0  0  0  0  0  0  0  0
    3.4520   -2.1788    3.9038 H   0  0  0  0  0  0  0  0  0  0  0  0
    1.6267   -1.5861    1.5359 H   0  0  0  0  0  0  0  0  0  0  0  0
    1.2152   -1.5538    3.2634 H   0  0  0  0  0  0  0  0  0  0  0  0
    3.0300    2.6138    2.8379 H   0  0  0  0  0  0  0  0  0  0  0  0
    1.6244    2.9118    1.7956 H   0  0  0  0  0  0  0  0  0  0  0  0
    0.1346    3.0666    3.8476 H   0  0  0  0  0  0  0  0  0  0  0  0
    1.5355    2.7067    4.8665 H   0  0  0  0  0  0  0  0  0  0  0  0
    3.0575    4.6245    5.6017 H   0  0  0  0  0  0  0  0  0  0  0  0
    2.9095    7.3463    5.0998 H   0  0  0  0  0  0  0  0  0  0  0  0
    0.1721    5.3684    2.5465 H   0  0  0  0  0  0  0  0  0  0  0  0
    4.2791    0.4971    3.5821 H   0  0  0  0  0  0  0  0  0  0  0  0
    4.2108    0.8720    1.8163 H   0  0  0  0  0  0  0  0  0  0  0  0
    0.6485    0.7925    2.5418 H   0  0  0  0  0  0  0  0  0  0  0  0
    1.0765    7.5580    3.2514 H   0  0  0  0  0  0  0  0  0  0  0  0
  2  1  1  1
  1 33  1  0
  1 34  1  0
  1 35  1  0
  2 21  1  0
  2 32  1  0
  2  3  1  0
  3  4  1  0
  3 36  1  0
  3 37  1  0
  4  5  1  0
  4 38  1  0
  4 39  1  0
  5 20  1  0
  5  6  1  0
  5 40  1  6
  6  7  1  0
  6 41  1  0
  6 42  1  0
  7  8  1  0
  7 43  1  0
  7 44  1  0
  8 18  1  0
  8  9  1  0
  8 45  1  6
  9 10  1  0
  9 20  1  0
  9 46  1  1
 10 11  1  0
 10 47  1  0
 10 48  1  0
 11 12  2  0
 11 49  1  0
 12 18  1  0
 12 13  1  0
 13 14  1  0
 13 50  1  0
 13 51  1  0
 14 15  2  0
 14 16  1  0
 16 17  1  0
 16 52  1  0
 16 53  1  0
 17 18  1  0
 17 54  1  0
 17 55  1  0
 18 19  1  1
 19 56  1  0
 19 57  1  0
 19 58  1  0
 20 21  1  0
 20 59  1  1
 21 22  1  0
 21 60  1  1
 22 23  1  0
 22 61  1  0
 22 62  1  0
 23 24  2  3
 23 32  1  0
 24 25  1  0
 24 72  1  0
 25 26  1  0
 25 63  1  0
 25 64  1  0
 26 27  1  0
 26 65  1  0
 26 66  1  0
 27 31  1  0
 27 28  1  0
 28 29  2  0
 28 67  1  0
 29 30  1  0
 29 68  1  0
 30 31  2  0
 30 73  1  0
 31 69  1  0
 32 70  1  0
 32 71  1  0
M  CHG  2  24   1  30   1
M  END
>  <i_m_ct_stereo_status>  (160) 
1

>  <s_m_source_file>  (160) 
/var/tmp/pbs.5076255.sched01/tmpio9qf6gp/4214r_5_m5.sdf

>  <i_m_source_file_index>  (160) 
23

>  <i_lp_mmshare_version>  (160) 
48012

>  <i_f3d_flags>  (160) 
0

>  <s_epik_input>  (160) 
W2NIXTFuW2NIXVtjSF1uMVtDSDJdW0NIMl0vTj1DKFtDSDJdMilcW0NIMl1bQ0BIXShbQ0BdMjNbQ0gzXSlbQ0BASF00W0NAQEhdKFtDSDJdW0NIMl0zKVtDSDJdW0NIMl1bQ0BASF01W0NAQEhdNFtDSDJdW0NIXT1DNltDQEBdNShbQ0gzXSlbQ0gyXVtDSDJdQyg9TylbQ0gyXTY=

>  <s_epik_cmdline>  (160) 
J2VwaWtfcHl0aG9uJywgJy1waHQnLCAnMi4wJywgJy1waCcsICc3LjAnLCAnLXRuJywgJzgnLCAnLW1hJywgJzIwMCcsICctaW1hZScsICc8aW5maWxlLm1hZT4nLCAnLW9tYWUnLCAnPG91dGZpbGUubWFlPic=

>  <r_lp_tautomer_probability>  (160) 
0.99995

>  <r_epik_Ionization_Penalty>  (160) 
0.452236

>  <r_epik_Ionization_Penalty_Charging>  (160) 
0.0639471

>  <r_epik_Ionization_Penalty_Neutral>  (160) 
0.388289

>  <r_epik_State_Penalty>  (160) 
0.84458

>  <r_epik_Charging_Adjusted_Penalty>  (160) 
0.908527

>  <i_epik_Tot_Q>  (160) 
2

>  <i_epik_Tot_abs_Q>  (160) 
2

>  <s_epik_Chemistry_Notes>  (160) 
This compound has an imine and may undergo hydrolysis.

>  <s_lp_Force_Field>  (160) 
OPLS3e

>  <r_lp_Energy>  (160) 
69.1678

>  <b_lp_Chiralities_Consistent>  (160) 
1

>  <s_lp_Variant>  (160) 
46:0-1

>  <s_i_glide_gridfile>  (160) 
pfpi4k_grid

>  <i_i_glide_lignum>  (160) 
23

>  <i_i_glide_rotatable_bonds>  (160) 
3

>  <r_i_docking_score>  (160) 
-3.86079

>  <r_i_glide_ligand_efficiency>  (160) 
-0.12065

>  <r_i_glide_ligand_efficiency_sa>  (160) 
-0.383039

>  <r_i_glide_ligand_efficiency_ln>  (160) 
-0.864536

>  <r_i_glide_gscore>  (160) 
-3.86079

>  <r_i_glide_lipo>  (160) 
-0.181369

>  <r_i_glide_hbond>  (160) 
-0.2

>  <r_i_glide_metal>  (160) 
-0

>  <r_i_glide_rewards>  (160) 
-0.438787

>  <r_i_glide_evdw>  (160) 
-23.8994

>  <r_i_glide_ecoul>  (160) 
-11.6822

>  <r_i_glide_erotb>  (160) 
0.209984

>  <r_i_glide_esite>  (160) 
-0.303316

>  <r_i_glide_emodel>  (160) 
-45.6152

>  <r_i_glide_energy>  (160) 
-35.5816

>  <r_i_glide_einternal>  (160) 
0.0395928

>  <r_i_glide_intrahb_reward>  (160) 
-0

>  <i_i_glide_confnum>  (160) 
3

>  <i_i_glide_posenum>  (160) 
6

>  <r_i_glide_eff_state_penalty>  (160) 
0

>  <ligand_id>  (160) 
46

>  <original_smiles>  (160) 
CC12CCC3CCC4C(CC=C5CC(=O)CCC54C)C3C1CC(=NCCn1ccnc1)C2

>  <smiles>  (160) 
[H]C1=C2C([H])([H])C(=O)C([H])([H])C([H])([H])C2(C([H])([H])[H])C2([H])C([H])([H])C([H])([H])C3([H])C([H])([H])C([H])([H])C4(C([H])([H])[H])C([H])([H])C(=[N+]([H])C([H])([H])C([H])([H])n5c([H])c([H])[n+]([H])c5[H])C([H])([H])C4([H])C3([H])C2([H])C1([H])[H]

$$$$
46:0:1
     RDKit          3D

 73 78  0  0  1  0  0  0  0  0999 V2000
    5.9439   -1.1735    2.5891 C   0  0  0  0  0  0  0  0  0  0  0  0
    4.5810   -1.1656    1.8798 C   0  0  1  0  0  0  0  0  0  0  0  0
    4.7565   -1.3686    0.3501 C   0  0  0  0  0  0  0  0  0  0  0  0
    5.1578   -2.8017   -0.0190 C   0  0  0  0  0  0  0  0  0  0  0  0
    4.1820   -3.8642    0.5362 C   0  0  1  0  0  0  0  0  0  0  0  0
    4.7081   -5.2671    0.1511 C   0  0  0  0  0  0  0  0  0  0  0  0
    4.4203   -6.3821    1.1647 C   0  0  0  0  0  0  0  0  0  0  0  0
    3.0933   -6.1635    1.9072 C   0  0  2  0  0  0  0  0  0  0  0  0
    3.1546   -4.8592    2.7431 C   0  0  2  0  0  0  0  0  0  0  0  0
    1.7386   -4.5242    3.2485 C   0  0  0  0  0  0  0  0  0  0  0  0
    0.9933   -5.7297    3.7804 C   0  0  0  0  0  0  0  0  0  0  0  0
    1.3747   -7.0092    3.5951 C   0  0  0  0  0  0  0  0  0  0  0  0
    0.5815   -8.1427    4.2492 C   0  0  0  0  0  0  0  0  0  0  0  0
    0.3195   -9.2565    3.2438 C   0  0  0  0  0  0  0  0  0  0  0  0
   -0.8023   -9.7196    3.0583 O   0  0  0  0  0  0  0  0  0  0  0  0
    1.5040   -9.7431    2.4430 C   0  0  0  0  0  0  0  0  0  0  0  0
    2.2009   -8.5515    1.7669 C   0  0  0  0  0  0  0  0  0  0  0  0
    2.5936   -7.3987    2.7422 C   0  0  1  0  0  0  0  0  0  0  0  0
    3.6951   -7.9106    3.7076 C   0  0  0  0  0  0  0  0  0  0  0  0
    3.9649   -3.6966    2.0615 C   0  0  2  0  0  0  0  0  0  0  0  0
    3.6033   -2.2246    2.4600 C   0  0  2  0  0  0  0  0  0  0  0  0
    2.2076   -1.6673    2.0751 C   0  0  0  0  0  0  0  0  0  0  0  0
    2.4343   -0.1943    2.0962 C   0  0  0  0  0  0  0  0  0  0  0  0
    1.4628    0.6398    2.0889 N   0  0  0  0  0  0  0  0  0  0  0  0
    1.5404    2.1140    2.1029 C   0  0  0  0  0  0  0  0  0  0  0  0
    1.0728    2.7156    3.4436 C   0  0  0  0  0  0  0  0  0  0  0  0
    1.4662    4.1357    3.6240 N   0  0  0  0  0  0  0  0  0  0  0  0
    2.6502    4.5925    4.1457 C   0  0  0  0  0  0  0  0  0  0  0  0
    2.5713    5.9626    4.1236 C   0  0  0  0  0  0  0  0  0  0  0  0
    1.3516    6.2703    3.5955 N   0  0  0  0  0  0  0  0  0  0  0  0
    0.6807    5.1602    3.3081 C   0  0  0  0  0  0  0  0  0  0  0  0
    3.8725    0.1807    2.1367 C   0  0  0  0  0  0  0  0  0  0  0  0
    6.5793   -0.3675    2.2286 H   0  0  0  0  0  0  0  0  0  0  0  0
    6.4766   -2.1082    2.4189 H   0  0  0  0  0  0  0  0  0  0  0  0
    5.8242   -1.0467    3.6662 H   0  0  0  0  0  0  0  0  0  0  0  0
    3.8283   -1.1398   -0.1742 H   0  0  0  0  0  0  0  0  0  0  0  0
    5.4937   -0.6641   -0.0426 H   0  0  0  0  0  0  0  0  0  0  0  0
    5.1936   -2.8826   -1.1051 H   0  0  0  0  0  0  0  0  0  0  0  0
    6.1717   -2.9958    0.3253 H   0  0  0  0  0  0  0  0  0  0  0  0
    3.2193   -3.7247    0.0527 H   0  0  0  0  0  0  0  0  0  0  0  0
    4.2277   -5.5382   -0.7882 H   0  0  0  0  0  0  0  0  0  0  0  0
    5.7753   -5.2557   -0.0686 H   0  0  0  0  0  0  0  0  0  0  0  0
    4.4421   -7.3424    0.6486 H   0  0  0  0  0  0  0  0  0  0  0  0
    5.2357   -6.4026    1.8947 H   0  0  0  0  0  0  0  0  0  0  0  0
    2.3386   -5.9977    1.1324 H   0  0  0  0  0  0  0  0  0  0  0  0
    3.7210   -5.0853    3.6486 H   0  0  0  0  0  0  0  0  0  0  0  0
    1.7982   -3.7977    4.0608 H   0  0  0  0  0  0  0  0  0  0  0  0
    1.1179   -4.1009    2.4661 H   0  0  0  0  0  0  0  0  0  0  0  0
    0.1089   -5.5094    4.3626 H   0  0  0  0  0  0  0  0  0  0  0  0
    1.1459   -8.5448    5.0874 H   0  0  0  0  0  0  0  0  0  0  0  0
   -0.3660   -7.7768    4.6352 H   0  0  0  0  0  0  0  0  0  0  0  0
    2.1855  -10.2963    3.0901 H   0  0  0  0  0  0  0  0  0  0  0  0
    1.1349  -10.4349    1.6919 H   0  0  0  0  0  0  0  0  0  0  0  0
    3.0680   -8.9382    1.2336 H   0  0  0  0  0  0  0  0  0  0  0  0
    1.5212   -8.1704    1.0014 H   0  0  0  0  0  0  0  0  0  0  0  0
    4.5740   -8.2637    3.1687 H   0  0  0  0  0  0  0  0  0  0  0  0
    3.3434   -8.7447    4.3204 H   0  0  0  0  0  0  0  0  0  0  0  0
    4.0120   -7.1318    4.4017 H   0  0  0  0  0  0  0  0  0  0  0  0
    4.9688   -3.8361    2.4627 H   0  0  0  0  0  0  0  0  0  0  0  0
    3.6765   -2.1627    3.5476 H   0  0  0  0  0  0  0  0  0  0  0  0
    1.9095   -1.9815    1.0773 H   0  0  0  0  0  0  0  0  0  0  0  0
    1.4231   -1.9167    2.7786 H   0  0  0  0  0  0  0  0  0  0  0  0
    2.5686    2.4254    1.8849 H   0  0  0  0  0  0  0  0  0  0  0  0
    0.9040    2.4040    1.2751 H   0  0  0  0  0  0  0  0  0  0  0  0
   -0.0128    2.6359    3.5627 H   0  0  0  0  0  0  0  0  0  0  0  0
    1.5370    2.1724    4.2724 H   0  0  0  0  0  0  0  0  0  0  0  0
    3.4449    3.9261    4.4759 H   0  0  0  0  0  0  0  0  0  0  0  0
    3.2957    6.7093    4.4252 H   0  0  0  0  0  0  0  0  0  0  0  0
   -0.3022    5.1052    2.8609 H   0  0  0  0  0  0  0  0  0  0  0  0
    4.0942    0.5655    3.1328 H   0  0  0  0  0  0  0  0  0  0  0  0
    4.1251    0.9355    1.3924 H   0  0  0  0  0  0  0  0  0  0  0  0
    0.5220    0.2709    1.9216 H   0  0  0  0  0  0  0  0  0  0  0  0
    1.0102    7.2128    3.3718 H   0  0  0  0  0  0  0  0  0  0  0  0
  2  1  1  1
  1 33  1  0
  1 34  1  0
  1 35  1  0
  2 21  1  0
  2 32  1  0
  2  3  1  0
  3  4  1  0
  3 36  1  0
  3 37  1  0
  4  5  1  0
  4 38  1  0
  4 39  1  0
  5 20  1  0
  5  6  1  0
  5 40  1  6
  6  7  1  0
  6 41  1  0
  6 42  1  0
  7  8  1  0
  7 43  1  0
  7 44  1  0
  8 18  1  0
  8  9  1  0
  8 45  1  6
  9 10  1  0
  9 20  1  0
  9 46  1  1
 10 11  1  0
 10 47  1  0
 10 48  1  0
 11 12  2  0
 11 49  1  0
 12 18  1  0
 12 13  1  0
 13 14  1  0
 13 50  1  0
 13 51  1  0
 14 15  2  0
 14 16  1  0
 16 17  1  0
 16 52  1  0
 16 53  1  0
 17 18  1  0
 17 54  1  0
 17 55  1  0
 18 19  1  1
 19 56  1  0
 19 57  1  0
 19 58  1  0
 20 21  1  0
 20 59  1  1
 21 22  1  0
 21 60  1  1
 22 23  1  0
 22 61  1  0
 22 62  1  0
 23 24  2  3
 23 32  1  0
 24 25  1  0
 24 72  1  0
 25 26  1  0
 25 63  1  0
 25 64  1  0
 26 27  1  0
 26 65  1  0
 26 66  1  0
 27 31  1  0
 27 28  1  0
 28 29  2  0
 28 67  1  0
 29 30  1  0
 29 68  1  0
 30 31  2  0
 30 73  1  0
 31 69  1  0
 32 70  1  0
 32 71  1  0
M  CHG  2  24   1  30   1
M  END
>  <i_m_ct_stereo_status>  (161) 
1

>  <s_m_source_file>  (161) 
/var/tmp/pbs.5076255.sched01/tmpio9qf6gp/4214r_5_m5.sdf

>  <i_m_source_file_index>  (161) 
23

>  <i_lp_mmshare_version>  (161) 
48012

>  <i_f3d_flags>  (161) 
0

>  <s_epik_input>  (161) 
W2NIXTFuW2NIXVtjSF1uMVtDSDJdW0NIMl0vTj1DKFtDSDJdMilcW0NIMl1bQ0BIXShbQ0BdMjNbQ0gzXSlbQ0BASF00W0NAQEhdKFtDSDJdW0NIMl0zKVtDSDJdW0NIMl1bQ0BASF01W0NAQEhdNFtDSDJdW0NIXT1DNltDQEBdNShbQ0gzXSlbQ0gyXVtDSDJdQyg9TylbQ0gyXTY=

>  <s_epik_cmdline>  (161) 
J2VwaWtfcHl0aG9uJywgJy1waHQnLCAnMi4wJywgJy1waCcsICc3LjAnLCAnLXRuJywgJzgnLCAnLW1hJywgJzIwMCcsICctaW1hZScsICc8aW5maWxlLm1hZT4nLCAnLW9tYWUnLCAnPG91dGZpbGUubWFlPic=

>  <r_lp_tautomer_probability>  (161) 
0.99995

>  <r_epik_Ionization_Penalty>  (161) 
0.452236

>  <r_epik_Ionization_Penalty_Charging>  (161) 
0.0639471

>  <r_epik_Ionization_Penalty_Neutral>  (161) 
0.388289

>  <r_epik_State_Penalty>  (161) 
0.84458

>  <r_epik_Charging_Adjusted_Penalty>  (161) 
0.908527

>  <i_epik_Tot_Q>  (161) 
2

>  <i_epik_Tot_abs_Q>  (161) 
2

>  <s_epik_Chemistry_Notes>  (161) 
This compound has an imine and may undergo hydrolysis.

>  <s_lp_Force_Field>  (161) 
OPLS3e

>  <r_lp_Energy>  (161) 
69.1678

>  <b_lp_Chiralities_Consistent>  (161) 
1

>  <s_lp_Variant>  (161) 
46:0-1

>  <s_i_glide_gridfile>  (161) 
pfpi4k_grid

>  <i_i_glide_lignum>  (161) 
23

>  <i_i_glide_rotatable_bonds>  (161) 
3

>  <r_i_docking_score>  (161) 
-3.78372

>  <r_i_glide_ligand_efficiency>  (161) 
-0.118241

>  <r_i_glide_ligand_efficiency_sa>  (161) 
-0.375392

>  <r_i_glide_ligand_efficiency_ln>  (161) 
-0.847278

>  <r_i_glide_gscore>  (161) 
-3.78372

>  <r_i_glide_lipo>  (161) 
-0.46768

>  <r_i_glide_hbond>  (161) 
-0.2

>  <r_i_glide_metal>  (161) 
-0

>  <r_i_glide_rewards>  (161) 
-0.438787

>  <r_i_glide_evdw>  (161) 
-24.1639

>  <r_i_glide_ecoul>  (161) 
-8.88155

>  <r_i_glide_erotb>  (161) 
0.209984

>  <r_i_glide_esite>  (161) 
-0.346809

>  <r_i_glide_emodel>  (161) 
-42.7282

>  <r_i_glide_energy>  (161) 
-33.0454

>  <r_i_glide_einternal>  (161) 
0.54716

>  <r_i_glide_intrahb_reward>  (161) 
-0

>  <i_i_glide_confnum>  (161) 
3

>  <i_i_glide_posenum>  (161) 
13

>  <r_i_glide_eff_state_penalty>  (161) 
0

>  <ligand_id>  (161) 
46

>  <original_smiles>  (161) 
CC12CCC3CCC4C(CC=C5CC(=O)CCC54C)C3C1CC(=NCCn1ccnc1)C2

>  <smiles>  (161) 
[H]C1=C2C([H])([H])C(=O)C([H])([H])C([H])([H])C2(C([H])([H])[H])C2([H])C([H])([H])C([H])([H])C3([H])C([H])([H])C([H])([H])C4(C([H])([H])[H])C([H])([H])C(=[N+]([H])C([H])([H])C([H])([H])n5c([H])c([H])[n+]([H])c5[H])C([H])([H])C4([H])C3([H])C2([H])C1([H])[H]

$$$$
46:0:2
     RDKit          3D

 73 78  0  0  1  0  0  0  0  0999 V2000
    6.0511   -1.3369    2.6137 C   0  0  0  0  0  0  0  0  0  0  0  0
    4.6995   -1.2067    1.9209 C   0  0  1  0  0  0  0  0  0  0  0  0
    4.8542   -1.4064    0.3948 C   0  0  0  0  0  0  0  0  0  0  0  0
    5.1304   -2.8678    0.0306 C   0  0  0  0  0  0  0  0  0  0  0  0
    4.0756   -3.8523    0.5759 C   0  0  1  0  0  0  0  0  0  0  0  0
    4.5287   -5.2750    0.2018 C   0  0  0  0  0  0  0  0  0  0  0  0
    4.1279   -6.3792    1.1960 C   0  0  0  0  0  0  0  0  0  0  0  0
    2.8195   -6.0581    1.9351 C   0  0  2  0  0  0  0  0  0  0  0  0
    2.9826   -4.7743    2.7748 C   0  0  2  0  0  0  0  0  0  0  0  0
    1.5969   -4.3375    3.2852 C   0  0  0  0  0  0  0  0  0  0  0  0
    0.7621   -5.4824    3.8184 C   0  0  0  0  0  0  0  0  0  0  0  0
    1.0512   -6.7870    3.6371 C   0  0  0  0  0  0  0  0  0  0  0  0
    0.1602   -7.8545    4.2707 C   0  0  0  0  0  0  0  0  0  0  0  0
   -0.1973   -8.9009    3.2245 C   0  0  0  0  0  0  0  0  0  0  0  0
   -1.3686   -9.1847    2.9569 O   0  0  0  0  0  0  0  0  0  0  0  0
    0.9507   -9.5066    2.4481 C   0  0  0  0  0  0  0  0  0  0  0  0
    1.7429   -8.3714    1.7726 C   0  0  0  0  0  0  0  0  0  0  0  0
    2.2191   -7.2559    2.7538 C   0  0  1  0  0  0  0  0  0  0  0  0
    3.2786   -7.8646    3.7069 C   0  0  0  0  0  0  0  0  0  0  0  0
    3.8724   -3.6797    2.0943 C   0  0  2  0  0  0  0  0  0  0  0  0
    3.6435   -2.1908    2.5075 C   0  0  2  0  0  0  0  0  0  0  0  0
    2.3085   -1.5193    2.1309 C   0  0  0  0  0  0  0  0  0  0  0  0
    2.6973   -0.0956    2.1388 C   0  0  0  0  0  0  0  0  0  0  0  0
    1.8269    0.8035    2.0799 N   0  0  0  0  0  0  0  0  0  0  0  0
    1.9810    2.2754    2.1689 C   0  0  0  0  0  0  0  0  0  0  0  0
    1.2715    2.8879    3.4099 C   0  0  0  0  0  0  0  0  0  0  0  0
   -0.2221    2.7488    3.4887 N   0  0  0  0  0  0  0  0  0  0  0  0
   -0.9913    3.1949    4.5401 C   0  0  0  0  0  0  0  0  0  0  0  0
   -2.2688    2.8331    4.2171 C   0  0  0  0  0  0  0  0  0  0  0  0
   -2.2057    2.1987    3.0270 N   0  0  0  0  0  0  0  0  0  0  0  0
   -0.9870    2.2043    2.5392 C   0  0  0  0  0  0  0  0  0  0  0  0
    4.1241    0.1874    2.1788 C   0  0  0  0  0  0  0  0  0  0  0  0
    6.7678   -0.6070    2.2475 H   0  0  0  0  0  0  0  0  0  0  0  0
    6.4795   -2.3240    2.4319 H   0  0  0  0  0  0  0  0  0  0  0  0
    5.9063   -1.1782    3.6825 H   0  0  0  0  0  0  0  0  0  0  0  0
    3.9504   -1.0906   -0.1290 H   0  0  0  0  0  0  0  0  0  0  0  0
    5.6610   -0.7686    0.0181 H   0  0  0  0  0  0  0  0  0  0  0  0
    5.1584   -2.9359   -1.0560 H   0  0  0  0  0  0  0  0  0  0  0  0
    6.1235   -3.1380    0.3826 H   0  0  0  0  0  0  0  0  0  0  0  0
    3.1348   -3.6550    0.0758 H   0  0  0  0  0  0  0  0  0  0  0  0
    4.0086   -5.4866   -0.7245 H   0  0  0  0  0  0  0  0  0  0  0  0
    5.5951   -5.3239   -0.0489 H   0  0  0  0  0  0  0  0  0  0  0  0
    4.0711   -7.3266    0.6560 H   0  0  0  0  0  0  0  0  0  0  0  0
    4.9323   -6.4745    1.9342 H   0  0  0  0  0  0  0  0  0  0  0  0
    2.0808   -5.8327    1.1629 H   0  0  0  0  0  0  0  0  0  0  0  0
    3.5325   -5.0478    3.6775 H   0  0  0  0  0  0  0  0  0  0  0  0
    1.7187   -3.6248    4.1072 H   0  0  0  0  0  0  0  0  0  0  0  0
    1.0095   -3.8634    2.5050 H   0  0  0  0  0  0  0  0  0  0  0  0
   -0.0996   -5.1763    4.4034 H   0  0  0  0  0  0  0  0  0  0  0  0
    0.6802   -8.3176    5.1037 H   0  0  0  0  0  0  0  0  0  0  0  0
   -0.7514   -7.4082    4.6532 H   0  0  0  0  0  0  0  0  0  0  0  0
    1.5929  -10.1067    3.0954 H   0  0  0  0  0  0  0  0  0  0  0  0
    0.5624  -10.1890    1.6940 H   0  0  0  0  0  0  0  0  0  0  0  0
    2.5805   -8.8191    1.2388 H   0  0  0  0  0  0  0  0  0  0  0  0
    1.1036   -7.9263    1.0091 H   0  0  0  0  0  0  0  0  0  0  0  0
    4.1264   -8.2817    3.1582 H   0  0  0  0  0  0  0  0  0  0  0  0
    2.8627   -8.6765    4.3175 H   0  0  0  0  0  0  0  0  0  0  0  0
    3.6568   -7.1159    4.4087 H   0  0  0  0  0  0  0  0  0  0  0  0
    4.8615   -3.8974    2.4894 H   0  0  0  0  0  0  0  0  0  0  0  0
    3.7224   -2.1421    3.5985 H   0  0  0  0  0  0  0  0  0  0  0  0
    1.9757   -1.8109    1.1416 H   0  0  0  0  0  0  0  0  0  0  0  0
    1.5044   -1.6906    2.8311 H   0  0  0  0  0  0  0  0  0  0  0  0
    3.0452    2.5751    2.1696 H   0  0  0  0  0  0  0  0  0  0  0  0
    1.5349    2.7138    1.2745 H   0  0  0  0  0  0  0  0  0  0  0  0
    1.7082    2.4397    4.3288 H   0  0  0  0  0  0  0  0  0  0  0  0
    1.4827    3.9785    3.4376 H   0  0  0  0  0  0  0  0  0  0  0  0
   -0.5800    3.7180    5.4119 H   0  0  0  0  0  0  0  0  0  0  0  0
   -3.1866    2.9687    4.7643 H   0  0  0  0  0  0  0  0  0  0  0  0
   -0.7240    1.8483    1.5632 H   0  0  0  0  0  0  0  0  0  0  0  0
    4.3884    0.5563    3.1685 H   0  0  0  0  0  0  0  0  0  0  0  0
    4.3714    0.9013    1.4035 H   0  0  0  0  0  0  0  0  0  0  0  0
    0.8876    0.4513    1.9449 H   0  0  0  0  0  0  0  0  0  0  0  0
   -2.9683    1.7188    2.5762 H   0  0  0  0  0  0  0  0  0  0  0  0
  2  1  1  1
  1 33  1  0
  1 34  1  0
  1 35  1  0
  2 21  1  0
  2 32  1  0
  2  3  1  0
  3  4  1  0
  3 36  1  0
  3 37  1  0
  4  5  1  0
  4 38  1  0
  4 39  1  0
  5 20  1  0
  5  6  1  0
  5 40  1  6
  6  7  1  0
  6 41  1  0
  6 42  1  0
  7  8  1  0
  7 43  1  0
  7 44  1  0
  8 18  1  0
  8  9  1  0
  8 45  1  6
  9 10  1  0
  9 20  1  0
  9 46  1  1
 10 11  1  0
 10 47  1  0
 10 48  1  0
 11 12  2  0
 11 49  1  0
 12 18  1  0
 12 13  1  0
 13 14  1  0
 13 50  1  0
 13 51  1  0
 14 15  2  0
 14 16  1  0
 16 17  1  0
 16 52  1  0
 16 53  1  0
 17 18  1  0
 17 54  1  0
 17 55  1  0
 18 19  1  1
 19 56  1  0
 19 57  1  0
 19 58  1  0
 20 21  1  0
 20 59  1  1
 21 22  1  0
 21 60  1  1
 22 23  1  0
 22 61  1  0
 22 62  1  0
 23 24  2  3
 23 32  1  0
 24 25  1  0
 24 72  1  0
 25 26  1  0
 25 63  1  0
 25 64  1  0
 26 27  1  0
 26 65  1  0
 26 66  1  0
 27 31  1  0
 27 28  1  0
 28 29  2  0
 28 67  1  0
 29 30  1  0
 29 68  1  0
 30 31  2  0
 30 73  1  0
 31 69  1  0
 32 70  1  0
 32 71  1  0
M  CHG  2  24   1  30   1
M  END
>  <i_m_ct_stereo_status>  (162) 
1

>  <s_m_source_file>  (162) 
/var/tmp/pbs.5076255.sched01/tmpio9qf6gp/4214r_5_m5.sdf

>  <i_m_source_file_index>  (162) 
23

>  <i_lp_mmshare_version>  (162) 
48012

>  <i_f3d_flags>  (162) 
0

>  <s_epik_input>  (162) 
W2NIXTFuW2NIXVtjSF1uMVtDSDJdW0NIMl0vTj1DKFtDSDJdMilcW0NIMl1bQ0BIXShbQ0BdMjNbQ0gzXSlbQ0BASF00W0NAQEhdKFtDSDJdW0NIMl0zKVtDSDJdW0NIMl1bQ0BASF01W0NAQEhdNFtDSDJdW0NIXT1DNltDQEBdNShbQ0gzXSlbQ0gyXVtDSDJdQyg9TylbQ0gyXTY=

>  <s_epik_cmdline>  (162) 
J2VwaWtfcHl0aG9uJywgJy1waHQnLCAnMi4wJywgJy1waCcsICc3LjAnLCAnLXRuJywgJzgnLCAnLW1hJywgJzIwMCcsICctaW1hZScsICc8aW5maWxlLm1hZT4nLCAnLW9tYWUnLCAnPG91dGZpbGUubWFlPic=

>  <r_lp_tautomer_probability>  (162) 
0.99995

>  <r_epik_Ionization_Penalty>  (162) 
0.452236

>  <r_epik_Ionization_Penalty_Charging>  (162) 
0.0639471

>  <r_epik_Ionization_Penalty_Neutral>  (162) 
0.388289

>  <r_epik_State_Penalty>  (162) 
0.84458

>  <r_epik_Charging_Adjusted_Penalty>  (162) 
0.908527

>  <i_epik_Tot_Q>  (162) 
2

>  <i_epik_Tot_abs_Q>  (162) 
2

>  <s_epik_Chemistry_Notes>  (162) 
This compound has an imine and may undergo hydrolysis.

>  <s_lp_Force_Field>  (162) 
OPLS3e

>  <r_lp_Energy>  (162) 
69.1678

>  <b_lp_Chiralities_Consistent>  (162) 
1

>  <s_lp_Variant>  (162) 
46:0-1

>  <s_i_glide_gridfile>  (162) 
pfpi4k_grid

>  <i_i_glide_lignum>  (162) 
23

>  <i_i_glide_rotatable_bonds>  (162) 
3

>  <r_i_docking_score>  (162) 
-3.5611

>  <r_i_glide_ligand_efficiency>  (162) 
-0.111284

>  <r_i_glide_ligand_efficiency_sa>  (162) 
-0.353306

>  <r_i_glide_ligand_efficiency_ln>  (162) 
-0.797427

>  <r_i_glide_gscore>  (162) 
-3.5611

>  <r_i_glide_lipo>  (162) 
-0.436275

>  <r_i_glide_hbond>  (162) 
0

>  <r_i_glide_metal>  (162) 
-0

>  <r_i_glide_rewards>  (162) 
-0.438787

>  <r_i_glide_evdw>  (162) 
-25.1296

>  <r_i_glide_ecoul>  (162) 
-9.25545

>  <r_i_glide_erotb>  (162) 
0.209984

>  <r_i_glide_esite>  (162) 
-0.251221

>  <r_i_glide_emodel>  (162) 
-42.1213

>  <r_i_glide_energy>  (162) 
-34.3851

>  <r_i_glide_einternal>  (162) 
2.64225

>  <r_i_glide_intrahb_reward>  (162) 
-0

>  <i_i_glide_confnum>  (162) 
2

>  <i_i_glide_posenum>  (162) 
2

>  <r_i_glide_eff_state_penalty>  (162) 
0

>  <ligand_id>  (162) 
46

>  <original_smiles>  (162) 
CC12CCC3CCC4C(CC=C5CC(=O)CCC54C)C3C1CC(=NCCn1ccnc1)C2

>  <smiles>  (162) 
[H]C1=C2C([H])([H])C(=O)C([H])([H])C([H])([H])C2(C([H])([H])[H])C2([H])C([H])([H])C([H])([H])C3([H])C([H])([H])C([H])([H])C4(C([H])([H])[H])C([H])([H])C(=[N+]([H])C([H])([H])C([H])([H])n5c([H])c([H])[n+]([H])c5[H])C([H])([H])C4([H])C3([H])C2([H])C1([H])[H]

$$$$
46:1:0
     RDKit          3D

 73 78  0  0  1  0  0  0  0  0999 V2000
    4.8898   -9.8712    2.7196 C   0  0  0  0  0  0  0  0  0  0  0  0
    4.0634   -8.7252    2.0904 C   0  0  1  0  0  0  0  0  0  0  0  0
    2.6976   -9.2530    1.5684 C   0  0  0  0  0  0  0  0  0  0  0  0
    1.7136   -9.5980    2.6905 C   0  0  0  0  0  0  0  0  0  0  0  0
    1.4692   -8.4174    3.6572 C   0  0  1  0  0  0  0  0  0  0  0  0
    0.4867   -8.8708    4.7659 C   0  0  0  0  0  0  0  0  0  0  0  0
    0.7348   -8.2483    6.1478 C   0  0  0  0  0  0  0  0  0  0  0  0
    1.2548   -6.8046    6.0530 C   0  0  2  0  0  0  0  0  0  0  0  0
    2.6441   -6.7924    5.3639 C   0  0  2  0  0  0  0  0  0  0  0  0
    3.0110   -5.3344    5.0291 C   0  0  0  0  0  0  0  0  0  0  0  0
    2.7259   -4.3732    6.1660 C   0  0  0  0  0  0  0  0  0  0  0  0
    1.9638   -4.6554    7.2416 C   0  0  0  0  0  0  0  0  0  0  0  0
    1.8030   -3.6275    8.3621 C   0  0  0  0  0  0  0  0  0  0  0  0
    0.3430   -3.4862    8.7855 C   0  0  0  0  0  0  0  0  0  0  0  0
   -0.1836   -2.3896    8.9557 O   0  0  0  0  0  0  0  0  0  0  0  0
   -0.4182   -4.7781    9.0195 C   0  0  0  0  0  0  0  0  0  0  0  0
   -0.2432   -5.7299    7.8247 C   0  0  0  0  0  0  0  0  0  0  0  0
    1.2350   -6.0017    7.4082 C   0  0  1  0  0  0  0  0  0  0  0  0
    1.9434   -6.7910    8.5389 C   0  0  0  0  0  0  0  0  0  0  0  0
    2.8048   -7.8531    4.2101 C   0  0  2  0  0  0  0  0  0  0  0  0
    3.8429   -7.5418    3.0752 C   0  0  2  0  0  0  0  0  0  0  0  0
    3.5817   -6.3286    2.1460 C   0  0  0  0  0  0  0  0  0  0  0  0
    4.3240   -6.6900    0.9051 C   0  0  0  0  0  0  0  0  0  0  0  0
    4.5018   -5.9024   -0.1068 N   0  0  0  0  0  0  0  0  0  0  0  0
    3.9543   -4.5361   -0.2849 C   0  0  0  0  0  0  0  0  0  0  0  0
    4.8653   -3.6596   -1.1742 C   0  0  0  0  0  0  0  0  0  0  0  0
    4.1200   -2.7629   -2.0744 N   0  0  0  0  0  0  0  0  0  0  0  0
    3.9877   -1.3979   -1.9624 C   0  0  0  0  0  0  0  0  0  0  0  0
    3.2222   -0.9939   -3.0277 C   0  0  0  0  0  0  0  0  0  0  0  0
    2.9267   -2.1176   -3.7507 N   0  0  0  0  0  0  0  0  0  0  0  0
    3.4811   -3.1911   -3.1728 C   0  0  0  0  0  0  0  0  0  0  0  0
    4.8481   -8.0854    0.9248 C   0  0  0  0  0  0  0  0  0  0  0  0
    5.1004  -10.6545    1.9889 H   0  0  0  0  0  0  0  0  0  0  0  0
    4.3676  -10.3438    3.5527 H   0  0  0  0  0  0  0  0  0  0  0  0
    5.8464   -9.5123    3.1023 H   0  0  0  0  0  0  0  0  0  0  0  0
    2.2116   -8.5131    0.9343 H   0  0  0  0  0  0  0  0  0  0  0  0
    2.8495  -10.1255    0.9314 H   0  0  0  0  0  0  0  0  0  0  0  0
    0.7676   -9.9008    2.2416 H   0  0  0  0  0  0  0  0  0  0  0  0
    2.0733  -10.4726    3.2321 H   0  0  0  0  0  0  0  0  0  0  0  0
    0.9882   -7.6162    3.0989 H   0  0  0  0  0  0  0  0  0  0  0  0
   -0.5237   -8.6224    4.4422 H   0  0  0  0  0  0  0  0  0  0  0  0
    0.4856   -9.9572    4.8793 H   0  0  0  0  0  0  0  0  0  0  0  0
   -0.1817   -8.3058    6.7311 H   0  0  0  0  0  0  0  0  0  0  0  0
    1.4652   -8.8612    6.6798 H   0  0  0  0  0  0  0  0  0  0  0  0
    0.5757   -6.2809    5.3766 H   0  0  0  0  0  0  0  0  0  0  0  0
    3.3758   -7.0998    6.1125 H   0  0  0  0  0  0  0  0  0  0  0  0
    4.0801   -5.2683    4.8189 H   0  0  0  0  0  0  0  0  0  0  0  0
    2.4584   -4.9741    4.1607 H   0  0  0  0  0  0  0  0  0  0  0  0
    3.1999   -3.4040    6.0855 H   0  0  0  0  0  0  0  0  0  0  0  0
    2.3863   -3.9462    9.2243 H   0  0  0  0  0  0  0  0  0  0  0  0
    2.1893   -2.6595    8.0458 H   0  0  0  0  0  0  0  0  0  0  0  0
   -0.0465   -5.2336    9.9359 H   0  0  0  0  0  0  0  0  0  0  0  0
   -1.4725   -4.5585    9.1875 H   0  0  0  0  0  0  0  0  0  0  0  0
   -0.7448   -6.6586    8.0816 H   0  0  0  0  0  0  0  0  0  0  0  0
   -0.7913   -5.3074    6.9807 H   0  0  0  0  0  0  0  0  0  0  0  0
    1.4443   -7.7373    8.7501 H   0  0  0  0  0  0  0  0  0  0  0  0
    1.9686   -6.2299    9.4750 H   0  0  0  0  0  0  0  0  0  0  0  0
    2.9801   -7.0107    8.2842 H   0  0  0  0  0  0  0  0  0  0  0  0
    3.2341   -8.7108    4.7286 H   0  0  0  0  0  0  0  0  0  0  0  0
    4.8009   -7.3533    3.5639 H   0  0  0  0  0  0  0  0  0  0  0  0
    2.5233   -6.2106    1.9155 H   0  0  0  0  0  0  0  0  0  0  0  0
    3.9752   -5.3954    2.5407 H   0  0  0  0  0  0  0  0  0  0  0  0
    2.9677   -4.6645   -0.7371 H   0  0  0  0  0  0  0  0  0  0  0  0
    3.8160   -4.0687    0.6947 H   0  0  0  0  0  0  0  0  0  0  0  0
    5.4919   -3.0344   -0.5319 H   0  0  0  0  0  0  0  0  0  0  0  0
    5.5395   -4.2520   -1.8004 H   0  0  0  0  0  0  0  0  0  0  0  0
    4.4156   -0.8242   -1.1461 H   0  0  0  0  0  0  0  0  0  0  0  0
    2.8555   -0.0104   -3.2888 H   0  0  0  0  0  0  0  0  0  0  0  0
    3.4005   -4.2106   -3.5156 H   0  0  0  0  0  0  0  0  0  0  0  0
    5.9123   -8.0446    1.1522 H   0  0  0  0  0  0  0  0  0  0  0  0
    4.7203   -8.6032   -0.0231 H   0  0  0  0  0  0  0  0  0  0  0  0
    4.9372   -6.2994   -0.9372 H   0  0  0  0  0  0  0  0  0  0  0  0
    2.3279   -2.1450   -4.5669 H   0  0  0  0  0  0  0  0  0  0  0  0
  2  1  1  1
  1 33  1  0
  1 34  1  0
  1 35  1  0
  2 21  1  0
  2 32  1  0
  2  3  1  0
  3  4  1  0
  3 36  1  0
  3 37  1  0
  4  5  1  0
  4 38  1  0
  4 39  1  0
  5 20  1  0
  5  6  1  0
  5 40  1  6
  6  7  1  0
  6 41  1  0
  6 42  1  0
  7  8  1  0
  7 43  1  0
  7 44  1  0
  8 18  1  0
  8  9  1  0
  8 45  1  6
  9 10  1  0
  9 20  1  0
  9 46  1  1
 10 11  1  0
 10 47  1  0
 10 48  1  0
 11 12  2  0
 11 49  1  0
 12 18  1  0
 12 13  1  0
 13 14  1  0
 13 50  1  0
 13 51  1  0
 14 15  2  0
 14 16  1  0
 16 17  1  0
 16 52  1  0
 16 53  1  0
 17 18  1  0
 17 54  1  0
 17 55  1  0
 18 19  1  1
 19 56  1  0
 19 57  1  0
 19 58  1  0
 20 21  1  0
 20 59  1  1
 21 22  1  0
 21 60  1  1
 22 23  1  0
 22 61  1  0
 22 62  1  0
 23 24  2  3
 23 32  1  0
 24 25  1  0
 24 72  1  0
 25 26  1  0
 25 63  1  0
 25 64  1  0
 26 27  1  0
 26 65  1  0
 26 66  1  0
 27 31  1  0
 27 28  1  0
 28 29  2  0
 28 67  1  0
 29 30  1  0
 29 68  1  0
 30 31  2  0
 30 73  1  0
 31 69  1  0
 32 70  1  0
 32 71  1  0
M  CHG  2  24   1  30   1
M  END
>  <i_m_ct_stereo_status>  (163) 
1

>  <s_m_source_file>  (163) 
/var/tmp/pbs.5076255.sched01/tmpio9qf6gp/4214r_5_m5.sdf

>  <i_m_source_file_index>  (163) 
24

>  <i_lp_mmshare_version>  (163) 
48012

>  <i_f3d_flags>  (163) 
0

>  <s_epik_input>  (163) 
W2NIXTFuW2NIXVtjSF1uMVtDSDJdW0NIMl0vTj1DKFtDSDJdMilcW0NIMl1bQ0BIXShbQ0BdMjNbQ0gzXSlbQ0BASF00W0NAQEhdKFtDSDJdW0NIMl0zKVtDSDJdW0NIMl1bQ0BASF01W0NAQEhdNFtDSDJdW0NIXT1DNltDQEBdNShbQ0gzXSlbQ0gyXVtDSDJdQyg9TylbQ0gyXTY=

>  <s_epik_cmdline>  (163) 
J2VwaWtfcHl0aG9uJywgJy1waHQnLCAnMi4wJywgJy1waCcsICc3LjAnLCAnLXRuJywgJzgnLCAnLW1hJywgJzIwMCcsICctaW1hZScsICc8aW5maWxlLm1hZT4nLCAnLW9tYWUnLCAnPG91dGZpbGUubWFlPic=

>  <r_lp_tautomer_probability>  (163) 
0.99995

>  <r_epik_Ionization_Penalty>  (163) 
0.452236

>  <r_epik_Ionization_Penalty_Charging>  (163) 
0.0639471

>  <r_epik_Ionization_Penalty_Neutral>  (163) 
0.388289

>  <r_epik_State_Penalty>  (163) 
0.84458

>  <r_epik_Charging_Adjusted_Penalty>  (163) 
0.908527

>  <i_epik_Tot_Q>  (163) 
2

>  <i_epik_Tot_abs_Q>  (163) 
2

>  <s_epik_Chemistry_Notes>  (163) 
This compound has an imine and may undergo hydrolysis.

>  <s_lp_Force_Field>  (163) 
OPLS3e

>  <r_lp_Energy>  (163) 
68.5682

>  <b_lp_Chiralities_Consistent>  (163) 
1

>  <s_lp_Variant>  (163) 
46:0-2

>  <s_i_glide_gridfile>  (163) 
pfpi4k_grid

>  <i_i_glide_lignum>  (163) 
24

>  <i_i_glide_rotatable_bonds>  (163) 
3

>  <r_i_docking_score>  (163) 
-3.64729

>  <r_i_glide_ligand_efficiency>  (163) 
-0.113978

>  <r_i_glide_ligand_efficiency_sa>  (163) 
-0.361857

>  <r_i_glide_ligand_efficiency_ln>  (163) 
-0.816727

>  <r_i_glide_gscore>  (163) 
-3.64729

>  <r_i_glide_lipo>  (163) 
-0.116367

>  <r_i_glide_hbond>  (163) 
-0.16

>  <r_i_glide_metal>  (163) 
-0

>  <r_i_glide_rewards>  (163) 
-0.690654

>  <r_i_glide_evdw>  (163) 
-24.1547

>  <r_i_glide_ecoul>  (163) 
-10.9876

>  <r_i_glide_erotb>  (163) 
0.209984

>  <r_i_glide_esite>  (163) 
-0.0343776

>  <r_i_glide_emodel>  (163) 
-45.6794

>  <r_i_glide_energy>  (163) 
-35.1423

>  <r_i_glide_einternal>  (163) 
3.44576

>  <r_i_glide_intrahb_reward>  (163) 
-0

>  <i_i_glide_confnum>  (163) 
1

>  <i_i_glide_posenum>  (163) 
4

>  <r_i_glide_eff_state_penalty>  (163) 
0

>  <ligand_id>  (163) 
46

>  <original_smiles>  (163) 
CC12CCC3CCC4C(CC=C5CC(=O)CCC54C)C3C1CC(=NCCn1ccnc1)C2

>  <smiles>  (163) 
[H]C1=C2C([H])([H])C(=O)C([H])([H])C([H])([H])C2(C([H])([H])[H])C2([H])C([H])([H])C([H])([H])C3([H])C([H])([H])C([H])([H])C4(C([H])([H])[H])C([H])([H])C(=[N+]([H])C([H])([H])C([H])([H])n5c([H])c([H])[n+]([H])c5[H])C([H])([H])C4([H])C3([H])C2([H])C1([H])[H]

$$$$
46:1:1
     RDKit          3D

 73 78  0  0  1  0  0  0  0  0999 V2000
    4.2207   -3.8733    6.1228 C   0  0  0  0  0  0  0  0  0  0  0  0
    3.7082   -3.6863    4.6750 C   0  0  1  0  0  0  0  0  0  0  0  0
    2.5068   -4.6311    4.3902 C   0  0  0  0  0  0  0  0  0  0  0  0
    1.2180   -4.2036    5.1015 C   0  0  0  0  0  0  0  0  0  0  0  0
    0.8098   -2.7481    4.7826 C   0  0  1  0  0  0  0  0  0  0  0  0
   -0.4798   -2.4051    5.5685 C   0  0  0  0  0  0  0  0  0  0  0  0
   -0.5921   -0.9490    6.0398 C   0  0  0  0  0  0  0  0  0  0  0  0
    0.0582    0.0332    5.0526 C   0  0  2  0  0  0  0  0  0  0  0  0
    1.5818   -0.2391    4.9599 C   0  0  2  0  0  0  0  0  0  0  0  0
    2.1505    0.5576    3.7698 C   0  0  0  0  0  0  0  0  0  0  0  0
    1.6353    1.9817    3.7066 C   0  0  0  0  0  0  0  0  0  0  0  0
    0.5780    2.4486    4.3973 C   0  0  0  0  0  0  0  0  0  0  0  0
    0.1888    3.9224    4.2990 C   0  0  0  0  0  0  0  0  0  0  0  0
   -1.3120    4.0930    4.0852 C   0  0  0  0  0  0  0  0  0  0  0  0
   -1.7797    4.8962    3.2780 O   0  0  0  0  0  0  0  0  0  0  0  0
   -2.2110    3.2726    5.0001 C   0  0  0  0  0  0  0  0  0  0  0  0
   -1.7832    1.7974    4.9990 C   0  0  0  0  0  0  0  0  0  0  0  0
   -0.2768    1.5495    5.3119 C   0  0  1  0  0  0  0  0  0  0  0  0
    0.0101    1.9466    6.7833 C   0  0  0  0  0  0  0  0  0  0  0  0
    1.9757   -1.7619    5.0525 C   0  0  2  0  0  0  0  0  0  0  0  0
    3.3154   -2.2122    4.3682 C   0  0  2  0  0  0  0  0  0  0  0  0
    3.4309   -2.1102    2.8247 C   0  0  0  0  0  0  0  0  0  0  0  0
    4.4495   -3.1499    2.4934 C   0  0  0  0  0  0  0  0  0  0  0  0
    4.9491   -3.3546    1.3124 N   0  0  0  0  0  0  0  0  0  0  0  0
    4.5958   -2.6278    0.0702 C   0  0  0  0  0  0  0  0  0  0  0  0
    4.2092   -3.5680   -1.0902 C   0  0  0  0  0  0  0  0  0  0  0  0
    3.6835   -2.8178   -2.2430 N   0  0  0  0  0  0  0  0  0  0  0  0
    4.2473   -1.7111   -2.8367 C   0  0  0  0  0  0  0  0  0  0  0  0
    3.4207   -1.3555   -3.8740 C   0  0  0  0  0  0  0  0  0  0  0  0
    2.4203   -2.2854   -3.9062 N   0  0  0  0  0  0  0  0  0  0  0  0
    2.5684   -3.1637   -2.9085 C   0  0  0  0  0  0  0  0  0  0  0  0
    4.8443   -3.9755    3.6674 C   0  0  0  0  0  0  0  0  0  0  0  0
    4.5656   -4.8942    6.2932 H   0  0  0  0  0  0  0  0  0  0  0  0
    3.4464   -3.6678    6.8627 H   0  0  0  0  0  0  0  0  0  0  0  0
    5.0545   -3.2054    6.3405 H   0  0  0  0  0  0  0  0  0  0  0  0
    2.2911   -4.6650    3.3226 H   0  0  0  0  0  0  0  0  0  0  0  0
    2.7596   -5.6554    4.6684 H   0  0  0  0  0  0  0  0  0  0  0  0
    0.4149   -4.8777    4.8045 H   0  0  0  0  0  0  0  0  0  0  0  0
    1.3342   -4.3443    6.1762 H   0  0  0  0  0  0  0  0  0  0  0  0
    0.5740   -2.6862    3.7203 H   0  0  0  0  0  0  0  0  0  0  0  0
   -1.3263   -2.6222    4.9232 H   0  0  0  0  0  0  0  0  0  0  0  0
   -0.6039   -3.0584    6.4356 H   0  0  0  0  0  0  0  0  0  0  0  0
   -1.6461   -0.7114    6.1927 H   0  0  0  0  0  0  0  0  0  0  0  0
   -0.0977   -0.8579    7.0080 H   0  0  0  0  0  0  0  0  0  0  0  0
   -0.3531   -0.2077    4.0701 H   0  0  0  0  0  0  0  0  0  0  0  0
    2.0419    0.2098    5.8412 H   0  0  0  0  0  0  0  0  0  0  0  0
    3.2359    0.6183    3.8574 H   0  0  0  0  0  0  0  0  0  0  0  0
    1.8989    0.0876    2.8188 H   0  0  0  0  0  0  0  0  0  0  0  0
    2.1859    2.6505    3.0583 H   0  0  0  0  0  0  0  0  0  0  0  0
    0.4649    4.4252    5.2240 H   0  0  0  0  0  0  0  0  0  0  0  0
    0.7287    4.4083    3.4857 H   0  0  0  0  0  0  0  0  0  0  0  0
   -2.1550    3.6930    6.0034 H   0  0  0  0  0  0  0  0  0  0  0  0
   -3.2498    3.3606    4.6826 H   0  0  0  0  0  0  0  0  0  0  0  0
   -2.4146    1.2698    5.7108 H   0  0  0  0  0  0  0  0  0  0  0  0
   -2.0301    1.3919    4.0167 H   0  0  0  0  0  0  0  0  0  0  0  0
   -0.6066    1.3865    7.4869 H   0  0  0  0  0  0  0  0  0  0  0  0
   -0.1857    3.0047    6.9652 H   0  0  0  0  0  0  0  0  0  0  0  0
    1.0543    1.7778    7.0456 H   0  0  0  0  0  0  0  0  0  0  0  0
    2.1673   -1.8970    6.1169 H   0  0  0  0  0  0  0  0  0  0  0  0
    4.1063   -1.5809    4.7788 H   0  0  0  0  0  0  0  0  0  0  0  0
    2.4914   -2.3552    2.3291 H   0  0  0  0  0  0  0  0  0  0  0  0
    3.7755   -1.1351    2.4812 H   0  0  0  0  0  0  0  0  0  0  0  0
    3.7804   -1.9319    0.2787 H   0  0  0  0  0  0  0  0  0  0  0  0
    5.4767   -2.0423   -0.2012 H   0  0  0  0  0  0  0  0  0  0  0  0
    5.0758   -4.1325   -1.4455 H   0  0  0  0  0  0  0  0  0  0  0  0
    3.4532   -4.2916   -0.7726 H   0  0  0  0  0  0  0  0  0  0  0  0
    5.1622   -1.2556   -2.4804 H   0  0  0  0  0  0  0  0  0  0  0  0
    3.4764   -0.5336   -4.5700 H   0  0  0  0  0  0  0  0  0  0  0  0
    1.9099   -3.9905   -2.6958 H   0  0  0  0  0  0  0  0  0  0  0  0
    5.7977   -3.6089    4.0453 H   0  0  0  0  0  0  0  0  0  0  0  0
    4.9616   -5.0292    3.4187 H   0  0  0  0  0  0  0  0  0  0  0  0
    5.6567   -4.0794    1.2222 H   0  0  0  0  0  0  0  0  0  0  0  0
    1.6523   -2.2862   -4.5684 H   0  0  0  0  0  0  0  0  0  0  0  0
  2  1  1  1
  1 33  1  0
  1 34  1  0
  1 35  1  0
  2 21  1  0
  2 32  1  0
  2  3  1  0
  3  4  1  0
  3 36  1  0
  3 37  1  0
  4  5  1  0
  4 38  1  0
  4 39  1  0
  5 20  1  0
  5  6  1  0
  5 40  1  6
  6  7  1  0
  6 41  1  0
  6 42  1  0
  7  8  1  0
  7 43  1  0
  7 44  1  0
  8 18  1  0
  8  9  1  0
  8 45  1  6
  9 10  1  0
  9 20  1  0
  9 46  1  1
 10 11  1  0
 10 47  1  0
 10 48  1  0
 11 12  2  0
 11 49  1  0
 12 18  1  0
 12 13  1  0
 13 14  1  0
 13 50  1  0
 13 51  1  0
 14 15  2  0
 14 16  1  0
 16 17  1  0
 16 52  1  0
 16 53  1  0
 17 18  1  0
 17 54  1  0
 17 55  1  0
 18 19  1  1
 19 56  1  0
 19 57  1  0
 19 58  1  0
 20 21  1  0
 20 59  1  1
 21 22  1  0
 21 60  1  1
 22 23  1  0
 22 61  1  0
 22 62  1  0
 23 24  2  3
 23 32  1  0
 24 25  1  0
 24 72  1  0
 25 26  1  0
 25 63  1  0
 25 64  1  0
 26 27  1  0
 26 65  1  0
 26 66  1  0
 27 31  1  0
 27 28  1  0
 28 29  2  0
 28 67  1  0
 29 30  1  0
 29 68  1  0
 30 31  2  0
 30 73  1  0
 31 69  1  0
 32 70  1  0
 32 71  1  0
M  CHG  2  24   1  30   1
M  END
>  <i_m_ct_stereo_status>  (164) 
1

>  <s_m_source_file>  (164) 
/var/tmp/pbs.5076255.sched01/tmpio9qf6gp/4214r_5_m5.sdf

>  <i_m_source_file_index>  (164) 
24

>  <i_lp_mmshare_version>  (164) 
48012

>  <i_f3d_flags>  (164) 
0

>  <s_epik_input>  (164) 
W2NIXTFuW2NIXVtjSF1uMVtDSDJdW0NIMl0vTj1DKFtDSDJdMilcW0NIMl1bQ0BIXShbQ0BdMjNbQ0gzXSlbQ0BASF00W0NAQEhdKFtDSDJdW0NIMl0zKVtDSDJdW0NIMl1bQ0BASF01W0NAQEhdNFtDSDJdW0NIXT1DNltDQEBdNShbQ0gzXSlbQ0gyXVtDSDJdQyg9TylbQ0gyXTY=

>  <s_epik_cmdline>  (164) 
J2VwaWtfcHl0aG9uJywgJy1waHQnLCAnMi4wJywgJy1waCcsICc3LjAnLCAnLXRuJywgJzgnLCAnLW1hJywgJzIwMCcsICctaW1hZScsICc8aW5maWxlLm1hZT4nLCAnLW9tYWUnLCAnPG91dGZpbGUubWFlPic=

>  <r_lp_tautomer_probability>  (164) 
0.99995

>  <r_epik_Ionization_Penalty>  (164) 
0.452236

>  <r_epik_Ionization_Penalty_Charging>  (164) 
0.0639471

>  <r_epik_Ionization_Penalty_Neutral>  (164) 
0.388289

>  <r_epik_State_Penalty>  (164) 
0.84458

>  <r_epik_Charging_Adjusted_Penalty>  (164) 
0.908527

>  <i_epik_Tot_Q>  (164) 
2

>  <i_epik_Tot_abs_Q>  (164) 
2

>  <s_epik_Chemistry_Notes>  (164) 
This compound has an imine and may undergo hydrolysis.

>  <s_lp_Force_Field>  (164) 
OPLS3e

>  <r_lp_Energy>  (164) 
68.5682

>  <b_lp_Chiralities_Consistent>  (164) 
1

>  <s_lp_Variant>  (164) 
46:0-2

>  <s_i_glide_gridfile>  (164) 
pfpi4k_grid

>  <i_i_glide_lignum>  (164) 
24

>  <i_i_glide_rotatable_bonds>  (164) 
3

>  <r_i_docking_score>  (164) 
-3.57108

>  <r_i_glide_ligand_efficiency>  (164) 
-0.111596

>  <r_i_glide_ligand_efficiency_sa>  (164) 
-0.354296

>  <r_i_glide_ligand_efficiency_ln>  (164) 
-0.799661

>  <r_i_glide_gscore>  (164) 
-3.57108

>  <r_i_glide_lipo>  (164) 
-0.161455

>  <r_i_glide_hbond>  (164) 
-0.16

>  <r_i_glide_metal>  (164) 
-0

>  <r_i_glide_rewards>  (164) 
-0.605223

>  <r_i_glide_evdw>  (164) 
-24.4208

>  <r_i_glide_ecoul>  (164) 
-10.2275

>  <r_i_glide_erotb>  (164) 
0.209984

>  <r_i_glide_esite>  (164) 
-0.0992164

>  <r_i_glide_emodel>  (164) 
-46.3647

>  <r_i_glide_energy>  (164) 
-34.6483

>  <r_i_glide_einternal>  (164) 
0.729222

>  <r_i_glide_intrahb_reward>  (164) 
-0

>  <i_i_glide_confnum>  (164) 
1

>  <i_i_glide_posenum>  (164) 
6

>  <r_i_glide_eff_state_penalty>  (164) 
0

>  <ligand_id>  (164) 
46

>  <original_smiles>  (164) 
CC12CCC3CCC4C(CC=C5CC(=O)CCC54C)C3C1CC(=NCCn1ccnc1)C2

>  <smiles>  (164) 
[H]C1=C2C([H])([H])C(=O)C([H])([H])C([H])([H])C2(C([H])([H])[H])C2([H])C([H])([H])C([H])([H])C3([H])C([H])([H])C([H])([H])C4(C([H])([H])[H])C([H])([H])C(=[N+]([H])C([H])([H])C([H])([H])n5c([H])c([H])[n+]([H])c5[H])C([H])([H])C4([H])C3([H])C2([H])C1([H])[H]

$$$$
46:1:2
     RDKit          3D

 73 78  0  0  1  0  0  0  0  0999 V2000
    4.5906   -3.5858    6.2218 C   0  0  0  0  0  0  0  0  0  0  0  0
    3.7997   -3.6775    4.8963 C   0  0  1  0  0  0  0  0  0  0  0  0
    2.6016   -4.6581    5.0351 C   0  0  0  0  0  0  0  0  0  0  0  0
    1.4610   -4.1040    5.8961 C   0  0  0  0  0  0  0  0  0  0  0  0
    0.9441   -2.7352    5.3990 C   0  0  1  0  0  0  0  0  0  0  0  0
   -0.1848   -2.2508    6.3437 C   0  0  0  0  0  0  0  0  0  0  0  0
   -0.2502   -0.7309    6.5521 C   0  0  0  0  0  0  0  0  0  0  0  0
    0.1565    0.0449    5.2911 C   0  0  2  0  0  0  0  0  0  0  0  0
    1.6429   -0.2381    4.9497 C   0  0  2  0  0  0  0  0  0  0  0  0
    1.9377    0.3208    3.5437 C   0  0  0  0  0  0  0  0  0  0  0  0
    1.3625    1.7073    3.3255 C   0  0  0  0  0  0  0  0  0  0  0  0
    0.4437    2.2933    4.1180 C   0  0  0  0  0  0  0  0  0  0  0  0
   -0.0071    3.7281    3.8425 C   0  0  0  0  0  0  0  0  0  0  0  0
   -1.5278    3.8605    3.9067 C   0  0  0  0  0  0  0  0  0  0  0  0
   -2.1713    4.5407    3.1084 O   0  0  0  0  0  0  0  0  0  0  0  0
   -2.2076    3.2168    5.1015 C   0  0  0  0  0  0  0  0  0  0  0  0
   -1.7326    1.7656    5.2798 C   0  0  0  0  0  0  0  0  0  0  0  0
   -0.1830    1.5808    5.3308 C   0  0  1  0  0  0  0  0  0  0  0  0
    0.3733    2.2520    6.6134 C   0  0  0  0  0  0  0  0  0  0  0  0
    2.1033   -1.7157    5.2444 C   0  0  2  0  0  0  0  0  0  0  0  0
    3.3007   -2.2872    4.4053 C   0  0  2  0  0  0  0  0  0  0  0  0
    3.1079   -2.4805    2.8793 C   0  0  0  0  0  0  0  0  0  0  0  0
    4.0835   -3.5608    2.5521 C   0  0  0  0  0  0  0  0  0  0  0  0
    4.3629   -3.9587    1.3519 N   0  0  0  0  0  0  0  0  0  0  0  0
    3.7547   -3.4584    0.0995 C   0  0  0  0  0  0  0  0  0  0  0  0
    4.6783   -2.4842   -0.6593 C   0  0  0  0  0  0  0  0  0  0  0  0
    4.0650   -2.0005   -1.9055 N   0  0  0  0  0  0  0  0  0  0  0  0
    3.3639   -2.7452   -2.8260 C   0  0  0  0  0  0  0  0  0  0  0  0
    2.9916   -1.8803   -3.8223 C   0  0  0  0  0  0  0  0  0  0  0  0
    3.4968   -0.6551   -3.4903 N   0  0  0  0  0  0  0  0  0  0  0  0
    4.1649   -0.7294   -2.3333 C   0  0  0  0  0  0  0  0  0  0  0  0
    4.7265   -4.1555    3.7559 C   0  0  0  0  0  0  0  0  0  0  0  0
    5.0000   -4.5561    6.5068 H   0  0  0  0  0  0  0  0  0  0  0  0
    3.9680   -3.2438    7.0491 H   0  0  0  0  0  0  0  0  0  0  0  0
    5.4256   -2.8889    6.1417 H   0  0  0  0  0  0  0  0  0  0  0  0
    2.1826   -4.8932    4.0568 H   0  0  0  0  0  0  0  0  0  0  0  0
    2.9418   -5.6122    5.4411 H   0  0  0  0  0  0  0  0  0  0  0  0
    0.6415   -4.8227    5.8941 H   0  0  0  0  0  0  0  0  0  0  0  0
    1.7891   -4.0388    6.9335 H   0  0  0  0  0  0  0  0  0  0  0  0
    0.5072   -2.8758    4.4112 H   0  0  0  0  0  0  0  0  0  0  0  0
   -1.1341   -2.5936    5.9333 H   0  0  0  0  0  0  0  0  0  0  0  0
   -0.1075   -2.7227    7.3251 H   0  0  0  0  0  0  0  0  0  0  0  0
   -1.2541   -0.4536    6.8696 H   0  0  0  0  0  0  0  0  0  0  0  0
    0.4201   -0.4594    7.3697 H   0  0  0  0  0  0  0  0  0  0  0  0
   -0.4295   -0.3759    4.4710 H   0  0  0  0  0  0  0  0  0  0  0  0
    2.2471    0.3704    5.6241 H   0  0  0  0  0  0  0  0  0  0  0  0
    3.0172    0.3961    3.4023 H   0  0  0  0  0  0  0  0  0  0  0  0
    1.5258   -0.3222    2.7652 H   0  0  0  0  0  0  0  0  0  0  0  0
    1.7514    2.2471    2.4709 H   0  0  0  0  0  0  0  0  0  0  0  0
    0.4201    4.3880    4.5978 H   0  0  0  0  0  0  0  0  0  0  0  0
    0.3615    4.0655    2.8815 H   0  0  0  0  0  0  0  0  0  0  0  0
   -1.9651    3.8174    5.9766 H   0  0  0  0  0  0  0  0  0  0  0  0
   -3.2904    3.2645    4.9773 H   0  0  0  0  0  0  0  0  0  0  0  0
   -2.2019    1.3809    6.1840 H   0  0  0  0  0  0  0  0  0  0  0  0
   -2.1466    1.1869    4.4522 H   0  0  0  0  0  0  0  0  0  0  0  0
   -0.0721    1.8372    7.5176 H   0  0  0  0  0  0  0  0  0  0  0  0
    0.1782    3.3259    6.6300 H   0  0  0  0  0  0  0  0  0  0  0  0
    1.4549    2.1376    6.6889 H   0  0  0  0  0  0  0  0  0  0  0  0
    2.5029   -1.6458    6.2560 H   0  0  0  0  0  0  0  0  0  0  0  0
    4.1321   -1.5895    4.5244 H   0  0  0  0  0  0  0  0  0  0  0  0
    2.0994   -2.8139    2.6343 H   0  0  0  0  0  0  0  0  0  0  0  0
    3.3447   -1.5933    2.2943 H   0  0  0  0  0  0  0  0  0  0  0  0
    3.5427   -4.3482   -0.4973 H   0  0  0  0  0  0  0  0  0  0  0  0
    2.7989   -2.9774    0.3247 H   0  0  0  0  0  0  0  0  0  0  0  0
    4.9191   -1.6209   -0.0306 H   0  0  0  0  0  0  0  0  0  0  0  0
    5.6168   -2.9681   -0.9390 H   0  0  0  0  0  0  0  0  0  0  0  0
    3.1547   -3.8056   -2.7105 H   0  0  0  0  0  0  0  0  0  0  0  0
    2.3968   -2.0521   -4.7047 H   0  0  0  0  0  0  0  0  0  0  0  0
    4.6438    0.0955   -1.8357 H   0  0  0  0  0  0  0  0  0  0  0  0
    5.7199   -3.7212    3.8576 H   0  0  0  0  0  0  0  0  0  0  0  0
    4.8345   -5.2381    3.6900 H   0  0  0  0  0  0  0  0  0  0  0  0
    5.0309   -4.7194    1.2429 H   0  0  0  0  0  0  0  0  0  0  0  0
    3.3410    0.2014   -4.0105 H   0  0  0  0  0  0  0  0  0  0  0  0
  2  1  1  1
  1 33  1  0
  1 34  1  0
  1 35  1  0
  2 21  1  0
  2 32  1  0
  2  3  1  0
  3  4  1  0
  3 36  1  0
  3 37  1  0
  4  5  1  0
  4 38  1  0
  4 39  1  0
  5 20  1  0
  5  6  1  0
  5 40  1  6
  6  7  1  0
  6 41  1  0
  6 42  1  0
  7  8  1  0
  7 43  1  0
  7 44  1  0
  8 18  1  0
  8  9  1  0
  8 45  1  6
  9 10  1  0
  9 20  1  0
  9 46  1  1
 10 11  1  0
 10 47  1  0
 10 48  1  0
 11 12  2  0
 11 49  1  0
 12 18  1  0
 12 13  1  0
 13 14  1  0
 13 50  1  0
 13 51  1  0
 14 15  2  0
 14 16  1  0
 16 17  1  0
 16 52  1  0
 16 53  1  0
 17 18  1  0
 17 54  1  0
 17 55  1  0
 18 19  1  1
 19 56  1  0
 19 57  1  0
 19 58  1  0
 20 21  1  0
 20 59  1  1
 21 22  1  0
 21 60  1  6
 22 23  1  0
 22 61  1  0
 22 62  1  0
 23 24  2  3
 23 32  1  0
 24 25  1  0
 24 72  1  0
 25 26  1  0
 25 63  1  0
 25 64  1  0
 26 27  1  0
 26 65  1  0
 26 66  1  0
 27 31  1  0
 27 28  1  0
 28 29  2  0
 28 67  1  0
 29 30  1  0
 29 68  1  0
 30 31  2  0
 30 73  1  0
 31 69  1  0
 32 70  1  0
 32 71  1  0
M  CHG  2  24   1  30   1
M  END
>  <i_m_ct_stereo_status>  (165) 
1

>  <s_m_source_file>  (165) 
/var/tmp/pbs.5076255.sched01/tmpio9qf6gp/4214r_5_m5.sdf

>  <i_m_source_file_index>  (165) 
24

>  <i_lp_mmshare_version>  (165) 
48012

>  <i_f3d_flags>  (165) 
0

>  <s_epik_input>  (165) 
W2NIXTFuW2NIXVtjSF1uMVtDSDJdW0NIMl0vTj1DKFtDSDJdMilcW0NIMl1bQ0BIXShbQ0BdMjNbQ0gzXSlbQ0BASF00W0NAQEhdKFtDSDJdW0NIMl0zKVtDSDJdW0NIMl1bQ0BASF01W0NAQEhdNFtDSDJdW0NIXT1DNltDQEBdNShbQ0gzXSlbQ0gyXVtDSDJdQyg9TylbQ0gyXTY=

>  <s_epik_cmdline>  (165) 
J2VwaWtfcHl0aG9uJywgJy1waHQnLCAnMi4wJywgJy1waCcsICc3LjAnLCAnLXRuJywgJzgnLCAnLW1hJywgJzIwMCcsICctaW1hZScsICc8aW5maWxlLm1hZT4nLCAnLW9tYWUnLCAnPG91dGZpbGUubWFlPic=

>  <r_lp_tautomer_probability>  (165) 
0.99995

>  <r_epik_Ionization_Penalty>  (165) 
0.452236

>  <r_epik_Ionization_Penalty_Charging>  (165) 
0.0639471

>  <r_epik_Ionization_Penalty_Neutral>  (165) 
0.388289

>  <r_epik_State_Penalty>  (165) 
0.84458

>  <r_epik_Charging_Adjusted_Penalty>  (165) 
0.908527

>  <i_epik_Tot_Q>  (165) 
2

>  <i_epik_Tot_abs_Q>  (165) 
2

>  <s_epik_Chemistry_Notes>  (165) 
This compound has an imine and may undergo hydrolysis.

>  <s_lp_Force_Field>  (165) 
OPLS3e

>  <r_lp_Energy>  (165) 
68.5682

>  <b_lp_Chiralities_Consistent>  (165) 
1

>  <s_lp_Variant>  (165) 
46:0-2

>  <s_i_glide_gridfile>  (165) 
pfpi4k_grid

>  <i_i_glide_lignum>  (165) 
24

>  <i_i_glide_rotatable_bonds>  (165) 
3

>  <r_i_docking_score>  (165) 
-3.34705

>  <r_i_glide_ligand_efficiency>  (165) 
-0.104595

>  <r_i_glide_ligand_efficiency_sa>  (165) 
-0.33207

>  <r_i_glide_ligand_efficiency_ln>  (165) 
-0.749496

>  <r_i_glide_gscore>  (165) 
-3.34705

>  <r_i_glide_lipo>  (165) 
-0.172954

>  <r_i_glide_hbond>  (165) 
-0.16

>  <r_i_glide_metal>  (165) 
-0

>  <r_i_glide_rewards>  (165) 
-0.468963

>  <r_i_glide_evdw>  (165) 
-24.0975

>  <r_i_glide_ecoul>  (165) 
-9.6696

>  <r_i_glide_erotb>  (165) 
0.209984

>  <r_i_glide_esite>  (165) 
-0.0998056

>  <r_i_glide_emodel>  (165) 
-44.503

>  <r_i_glide_energy>  (165) 
-33.7671

>  <r_i_glide_einternal>  (165) 
1.11548

>  <r_i_glide_intrahb_reward>  (165) 
-0

>  <i_i_glide_confnum>  (165) 
2

>  <i_i_glide_posenum>  (165) 
17

>  <r_i_glide_eff_state_penalty>  (165) 
0

>  <ligand_id>  (165) 
46

>  <original_smiles>  (165) 
CC12CCC3CCC4C(CC=C5CC(=O)CCC54C)C3C1CC(=NCCn1ccnc1)C2

>  <smiles>  (165) 
[H]C1=C2C([H])([H])C(=O)C([H])([H])C([H])([H])C2(C([H])([H])[H])C2([H])C([H])([H])C([H])([H])C3([H])C([H])([H])C([H])([H])C4(C([H])([H])[H])C([H])([H])C(=[N+]([H])C([H])([H])C([H])([H])n5c([H])c([H])[n+]([H])c5[H])C([H])([H])C4([H])C3([H])C2([H])C1([H])[H]

$$$$
46:2:0
     RDKit          3D

 72 77  0  0  1  0  0  0  0  0999 V2000
    5.3525   -0.3202    3.1156 C   0  0  0  0  0  0  0  0  0  0  0  0
    3.9774   -0.3186    2.4074 C   0  0  1  0  0  0  0  0  0  0  0  0
    4.1494   -0.4350    0.8693 C   0  0  0  0  0  0  0  0  0  0  0  0
    4.6137   -1.8223    0.4139 C   0  0  0  0  0  0  0  0  0  0  0  0
    3.6813   -2.9559    0.8986 C   0  0  1  0  0  0  0  0  0  0  0  0
    4.2569   -4.3092    0.4162 C   0  0  0  0  0  0  0  0  0  0  0  0
    4.0365   -5.4926    1.3687 C   0  0  0  0  0  0  0  0  0  0  0  0
    2.7151   -5.3795    2.1455 C   0  0  2  0  0  0  0  0  0  0  0  0
    2.7341   -4.1256    3.0584 C   0  0  2  0  0  0  0  0  0  0  0  0
    1.3166   -3.8880    3.6153 C   0  0  0  0  0  0  0  0  0  0  0  0
    0.6433   -5.1627    4.0888 C   0  0  0  0  0  0  0  0  0  0  0  0
    1.0738   -6.4076    3.8115 C   0  0  0  0  0  0  0  0  0  0  0  0
    0.3408   -7.6143    4.4035 C   0  0  0  0  0  0  0  0  0  0  0  0
    0.1018   -8.6744    3.3371 C   0  0  0  0  0  0  0  0  0  0  0  0
   -1.0040   -9.1949    3.1800 O   0  0  0  0  0  0  0  0  0  0  0  0
    1.2861   -9.0582    2.4730 C   0  0  0  0  0  0  0  0  0  0  0  0
    1.9182   -7.7922    1.8656 C   0  0  0  0  0  0  0  0  0  0  0  0
    2.2850   -6.6881    2.9073 C   0  0  1  0  0  0  0  0  0  0  0  0
    3.4290   -7.2087    3.8138 C   0  0  0  0  0  0  0  0  0  0  0  0
    3.4777   -2.8868    2.4346 C   0  0  2  0  0  0  0  0  0  0  0  0
    3.0560   -1.4583    2.9276 C   0  0  2  0  0  0  0  0  0  0  0  0
    1.6212   -0.9591    2.6038 C   0  0  0  0  0  0  0  0  0  0  0  0
    1.7746    0.5294    2.6076 C   0  0  0  0  0  0  0  0  0  0  0  0
    0.8131    1.3620    2.4778 N   0  0  0  0  0  0  0  0  0  0  0  0
   -0.6253    1.0640    2.3308 C   0  0  0  0  0  0  0  0  0  0  0  0
   -1.5039    1.9138    3.2569 C   0  0  0  0  0  0  0  0  0  0  0  0
   -1.3851    1.4650    4.6334 N   0  0  0  0  0  0  0  0  0  0  0  0
   -0.8257    2.1775    5.6941 C   0  0  0  0  0  0  0  0  0  0  0  0
   -0.9021    1.3784    6.7942 C   0  0  0  0  0  0  0  0  0  0  0  0
   -1.5340    0.1487    6.4480 N   0  0  0  0  0  0  0  0  0  0  0  0
   -1.7849    0.3159    5.1405 C   0  0  0  0  0  0  0  0  0  0  0  0
    3.1893    0.9712    2.7357 C   0  0  0  0  0  0  0  0  0  0  0  0
    5.9755    0.5083    2.8015 H   0  0  0  0  0  0  0  0  0  0  0  0
    5.9240   -1.2245    2.9024 H   0  0  0  0  0  0  0  0  0  0  0  0
    5.2464   -0.2457    4.1988 H   0  0  0  0  0  0  0  0  0  0  0  0
    3.2029   -0.2473    0.3640 H   0  0  0  0  0  0  0  0  0  0  0  0
    4.8448    0.3238    0.5027 H   0  0  0  0  0  0  0  0  0  0  0  0
    4.6478   -1.8322   -0.6752 H   0  0  0  0  0  0  0  0  0  0  0  0
    5.6360   -1.9919    0.7486 H   0  0  0  0  0  0  0  0  0  0  0  0
    2.7087   -2.8202    0.4305 H   0  0  0  0  0  0  0  0  0  0  0  0
    3.7741   -4.5447   -0.5348 H   0  0  0  0  0  0  0  0  0  0  0  0
    5.3175   -4.2323    0.1768 H   0  0  0  0  0  0  0  0  0  0  0  0
    4.0979   -6.4200    0.7982 H   0  0  0  0  0  0  0  0  0  0  0  0
    4.8650   -5.5107    2.0836 H   0  0  0  0  0  0  0  0  0  0  0  0
    1.9431   -5.1987    1.3950 H   0  0  0  0  0  0  0  0  0  0  0  0
    3.3305   -4.3812    3.9351 H   0  0  0  0  0  0  0  0  0  0  0  0
    1.3690   -3.2131    4.4746 H   0  0  0  0  0  0  0  0  0  0  0  0
    0.6528   -3.4407    2.8836 H   0  0  0  0  0  0  0  0  0  0  0  0
   -0.2326   -5.0124    4.7033 H   0  0  0  0  0  0  0  0  0  0  0  0
    0.9388   -8.0435    5.2034 H   0  0  0  0  0  0  0  0  0  0  0  0
   -0.6124   -7.3098    4.8279 H   0  0  0  0  0  0  0  0  0  0  0  0
    2.0098   -9.6061    3.0761 H   0  0  0  0  0  0  0  0  0  0  0  0
    0.9676   -9.7389    1.6843 H   0  0  0  0  0  0  0  0  0  0  0  0
    2.7923   -8.1004    1.2938 H   0  0  0  0  0  0  0  0  0  0  0  0
    1.2134   -7.3911    1.1357 H   0  0  0  0  0  0  0  0  0  0  0  0
    4.3104   -7.4887    3.2372 H   0  0  0  0  0  0  0  0  0  0  0  0
    3.1272   -8.0926    4.3817 H   0  0  0  0  0  0  0  0  0  0  0  0
    3.7284   -6.4605    4.5483 H   0  0  0  0  0  0  0  0  0  0  0  0
    4.4927   -3.0042    2.8153 H   0  0  0  0  0  0  0  0  0  0  0  0
    3.1433   -1.4591    4.0142 H   0  0  0  0  0  0  0  0  0  0  0  0
    1.2931   -1.2844    1.6180 H   0  0  0  0  0  0  0  0  0  0  0  0
    0.8908   -1.2560    3.3517 H   0  0  0  0  0  0  0  0  0  0  0  0
   -0.8661    1.2638    1.2874 H   0  0  0  0  0  0  0  0  0  0  0  0
   -0.7973    0.0050    2.5302 H   0  0  0  0  0  0  0  0  0  0  0  0
   -1.2433    2.9764    3.1732 H   0  0  0  0  0  0  0  0  0  0  0  0
   -2.5475    1.8323    2.9667 H   0  0  0  0  0  0  0  0  0  0  0  0
   -0.4137    3.1761    5.5749 H   0  0  0  0  0  0  0  0  0  0  0  0
   -0.5679    1.5473    7.7983 H   0  0  0  0  0  0  0  0  0  0  0  0
   -2.2668   -0.4535    4.5617 H   0  0  0  0  0  0  0  0  0  0  0  0
    3.3611    1.2792    3.7653 H   0  0  0  0  0  0  0  0  0  0  0  0
    3.4041    1.8136    2.0877 H   0  0  0  0  0  0  0  0  0  0  0  0
    1.0406    2.3608    2.4120 H   0  0  0  0  0  0  0  0  0  0  0  0
  2  1  1  1
  1 33  1  0
  1 34  1  0
  1 35  1  0
  2 21  1  0
  2 32  1  0
  2  3  1  0
  3  4  1  0
  3 36  1  0
  3 37  1  0
  4  5  1  0
  4 38  1  0
  4 39  1  0
  5 20  1  0
  5  6  1  0
  5 40  1  6
  6  7  1  0
  6 41  1  0
  6 42  1  0
  7  8  1  0
  7 43  1  0
  7 44  1  0
  8 18  1  0
  8  9  1  0
  8 45  1  6
  9 10  1  0
  9 20  1  0
  9 46  1  1
 10 11  1  0
 10 47  1  0
 10 48  1  0
 11 12  2  0
 11 49  1  0
 12 18  1  0
 12 13  1  0
 13 14  1  0
 13 50  1  0
 13 51  1  0
 14 15  2  0
 14 16  1  0
 16 17  1  0
 16 52  1  0
 16 53  1  0
 17 18  1  0
 17 54  1  0
 17 55  1  0
 18 19  1  1
 19 56  1  0
 19 57  1  0
 19 58  1  0
 20 21  1  0
 20 59  1  1
 21 22  1  0
 21 60  1  1
 22 23  1  0
 22 61  1  0
 22 62  1  0
 23 24  2  3
 23 32  1  0
 24 25  1  0
 24 72  1  0
 25 26  1  0
 25 63  1  0
 25 64  1  0
 26 27  1  0
 26 65  1  0
 26 66  1  0
 27 31  1  0
 27 28  1  0
 28 29  2  0
 28 67  1  0
 29 30  1  0
 29 68  1  0
 30 31  2  0
 31 69  1  0
 32 70  1  0
 32 71  1  0
M  CHG  1  24   1
M  END
>  <i_m_ct_stereo_status>  (166) 
1

>  <s_m_source_file>  (166) 
/var/tmp/pbs.5076255.sched01/tmpio9qf6gp/4214r_5_m5.sdf

>  <i_m_source_file_index>  (166) 
25

>  <i_lp_mmshare_version>  (166) 
48012

>  <i_f3d_flags>  (166) 
0

>  <s_epik_input>  (166) 
W2NIXTFuW2NIXVtjSF1uMVtDSDJdW0NIMl0vTj1DKFtDSDJdMilcW0NIMl1bQ0BIXShbQ0BdMjNbQ0gzXSlbQ0BASF00W0NAQEhdKFtDSDJdW0NIMl0zKVtDSDJdW0NIMl1bQ0BASF01W0NAQEhdNFtDSDJdW0NIXT1DNltDQEBdNShbQ0gzXSlbQ0gyXVtDSDJdQyg9TylbQ0gyXTY=

>  <s_epik_cmdline>  (166) 
J2VwaWtfcHl0aG9uJywgJy1waHQnLCAnMi4wJywgJy1waCcsICc3LjAnLCAnLXRuJywgJzgnLCAnLW1hJywgJzIwMCcsICctaW1hZScsICc8aW5maWxlLm1hZT4nLCAnLW9tYWUnLCAnPG91dGZpbGUubWFlPic=

>  <r_lp_tautomer_probability>  (166) 
0.99995

>  <r_epik_Ionization_Penalty>  (166) 
0.472743

>  <r_epik_Ionization_Penalty_Charging>  (166) 
0.472637

>  <r_epik_Ionization_Penalty_Neutral>  (166) 
0.000106412

>  <r_epik_State_Penalty>  (166) 
0.887724

>  <r_epik_Charging_Adjusted_Penalty>  (166) 
1.36036

>  <i_epik_Tot_Q>  (166) 
1

>  <i_epik_Tot_abs_Q>  (166) 
1

>  <s_epik_Chemistry_Notes>  (166) 
This compound has an imine and may undergo hydrolysis.

>  <s_lp_Force_Field>  (166) 
OPLS3e

>  <r_lp_Energy>  (166) 
58.4913

>  <b_lp_Chiralities_Consistent>  (166) 
1

>  <s_lp_Variant>  (166) 
46:0-3

>  <s_i_glide_gridfile>  (166) 
pfpi4k_grid

>  <i_i_glide_lignum>  (166) 
25

>  <i_i_glide_rotatable_bonds>  (166) 
3

>  <r_i_docking_score>  (166) 
-3.69822

>  <r_i_glide_ligand_efficiency>  (166) 
-0.115569

>  <r_i_glide_ligand_efficiency_sa>  (166) 
-0.36691

>  <r_i_glide_ligand_efficiency_ln>  (166) 
-0.828133

>  <r_i_glide_gscore>  (166) 
-3.69822

>  <r_i_glide_lipo>  (166) 
-0.405481

>  <r_i_glide_hbond>  (166) 
-0.16

>  <r_i_glide_metal>  (166) 
-0

>  <r_i_glide_rewards>  (166) 
-0.445659

>  <r_i_glide_evdw>  (166) 
-26.6968

>  <r_i_glide_ecoul>  (166) 
-9.29474

>  <r_i_glide_erotb>  (166) 
0.210868

>  <r_i_glide_esite>  (166) 
-0.1689

>  <r_i_glide_emodel>  (166) 
-46.064

>  <r_i_glide_energy>  (166) 
-35.9916

>  <r_i_glide_einternal>  (166) 
1.81905

>  <r_i_glide_intrahb_reward>  (166) 
-0

>  <i_i_glide_confnum>  (166) 
2

>  <i_i_glide_posenum>  (166) 
27

>  <r_i_glide_eff_state_penalty>  (166) 
0

>  <ligand_id>  (166) 
46

>  <original_smiles>  (166) 
CC12CCC3CCC4C(CC=C5CC(=O)CCC54C)C3C1CC(=NCCn1ccnc1)C2

>  <smiles>  (166) 
[H]C1=C2C([H])([H])C(=O)C([H])([H])C([H])([H])C2(C([H])([H])[H])C2([H])C([H])([H])C([H])([H])C3([H])C([H])([H])C([H])([H])C4(C([H])([H])[H])C([H])([H])C(=[N+]([H])C([H])([H])C([H])([H])n5c([H])nc([H])c5[H])C([H])([H])C4([H])C3([H])C2([H])C1([H])[H]

$$$$
46:2:1
     RDKit          3D

 72 77  0  0  1  0  0  0  0  0999 V2000
    5.7312   -0.9608    2.0128 C   0  0  0  0  0  0  0  0  0  0  0  0
    4.2644   -0.8427    1.5515 C   0  0  1  0  0  0  0  0  0  0  0  0
    4.1390   -1.1500    0.0424 C   0  0  0  0  0  0  0  0  0  0  0  0
    4.2949   -2.6352   -0.2622 C   0  0  0  0  0  0  0  0  0  0  0  0
    3.3123   -3.5214    0.5276 C   0  0  1  0  0  0  0  0  0  0  0  0
    3.5991   -4.9924    0.1673 C   0  0  0  0  0  0  0  0  0  0  0  0
    3.3819   -6.0124    1.2978 C   0  0  0  0  0  0  0  0  0  0  0  0
    2.2535   -5.5861    2.2490 C   0  0  2  0  0  0  0  0  0  0  0  0
    2.6161   -4.2535    2.9517 C   0  0  2  0  0  0  0  0  0  0  0  0
    1.3623   -3.7142    3.6601 C   0  0  0  0  0  0  0  0  0  0  0  0
    0.6279   -4.7770    4.4458 C   0  0  0  0  0  0  0  0  0  0  0  0
    0.8177   -6.0965    4.3018 C   0  0  0  0  0  0  0  0  0  0  0  0
    0.0377   -7.0803    5.1651 C   0  0  0  0  0  0  0  0  0  0  0  0
   -0.5726   -8.1589    4.2853 C   0  0  0  0  0  0  0  0  0  0  0  0
   -1.7867   -8.3545    4.2500 O   0  0  0  0  0  0  0  0  0  0  0  0
    0.3719   -8.8788    3.3298 C   0  0  0  0  0  0  0  0  0  0  0  0
    1.0716   -7.8290    2.4498 C   0  0  0  0  0  0  0  0  0  0  0  0
    1.7844   -6.6966    3.2562 C   0  0  1  0  0  0  0  0  0  0  0  0
    2.9729   -7.3000    4.0309 C   0  0  0  0  0  0  0  0  0  0  0  0
    3.4009   -3.2442    2.0424 C   0  0  2  0  0  0  0  0  0  0  0  0
    3.2933   -1.7254    2.3841 C   0  0  2  0  0  0  0  0  0  0  0  0
    1.9150   -1.0305    2.2190 C   0  0  0  0  0  0  0  0  0  0  0  0
    2.2939    0.3858    1.9847 C   0  0  0  0  0  0  0  0  0  0  0  0
    1.4614    1.3783    1.9129 N   0  0  0  0  0  0  0  0  0  0  0  0
   -0.0046    1.2996    1.9831 C   0  0  0  0  0  0  0  0  0  0  0  0
   -0.5818    2.3212    2.9885 C   0  0  0  0  0  0  0  0  0  0  0  0
   -0.8118    1.7368    4.3140 N   0  0  0  0  0  0  0  0  0  0  0  0
   -0.5110    2.3197    5.5427 C   0  0  0  0  0  0  0  0  0  0  0  0
   -0.9008    1.4100    6.5034 C   0  0  0  0  0  0  0  0  0  0  0  0
   -1.4966    0.3045    5.9063 N   0  0  0  0  0  0  0  0  0  0  0  0
   -1.4142    0.5830    4.6044 C   0  0  0  0  0  0  0  0  0  0  0  0
    3.7471    0.5743    1.8148 C   0  0  0  0  0  0  0  0  0  0  0  0
    6.3616   -0.2691    1.4528 H   0  0  0  0  0  0  0  0  0  0  0  0
    6.1281   -1.9628    1.8568 H   0  0  0  0  0  0  0  0  0  0  0  0
    5.8427   -0.7302    3.0748 H   0  0  0  0  0  0  0  0  0  0  0  0
    3.1629   -0.8372   -0.3316 H   0  0  0  0  0  0  0  0  0  0  0  0
    4.8757   -0.5747   -0.5232 H   0  0  0  0  0  0  0  0  0  0  0  0
    4.1308   -2.7828   -1.3266 H   0  0  0  0  0  0  0  0  0  0  0  0
    5.3233   -2.9393   -0.0652 H   0  0  0  0  0  0  0  0  0  0  0  0
    2.3009   -3.2910    0.1921 H   0  0  0  0  0  0  0  0  0  0  0  0
    2.8888   -5.2236   -0.6181 H   0  0  0  0  0  0  0  0  0  0  0  0
    4.5874   -5.1279   -0.2797 H   0  0  0  0  0  0  0  0  0  0  0  0
    3.1895   -7.0003    0.8735 H   0  0  0  0  0  0  0  0  0  0  0  0
    4.3054   -6.0799    1.8739 H   0  0  0  0  0  0  0  0  0  0  0  0
    1.3946   -5.3685    1.6160 H   0  0  0  0  0  0  0  0  0  0  0  0
    3.3123   -4.4892    3.7560 H   0  0  0  0  0  0  0  0  0  0  0  0
    1.6551   -2.9467    4.3811 H   0  0  0  0  0  0  0  0  0  0  0  0
    0.6487   -3.2870    2.9523 H   0  0  0  0  0  0  0  0  0  0  0  0
   -0.0974   -4.3924    5.1542 H   0  0  0  0  0  0  0  0  0  0  0  0
    0.6822   -7.5245    5.9225 H   0  0  0  0  0  0  0  0  0  0  0  0
   -0.7655   -6.5587    5.6791 H   0  0  0  0  0  0  0  0  0  0  0  0
    1.0908   -9.4769    3.8933 H   0  0  0  0  0  0  0  0  0  0  0  0
   -0.1997   -9.5805    2.7228 H   0  0  0  0  0  0  0  0  0  0  0  0
    1.7654   -8.3627    1.7981 H   0  0  0  0  0  0  0  0  0  0  0  0
    0.3109   -7.4103    1.7904 H   0  0  0  0  0  0  0  0  0  0  0  0
    3.6796   -7.7927    3.3596 H   0  0  0  0  0  0  0  0  0  0  0  0
    2.6416   -8.0433    4.7609 H   0  0  0  0  0  0  0  0  0  0  0  0
    3.5006   -6.5256    4.5894 H   0  0  0  0  0  0  0  0  0  0  0  0
    4.4386   -3.4840    2.2636 H   0  0  0  0  0  0  0  0  0  0  0  0
    3.5785   -1.6034    3.4290 H   0  0  0  0  0  0  0  0  0  0  0  0
    1.3763   -1.4035    1.3505 H   0  0  0  0  0  0  0  0  0  0  0  0
    1.2901   -1.0968    3.1060 H   0  0  0  0  0  0  0  0  0  0  0  0
   -0.3273    1.5404    0.9636 H   0  0  0  0  0  0  0  0  0  0  0  0
   -0.3149    0.2706    2.1952 H   0  0  0  0  0  0  0  0  0  0  0  0
    0.0572    3.2094    3.0734 H   0  0  0  0  0  0  0  0  0  0  0  0
   -1.5381    2.6782    2.6211 H   0  0  0  0  0  0  0  0  0  0  0  0
   -0.0523    3.2879    5.6457 H   0  0  0  0  0  0  0  0  0  0  0  0
   -0.8118    1.4740    7.5813 H   0  0  0  0  0  0  0  0  0  0  0  0
   -1.8139   -0.0779    3.8510 H   0  0  0  0  0  0  0  0  0  0  0  0
    4.1487    0.9313    2.7613 H   0  0  0  0  0  0  0  0  0  0  0  0
    3.9708    1.2797    1.0165 H   0  0  0  0  0  0  0  0  0  0  0  0
    1.8289    2.2988    1.6813 H   0  0  0  0  0  0  0  0  0  0  0  0
  2  1  1  1
  1 33  1  0
  1 34  1  0
  1 35  1  0
  2 21  1  0
  2 32  1  0
  2  3  1  0
  3  4  1  0
  3 36  1  0
  3 37  1  0
  4  5  1  0
  4 38  1  0
  4 39  1  0
  5 20  1  0
  5  6  1  0
  5 40  1  6
  6  7  1  0
  6 41  1  0
  6 42  1  0
  7  8  1  0
  7 43  1  0
  7 44  1  0
  8 18  1  0
  8  9  1  0
  8 45  1  6
  9 10  1  0
  9 20  1  0
  9 46  1  1
 10 11  1  0
 10 47  1  0
 10 48  1  0
 11 12  2  0
 11 49  1  0
 12 18  1  0
 12 13  1  0
 13 14  1  0
 13 50  1  0
 13 51  1  0
 14 15  2  0
 14 16  1  0
 16 17  1  0
 16 52  1  0
 16 53  1  0
 17 18  1  0
 17 54  1  0
 17 55  1  0
 18 19  1  1
 19 56  1  0
 19 57  1  0
 19 58  1  0
 20 21  1  0
 20 59  1  1
 21 22  1  0
 21 60  1  1
 22 23  1  0
 22 61  1  0
 22 62  1  0
 23 24  2  3
 23 32  1  0
 24 25  1  0
 24 72  1  0
 25 26  1  0
 25 63  1  0
 25 64  1  0
 26 27  1  0
 26 65  1  0
 26 66  1  0
 27 31  1  0
 27 28  1  0
 28 29  2  0
 28 67  1  0
 29 30  1  0
 29 68  1  0
 30 31  2  0
 31 69  1  0
 32 70  1  0
 32 71  1  0
M  CHG  1  24   1
M  END
>  <i_m_ct_stereo_status>  (167) 
1

>  <s_m_source_file>  (167) 
/var/tmp/pbs.5076255.sched01/tmpio9qf6gp/4214r_5_m5.sdf

>  <i_m_source_file_index>  (167) 
25

>  <i_lp_mmshare_version>  (167) 
48012

>  <i_f3d_flags>  (167) 
0

>  <s_epik_input>  (167) 
W2NIXTFuW2NIXVtjSF1uMVtDSDJdW0NIMl0vTj1DKFtDSDJdMilcW0NIMl1bQ0BIXShbQ0BdMjNbQ0gzXSlbQ0BASF00W0NAQEhdKFtDSDJdW0NIMl0zKVtDSDJdW0NIMl1bQ0BASF01W0NAQEhdNFtDSDJdW0NIXT1DNltDQEBdNShbQ0gzXSlbQ0gyXVtDSDJdQyg9TylbQ0gyXTY=

>  <s_epik_cmdline>  (167) 
J2VwaWtfcHl0aG9uJywgJy1waHQnLCAnMi4wJywgJy1waCcsICc3LjAnLCAnLXRuJywgJzgnLCAnLW1hJywgJzIwMCcsICctaW1hZScsICc8aW5maWxlLm1hZT4nLCAnLW9tYWUnLCAnPG91dGZpbGUubWFlPic=

>  <r_lp_tautomer_probability>  (167) 
0.99995

>  <r_epik_Ionization_Penalty>  (167) 
0.472743

>  <r_epik_Ionization_Penalty_Charging>  (167) 
0.472637

>  <r_epik_Ionization_Penalty_Neutral>  (167) 
0.000106412

>  <r_epik_State_Penalty>  (167) 
0.887724

>  <r_epik_Charging_Adjusted_Penalty>  (167) 
1.36036

>  <i_epik_Tot_Q>  (167) 
1

>  <i_epik_Tot_abs_Q>  (167) 
1

>  <s_epik_Chemistry_Notes>  (167) 
This compound has an imine and may undergo hydrolysis.

>  <s_lp_Force_Field>  (167) 
OPLS3e

>  <r_lp_Energy>  (167) 
58.4913

>  <b_lp_Chiralities_Consistent>  (167) 
1

>  <s_lp_Variant>  (167) 
46:0-3

>  <s_i_glide_gridfile>  (167) 
pfpi4k_grid

>  <i_i_glide_lignum>  (167) 
25

>  <i_i_glide_rotatable_bonds>  (167) 
3

>  <r_i_docking_score>  (167) 
-3.18045

>  <r_i_glide_ligand_efficiency>  (167) 
-0.0993891

>  <r_i_glide_ligand_efficiency_sa>  (167) 
-0.315541

>  <r_i_glide_ligand_efficiency_ln>  (167) 
-0.71219

>  <r_i_glide_gscore>  (167) 
-3.18045

>  <r_i_glide_lipo>  (167) 
-0.240175

>  <r_i_glide_hbond>  (167) 
-0.0187074

>  <r_i_glide_metal>  (167) 
-0

>  <r_i_glide_rewards>  (167) 
-0.445659

>  <r_i_glide_evdw>  (167) 
-27.1252

>  <r_i_glide_ecoul>  (167) 
-7.69814

>  <r_i_glide_erotb>  (167) 
0.210868

>  <r_i_glide_esite>  (167) 
-0.175797

>  <r_i_glide_emodel>  (167) 
-42.1919

>  <r_i_glide_energy>  (167) 
-34.8233

>  <r_i_glide_einternal>  (167) 
3.84321

>  <r_i_glide_intrahb_reward>  (167) 
-0

>  <i_i_glide_confnum>  (167) 
2

>  <i_i_glide_posenum>  (167) 
25

>  <r_i_glide_eff_state_penalty>  (167) 
0

>  <ligand_id>  (167) 
46

>  <original_smiles>  (167) 
CC12CCC3CCC4C(CC=C5CC(=O)CCC54C)C3C1CC(=NCCn1ccnc1)C2

>  <smiles>  (167) 
[H]C1=C2C([H])([H])C(=O)C([H])([H])C([H])([H])C2(C([H])([H])[H])C2([H])C([H])([H])C([H])([H])C3([H])C([H])([H])C([H])([H])C4(C([H])([H])[H])C([H])([H])C(=[N+]([H])C([H])([H])C([H])([H])n5c([H])nc([H])c5[H])C([H])([H])C4([H])C3([H])C2([H])C1([H])[H]

$$$$
46:2:2
     RDKit          3D

 72 77  0  0  1  0  0  0  0  0999 V2000
    5.3305   -0.3192    3.1306 C   0  0  0  0  0  0  0  0  0  0  0  0
    3.9526   -0.3156    2.4245 C   0  0  1  0  0  0  0  0  0  0  0  0
    4.1214   -0.4282    0.8865 C   0  0  0  0  0  0  0  0  0  0  0  0
    4.5824   -1.8144    0.4274 C   0  0  0  0  0  0  0  0  0  0  0  0
    3.6506   -2.9478    0.9115 C   0  0  1  0  0  0  0  0  0  0  0  0
    4.2258   -4.2997    0.4241 C   0  0  0  0  0  0  0  0  0  0  0  0
    4.0085   -5.4871    1.3727 C   0  0  0  0  0  0  0  0  0  0  0  0
    2.6898   -5.3760    2.1531 C   0  0  2  0  0  0  0  0  0  0  0  0
    2.7106   -4.1234    3.0688 C   0  0  2  0  0  0  0  0  0  0  0  0
    1.2967   -3.8866    3.6219 C   0  0  0  0  0  0  0  0  0  0  0  0
    0.6301   -5.1581    4.1005 C   0  0  0  0  0  0  0  0  0  0  0  0
    1.0544   -6.4041    3.8198 C   0  0  0  0  0  0  0  0  0  0  0  0
    0.3210   -7.6124    4.4128 C   0  0  0  0  0  0  0  0  0  0  0  0
    0.0770   -8.6712    3.3447 C   0  0  0  0  0  0  0  0  0  0  0  0
   -1.0309   -9.1850    3.1844 O   0  0  0  0  0  0  0  0  0  0  0  0
    1.2591   -9.0528    2.4758 C   0  0  0  0  0  0  0  0  0  0  0  0
    1.8902   -7.7857    1.8694 C   0  0  0  0  0  0  0  0  0  0  0  0
    2.2618   -6.6854    2.9127 C   0  0  1  0  0  0  0  0  0  0  0  0
    3.4065   -7.2102    3.8162 C   0  0  0  0  0  0  0  0  0  0  0  0
    3.4511   -2.8841    2.4467 C   0  0  2  0  0  0  0  0  0  0  0  0
    3.0299   -1.4574    2.9437 C   0  0  2  0  0  0  0  0  0  0  0  0
    1.5911   -0.9550    2.6230 C   0  0  0  0  0  0  0  0  0  0  0  0
    1.7479    0.5312    2.6328 C   0  0  0  0  0  0  0  0  0  0  0  0
    0.7920    1.3712    2.5000 N   0  0  0  0  0  0  0  0  0  0  0  0
   -0.6462    1.0690    2.3663 C   0  0  0  0  0  0  0  0  0  0  0  0
   -1.5402    2.2737    2.7090 C   0  0  0  0  0  0  0  0  0  0  0  0
   -1.4191    2.6737    4.0984 N   0  0  0  0  0  0  0  0  0  0  0  0
   -1.7782    1.9069    5.2052 C   0  0  0  0  0  0  0  0  0  0  0  0
   -1.4869    2.6607    6.3123 C   0  0  0  0  0  0  0  0  0  0  0  0
   -0.9629    3.9159    5.9029 N   0  0  0  0  0  0  0  0  0  0  0  0
   -0.9637    3.8138    4.5678 C   0  0  0  0  0  0  0  0  0  0  0  0
    3.1586    0.9720    2.7603 C   0  0  0  0  0  0  0  0  0  0  0  0
    5.9520    0.5114    2.8165 H   0  0  0  0  0  0  0  0  0  0  0  0
    5.9001   -1.2239    2.9139 H   0  0  0  0  0  0  0  0  0  0  0  0
    5.2263   -0.2473    4.2147 H   0  0  0  0  0  0  0  0  0  0  0  0
    3.1728   -0.2365    0.3864 H   0  0  0  0  0  0  0  0  0  0  0  0
    4.8164    0.3313    0.5215 H   0  0  0  0  0  0  0  0  0  0  0  0
    4.6140   -1.8213   -0.6617 H   0  0  0  0  0  0  0  0  0  0  0  0
    5.6052   -1.9858    0.7593 H   0  0  0  0  0  0  0  0  0  0  0  0
    2.6780   -2.8122    0.4451 H   0  0  0  0  0  0  0  0  0  0  0  0
    3.7390   -4.5344   -0.5264 H   0  0  0  0  0  0  0  0  0  0  0  0
    5.2859   -4.2232    0.1815 H   0  0  0  0  0  0  0  0  0  0  0  0
    4.0657   -6.4131    0.8010 H   0  0  0  0  0  0  0  0  0  0  0  0
    4.8370   -5.5071    2.0873 H   0  0  0  0  0  0  0  0  0  0  0  0
    1.9134   -5.1925    1.4066 H   0  0  0  0  0  0  0  0  0  0  0  0
    3.3085   -4.3804    3.9455 H   0  0  0  0  0  0  0  0  0  0  0  0
    1.3454   -3.2138    4.4792 H   0  0  0  0  0  0  0  0  0  0  0  0
    0.6365   -3.4465    2.8802 H   0  0  0  0  0  0  0  0  0  0  0  0
   -0.2446   -5.0131    4.7199 H   0  0  0  0  0  0  0  0  0  0  0  0
    0.9171   -8.0475    5.2119 H   0  0  0  0  0  0  0  0  0  0  0  0
   -0.6319   -7.3086    4.8389 H   0  0  0  0  0  0  0  0  0  0  0  0
    1.9828   -9.6037    3.0762 H   0  0  0  0  0  0  0  0  0  0  0  0
    0.9361   -9.7314    1.6875 H   0  0  0  0  0  0  0  0  0  0  0  0
    2.7618   -8.0949    1.2940 H   0  0  0  0  0  0  0  0  0  0  0  0
    1.1824   -7.3833    1.1430 H   0  0  0  0  0  0  0  0  0  0  0  0
    4.2867   -7.4889    3.2356 H   0  0  0  0  0  0  0  0  0  0  0  0
    3.1037   -8.0951    4.3828 H   0  0  0  0  0  0  0  0  0  0  0  0
    3.7063   -6.4623    4.5518 H   0  0  0  0  0  0  0  0  0  0  0  0
    4.4667   -3.0003    2.8248 H   0  0  0  0  0  0  0  0  0  0  0  0
    3.1192   -1.4588    4.0310 H   0  0  0  0  0  0  0  0  0  0  0  0
    1.2611   -1.2769    1.6374 H   0  0  0  0  0  0  0  0  0  0  0  0
    0.8580   -1.2503    3.3674 H   0  0  0  0  0  0  0  0  0  0  0  0
   -0.7952    0.7730    1.3223 H   0  0  0  0  0  0  0  0  0  0  0  0
   -0.8854    0.2207    3.0155 H   0  0  0  0  0  0  0  0  0  0  0  0
   -1.3066    3.1352    2.0840 H   0  0  0  0  0  0  0  0  0  0  0  0
   -2.5818    2.0420    2.5062 H   0  0  0  0  0  0  0  0  0  0  0  0
   -2.1910    0.9089    5.1206 H   0  0  0  0  0  0  0  0  0  0  0  0
   -1.5834    2.4312    7.3546 H   0  0  0  0  0  0  0  0  0  0  0  0
   -0.5999    4.6117    3.9395 H   0  0  0  0  0  0  0  0  0  0  0  0
    3.3413    1.2777    3.7896 H   0  0  0  0  0  0  0  0  0  0  0  0
    3.3414    1.8214    2.1128 H   0  0  0  0  0  0  0  0  0  0  0  0
    1.0259    2.3697    2.4458 H   0  0  0  0  0  0  0  0  0  0  0  0
  2  1  1  1
  1 33  1  0
  1 34  1  0
  1 35  1  0
  2 21  1  0
  2 32  1  0
  2  3  1  0
  3  4  1  0
  3 36  1  0
  3 37  1  0
  4  5  1  0
  4 38  1  0
  4 39  1  0
  5 20  1  0
  5  6  1  0
  5 40  1  6
  6  7  1  0
  6 41  1  0
  6 42  1  0
  7  8  1  0
  7 43  1  0
  7 44  1  0
  8 18  1  0
  8  9  1  0
  8 45  1  6
  9 10  1  0
  9 20  1  0
  9 46  1  1
 10 11  1  0
 10 47  1  0
 10 48  1  0
 11 12  2  0
 11 49  1  0
 12 18  1  0
 12 13  1  0
 13 14  1  0
 13 50  1  0
 13 51  1  0
 14 15  2  0
 14 16  1  0
 16 17  1  0
 16 52  1  0
 16 53  1  0
 17 18  1  0
 17 54  1  0
 17 55  1  0
 18 19  1  1
 19 56  1  0
 19 57  1  0
 19 58  1  0
 20 21  1  0
 20 59  1  1
 21 22  1  0
 21 60  1  1
 22 23  1  0
 22 61  1  0
 22 62  1  0
 23 24  2  3
 23 32  1  0
 24 25  1  0
 24 72  1  0
 25 26  1  0
 25 63  1  0
 25 64  1  0
 26 27  1  0
 26 65  1  0
 26 66  1  0
 27 31  1  0
 27 28  1  0
 28 29  2  0
 28 67  1  0
 29 30  1  0
 29 68  1  0
 30 31  2  0
 31 69  1  0
 32 70  1  0
 32 71  1  0
M  CHG  1  24   1
M  END
>  <i_m_ct_stereo_status>  (168) 
1

>  <s_m_source_file>  (168) 
/var/tmp/pbs.5076255.sched01/tmpio9qf6gp/4214r_5_m5.sdf

>  <i_m_source_file_index>  (168) 
25

>  <i_lp_mmshare_version>  (168) 
48012

>  <i_f3d_flags>  (168) 
0

>  <s_epik_input>  (168) 
W2NIXTFuW2NIXVtjSF1uMVtDSDJdW0NIMl0vTj1DKFtDSDJdMilcW0NIMl1bQ0BIXShbQ0BdMjNbQ0gzXSlbQ0BASF00W0NAQEhdKFtDSDJdW0NIMl0zKVtDSDJdW0NIMl1bQ0BASF01W0NAQEhdNFtDSDJdW0NIXT1DNltDQEBdNShbQ0gzXSlbQ0gyXVtDSDJdQyg9TylbQ0gyXTY=

>  <s_epik_cmdline>  (168) 
J2VwaWtfcHl0aG9uJywgJy1waHQnLCAnMi4wJywgJy1waCcsICc3LjAnLCAnLXRuJywgJzgnLCAnLW1hJywgJzIwMCcsICctaW1hZScsICc8aW5maWxlLm1hZT4nLCAnLW9tYWUnLCAnPG91dGZpbGUubWFlPic=

>  <r_lp_tautomer_probability>  (168) 
0.99995

>  <r_epik_Ionization_Penalty>  (168) 
0.472743

>  <r_epik_Ionization_Penalty_Charging>  (168) 
0.472637

>  <r_epik_Ionization_Penalty_Neutral>  (168) 
0.000106412

>  <r_epik_State_Penalty>  (168) 
0.887724

>  <r_epik_Charging_Adjusted_Penalty>  (168) 
1.36036

>  <i_epik_Tot_Q>  (168) 
1

>  <i_epik_Tot_abs_Q>  (168) 
1

>  <s_epik_Chemistry_Notes>  (168) 
This compound has an imine and may undergo hydrolysis.

>  <s_lp_Force_Field>  (168) 
OPLS3e

>  <r_lp_Energy>  (168) 
58.4913

>  <b_lp_Chiralities_Consistent>  (168) 
1

>  <s_lp_Variant>  (168) 
46:0-3

>  <s_i_glide_gridfile>  (168) 
pfpi4k_grid

>  <i_i_glide_lignum>  (168) 
25

>  <i_i_glide_rotatable_bonds>  (168) 
3

>  <r_i_docking_score>  (168) 
-3.13295

>  <r_i_glide_ligand_efficiency>  (168) 
-0.0979047

>  <r_i_glide_ligand_efficiency_sa>  (168) 
-0.310828

>  <r_i_glide_ligand_efficiency_ln>  (168) 
-0.701553

>  <r_i_glide_gscore>  (168) 
-3.13295

>  <r_i_glide_lipo>  (168) 
-0.442668

>  <r_i_glide_hbond>  (168) 
0

>  <r_i_glide_metal>  (168) 
-0

>  <r_i_glide_rewards>  (168) 
-0.445659

>  <r_i_glide_evdw>  (168) 
-28.405

>  <r_i_glide_ecoul>  (168) 
-5.76029

>  <r_i_glide_erotb>  (168) 
0.210868

>  <r_i_glide_esite>  (168) 
-0.171197

>  <r_i_glide_emodel>  (168) 
-42.2996

>  <r_i_glide_energy>  (168) 
-34.1653

>  <r_i_glide_einternal>  (168) 
2.33742

>  <r_i_glide_intrahb_reward>  (168) 
-0

>  <i_i_glide_confnum>  (168) 
4

>  <i_i_glide_posenum>  (168) 
14

>  <r_i_glide_eff_state_penalty>  (168) 
0

>  <ligand_id>  (168) 
46

>  <original_smiles>  (168) 
CC12CCC3CCC4C(CC=C5CC(=O)CCC54C)C3C1CC(=NCCn1ccnc1)C2

>  <smiles>  (168) 
[H]C1=C2C([H])([H])C(=O)C([H])([H])C([H])([H])C2(C([H])([H])[H])C2([H])C([H])([H])C([H])([H])C3([H])C([H])([H])C([H])([H])C4(C([H])([H])[H])C([H])([H])C(=[N+]([H])C([H])([H])C([H])([H])n5c([H])nc([H])c5[H])C([H])([H])C4([H])C3([H])C2([H])C1([H])[H]

$$$$
46:3:0
     RDKit          3D

 72 77  0  0  1  0  0  0  0  0999 V2000
    5.9342   -1.1478    2.6152 C   0  0  0  0  0  0  0  0  0  0  0  0
    4.5778   -1.1468    1.8925 C   0  0  1  0  0  0  0  0  0  0  0  0
    4.7712   -1.3537    0.3660 C   0  0  0  0  0  0  0  0  0  0  0  0
    5.1743   -2.7889    0.0055 C   0  0  0  0  0  0  0  0  0  0  0  0
    4.1941   -3.8526    0.5433 C   0  0  1  0  0  0  0  0  0  0  0  0
    4.7289   -5.2487    0.1577 C   0  0  0  0  0  0  0  0  0  0  0  0
    4.4393   -6.3644    1.1699 C   0  0  0  0  0  0  0  0  0  0  0  0
    3.1073   -6.1492    1.9065 C   0  0  2  0  0  0  0  0  0  0  0  0
    3.1656   -4.8517    2.7477 C   0  0  2  0  0  0  0  0  0  0  0  0
    1.7492   -4.5184    3.2557 C   0  0  0  0  0  0  0  0  0  0  0  0
    1.0093   -5.7248    3.7918 C   0  0  0  0  0  0  0  0  0  0  0  0
    1.3974   -7.0008    3.6062 C   0  0  0  0  0  0  0  0  0  0  0  0
    0.6067   -8.1378    4.2580 C   0  0  0  0  0  0  0  0  0  0  0  0
    0.3424   -9.2425    3.2459 C   0  0  0  0  0  0  0  0  0  0  0  0
   -0.7843   -9.6844    3.0350 O   0  0  0  0  0  0  0  0  0  0  0  0
    1.5276   -9.7281    2.4479 C   0  0  0  0  0  0  0  0  0  0  0  0
    2.2164   -8.5372    1.7610 C   0  0  0  0  0  0  0  0  0  0  0  0
    2.6109   -7.3865    2.7385 C   0  0  1  0  0  0  0  0  0  0  0  0
    3.7134   -7.9056    3.6978 C   0  0  0  0  0  0  0  0  0  0  0  0
    3.9657   -3.6842    2.0659 C   0  0  2  0  0  0  0  0  0  0  0  0
    3.6013   -2.2112    2.4655 C   0  0  2  0  0  0  0  0  0  0  0  0
    2.2069   -1.6616    2.0737 C   0  0  0  0  0  0  0  0  0  0  0  0
    2.4291   -0.1890    2.0780 C   0  0  0  0  0  0  0  0  0  0  0  0
    1.4594    0.6443    2.0354 N   0  0  0  0  0  0  0  0  0  0  0  0
    1.5450    2.1201    2.0998 C   0  0  0  0  0  0  0  0  0  0  0  0
    1.1072    2.6771    3.4687 C   0  0  0  0  0  0  0  0  0  0  0  0
   -0.2985    3.0248    3.5159 N   0  0  0  0  0  0  0  0  0  0  0  0
   -1.3846    2.1462    3.3876 C   0  0  0  0  0  0  0  0  0  0  0  0
   -2.5204    2.9038    3.4719 C   0  0  0  0  0  0  0  0  0  0  0  0
   -2.1747    4.2602    3.6767 N   0  0  0  0  0  0  0  0  0  0  0  0
   -0.8326    4.2175    3.6799 C   0  0  0  0  0  0  0  0  0  0  0  0
    3.8624    0.1909    2.1351 C   0  0  0  0  0  0  0  0  0  0  0  0
    6.5822   -0.3474    2.2568 H   0  0  0  0  0  0  0  0  0  0  0  0
    6.4632   -2.0890    2.4559 H   0  0  0  0  0  0  0  0  0  0  0  0
    5.7970   -1.0124    3.6892 H   0  0  0  0  0  0  0  0  0  0  0  0
    3.8503   -1.1231   -0.1685 H   0  0  0  0  0  0  0  0  0  0  0  0
    5.5196   -0.6542   -0.0138 H   0  0  0  0  0  0  0  0  0  0  0  0
    5.2263   -2.8660   -1.0792 H   0  0  0  0  0  0  0  0  0  0  0  0
    6.1810   -2.9825    0.3699 H   0  0  0  0  0  0  0  0  0  0  0  0
    3.2382   -3.7168    0.0456 H   0  0  0  0  0  0  0  0  0  0  0  0
    4.2380   -5.5194   -0.7750 H   0  0  0  0  0  0  0  0  0  0  0  0
    5.7965   -5.2274   -0.0726 H   0  0  0  0  0  0  0  0  0  0  0  0
    4.4612   -7.3265    0.6517 H   0  0  0  0  0  0  0  0  0  0  0  0
    5.2498   -6.3859    1.9063 H   0  0  0  0  0  0  0  0  0  0  0  0
    2.3505   -5.9866    1.1344 H   0  0  0  0  0  0  0  0  0  0  0  0
    3.7357   -5.0766    3.6518 H   0  0  0  0  0  0  0  0  0  0  0  0
    1.8104   -3.7968    4.0731 H   0  0  0  0  0  0  0  0  0  0  0  0
    1.1175   -4.1019    2.4757 H   0  0  0  0  0  0  0  0  0  0  0  0
    0.1223   -5.5014    4.3724 H   0  0  0  0  0  0  0  0  0  0  0  0
    1.1648   -8.5445    5.0965 H   0  0  0  0  0  0  0  0  0  0  0  0
   -0.3407   -7.7732    4.6414 H   0  0  0  0  0  0  0  0  0  0  0  0
    2.2184  -10.2812    3.0863 H   0  0  0  0  0  0  0  0  0  0  0  0
    1.1440  -10.4195    1.7102 H   0  0  0  0  0  0  0  0  0  0  0  0
    3.0815   -8.9190    1.2194 H   0  0  0  0  0  0  0  0  0  0  0  0
    1.5315   -8.1536    1.0018 H   0  0  0  0  0  0  0  0  0  0  0  0
    4.5887   -8.2578    3.1504 H   0  0  0  0  0  0  0  0  0  0  0  0
    3.3608   -8.7432    4.3098 H   0  0  0  0  0  0  0  0  0  0  0  0
    4.0310   -7.1266    4.3933 H   0  0  0  0  0  0  0  0  0  0  0  0
    4.9687   -3.8192    2.4665 H   0  0  0  0  0  0  0  0  0  0  0  0
    3.6683   -2.1550    3.5549 H   0  0  0  0  0  0  0  0  0  0  0  0
    1.9101   -1.9831    1.0806 H   0  0  0  0  0  0  0  0  0  0  0  0
    1.4176   -1.9116    2.7733 H   0  0  0  0  0  0  0  0  0  0  0  0
    2.5741    2.4306    1.8774 H   0  0  0  0  0  0  0  0  0  0  0  0
    0.9112    2.4935    1.2949 H   0  0  0  0  0  0  0  0  0  0  0  0
    1.3434    1.9765    4.2796 H   0  0  0  0  0  0  0  0  0  0  0  0
    1.6818    3.5847    3.6675 H   0  0  0  0  0  0  0  0  0  0  0  0
   -1.2803    1.0740    3.2343 H   0  0  0  0  0  0  0  0  0  0  0  0
   -3.5461    2.6053    3.4021 H   0  0  0  0  0  0  0  0  0  0  0  0
   -0.2465    5.1064    3.8045 H   0  0  0  0  0  0  0  0  0  0  0  0
    4.0830    0.5944    3.1200 H   0  0  0  0  0  0  0  0  0  0  0  0
    4.1122    0.9290    1.3780 H   0  0  0  0  0  0  0  0  0  0  0  0
    0.5236    0.2659    1.8706 H   0  0  0  0  0  0  0  0  0  0  0  0
  2  1  1  1
  1 33  1  0
  1 34  1  0
  1 35  1  0
  2 21  1  0
  2 32  1  0
  2  3  1  0
  3  4  1  0
  3 36  1  0
  3 37  1  0
  4  5  1  0
  4 38  1  0
  4 39  1  0
  5 20  1  0
  5  6  1  0
  5 40  1  6
  6  7  1  0
  6 41  1  0
  6 42  1  0
  7  8  1  0
  7 43  1  0
  7 44  1  0
  8 18  1  0
  8  9  1  0
  8 45  1  6
  9 10  1  0
  9 20  1  0
  9 46  1  1
 10 11  1  0
 10 47  1  0
 10 48  1  0
 11 12  2  0
 11 49  1  0
 12 18  1  0
 12 13  1  0
 13 14  1  0
 13 50  1  0
 13 51  1  0
 14 15  2  0
 14 16  1  0
 16 17  1  0
 16 52  1  0
 16 53  1  0
 17 18  1  0
 17 54  1  0
 17 55  1  0
 18 19  1  1
 19 56  1  0
 19 57  1  0
 19 58  1  0
 20 21  1  0
 20 59  1  1
 21 22  1  0
 21 60  1  1
 22 23  1  0
 22 61  1  0
 22 62  1  0
 23 24  2  3
 23 32  1  0
 24 25  1  0
 24 72  1  0
 25 26  1  0
 25 63  1  0
 25 64  1  0
 26 27  1  0
 26 65  1  0
 26 66  1  0
 27 31  1  0
 27 28  1  0
 28 29  2  0
 28 67  1  0
 29 30  1  0
 29 68  1  0
 30 31  2  0
 31 69  1  0
 32 70  1  0
 32 71  1  0
M  CHG  1  24   1
M  END
>  <i_m_ct_stereo_status>  (169) 
1

>  <s_m_source_file>  (169) 
/var/tmp/pbs.5076255.sched01/tmpio9qf6gp/4214r_5_m5.sdf

>  <i_m_source_file_index>  (169) 
26

>  <i_lp_mmshare_version>  (169) 
48012

>  <i_f3d_flags>  (169) 
0

>  <s_epik_input>  (169) 
W2NIXTFuW2NIXVtjSF1uMVtDSDJdW0NIMl0vTj1DKFtDSDJdMilcW0NIMl1bQ0BIXShbQ0BdMjNbQ0gzXSlbQ0BASF00W0NAQEhdKFtDSDJdW0NIMl0zKVtDSDJdW0NIMl1bQ0BASF01W0NAQEhdNFtDSDJdW0NIXT1DNltDQEBdNShbQ0gzXSlbQ0gyXVtDSDJdQyg9TylbQ0gyXTY=

>  <s_epik_cmdline>  (169) 
J2VwaWtfcHl0aG9uJywgJy1waHQnLCAnMi4wJywgJy1waCcsICc3LjAnLCAnLXRuJywgJzgnLCAnLW1hJywgJzIwMCcsICctaW1hZScsICc8aW5maWxlLm1hZT4nLCAnLW9tYWUnLCAnPG91dGZpbGUubWFlPic=

>  <r_lp_tautomer_probability>  (169) 
0.99995

>  <r_epik_Ionization_Penalty>  (169) 
0.472743

>  <r_epik_Ionization_Penalty_Charging>  (169) 
0.472637

>  <r_epik_Ionization_Penalty_Neutral>  (169) 
0.000106412

>  <r_epik_State_Penalty>  (169) 
0.887724

>  <r_epik_Charging_Adjusted_Penalty>  (169) 
1.36036

>  <i_epik_Tot_Q>  (169) 
1

>  <i_epik_Tot_abs_Q>  (169) 
1

>  <s_epik_Chemistry_Notes>  (169) 
This compound has an imine and may undergo hydrolysis.

>  <s_lp_Force_Field>  (169) 
OPLS3e

>  <r_lp_Energy>  (169) 
58.2808

>  <b_lp_Chiralities_Consistent>  (169) 
1

>  <s_lp_Variant>  (169) 
46:0-4

>  <s_i_glide_gridfile>  (169) 
pfpi4k_grid

>  <i_i_glide_lignum>  (169) 
26

>  <i_i_glide_rotatable_bonds>  (169) 
3

>  <r_i_docking_score>  (169) 
-3.6846

>  <r_i_glide_ligand_efficiency>  (169) 
-0.115144

>  <r_i_glide_ligand_efficiency_sa>  (169) 
-0.365558

>  <r_i_glide_ligand_efficiency_ln>  (169) 
-0.825082

>  <r_i_glide_gscore>  (169) 
-3.6846

>  <r_i_glide_lipo>  (169) 
-0.470769

>  <r_i_glide_hbond>  (169) 
-0.136639

>  <r_i_glide_metal>  (169) 
-0

>  <r_i_glide_rewards>  (169) 
-0.445659

>  <r_i_glide_evdw>  (169) 
-27.2353

>  <r_i_glide_ecoul>  (169) 
-7.98735

>  <r_i_glide_erotb>  (169) 
0.210868

>  <r_i_glide_esite>  (169) 
-0.282529

>  <r_i_glide_emodel>  (169) 
-42.5744

>  <r_i_glide_energy>  (169) 
-35.2227

>  <r_i_glide_einternal>  (169) 
2.82604

>  <r_i_glide_intrahb_reward>  (169) 
-0

>  <i_i_glide_confnum>  (169) 
3

>  <i_i_glide_posenum>  (169) 
25

>  <r_i_glide_eff_state_penalty>  (169) 
0

>  <ligand_id>  (169) 
46

>  <original_smiles>  (169) 
CC12CCC3CCC4C(CC=C5CC(=O)CCC54C)C3C1CC(=NCCn1ccnc1)C2

>  <smiles>  (169) 
[H]C1=C2C([H])([H])C(=O)C([H])([H])C([H])([H])C2(C([H])([H])[H])C2([H])C([H])([H])C([H])([H])C3([H])C([H])([H])C([H])([H])C4(C([H])([H])[H])C([H])([H])C(=[N+]([H])C([H])([H])C([H])([H])n5c([H])nc([H])c5[H])C([H])([H])C4([H])C3([H])C2([H])C1([H])[H]

$$$$
46:3:1
     RDKit          3D

 72 77  0  0  1  0  0  0  0  0999 V2000
    4.9346   -3.4540    4.5015 C   0  0  0  0  0  0  0  0  0  0  0  0
    4.0608   -3.3650    3.2346 C   0  0  1  0  0  0  0  0  0  0  0  0
    2.9451   -4.4453    3.2478 C   0  0  0  0  0  0  0  0  0  0  0  0
    1.8333   -4.1476    4.2581 C   0  0  0  0  0  0  0  0  0  0  0  0
    1.1874   -2.7587    4.0548 C   0  0  1  0  0  0  0  0  0  0  0  0
    0.1160   -2.5462    5.1517 C   0  0  0  0  0  0  0  0  0  0  0  0
   -0.0500   -1.1010    5.6409 C   0  0  0  0  0  0  0  0  0  0  0  0
    0.2114   -0.0778    4.5267 C   0  0  2  0  0  0  0  0  0  0  0  0
    1.6805   -0.1776    4.0392 C   0  0  2  0  0  0  0  0  0  0  0  0
    1.8223    0.6428    2.7436 C   0  0  0  0  0  0  0  0  0  0  0  0
    1.1486    1.9973    2.8244 C   0  0  0  0  0  0  0  0  0  0  0  0
    0.2716    2.3594    3.7769 C   0  0  0  0  0  0  0  0  0  0  0  0
   -0.2854    3.7786    3.7939 C   0  0  0  0  0  0  0  0  0  0  0  0
   -1.7921    3.7510    3.9429 C   0  0  0  0  0  0  0  0  0  0  0  0
   -2.5200    4.4754    3.2565 O   0  0  0  0  0  0  0  0  0  0  0  0
   -2.3515    2.8914    5.0653 C   0  0  0  0  0  0  0  0  0  0  0  0
   -1.7763    1.4662    4.9636 C   0  0  0  0  0  0  0  0  0  0  0  0
   -0.2205    1.3951    4.8726 C   0  0  1  0  0  0  0  0  0  0  0  0
    0.3882    1.8600    6.2162 C   0  0  0  0  0  0  0  0  0  0  0  0
    2.2582   -1.6412    4.0279 C   0  0  2  0  0  0  0  0  0  0  0  0
    3.4302   -1.9518    3.0352 C   0  0  2  0  0  0  0  0  0  0  0  0
    3.1493   -1.8936    1.5145 C   0  0  0  0  0  0  0  0  0  0  0  0
    4.2191   -2.7783    0.9799 C   0  0  0  0  0  0  0  0  0  0  0  0
    4.4593   -2.8314   -0.2866 N   0  0  0  0  0  0  0  0  0  0  0  0
    5.5117   -3.5903   -0.9961 C   0  0  0  0  0  0  0  0  0  0  0  0
    5.2207   -3.7336   -2.5078 C   0  0  0  0  0  0  0  0  0  0  0  0
    4.4862   -2.6063   -3.0540 N   0  0  0  0  0  0  0  0  0  0  0  0
    3.4071   -2.6726   -3.9245 C   0  0  0  0  0  0  0  0  0  0  0  0
    3.0070   -1.3718   -4.1364 C   0  0  0  0  0  0  0  0  0  0  0  0
    3.8210   -0.4943   -3.4209 N   0  0  0  0  0  0  0  0  0  0  0  0
    4.6622   -1.3098   -2.8112 C   0  0  0  0  0  0  0  0  0  0  0  0
    4.9485   -3.5682    1.9888 C   0  0  0  0  0  0  0  0  0  0  0  0
    5.4282   -4.4253    4.5712 H   0  0  0  0  0  0  0  0  0  0  0  0
    4.3501   -3.3158    5.4102 H   0  0  0  0  0  0  0  0  0  0  0  0
    5.7127   -2.6895    4.4976 H   0  0  0  0  0  0  0  0  0  0  0  0
    2.4803   -4.5311    2.2646 H   0  0  0  0  0  0  0  0  0  0  0  0
    3.3770   -5.4272    3.4502 H   0  0  0  0  0  0  0  0  0  0  0  0
    1.0693   -4.9196    4.1698 H   0  0  0  0  0  0  0  0  0  0  0  0
    2.2341   -4.2444    5.2680 H   0  0  0  0  0  0  0  0  0  0  0  0
    0.6832   -2.7526    3.0887 H   0  0  0  0  0  0  0  0  0  0  0  0
   -0.8355   -2.8698    4.7402 H   0  0  0  0  0  0  0  0  0  0  0  0
    0.2859   -3.1971    6.0134 H   0  0  0  0  0  0  0  0  0  0  0  0
   -1.0454   -0.9831    6.0723 H   0  0  0  0  0  0  0  0  0  0  0  0
    0.6681   -0.9351    6.4437 H   0  0  0  0  0  0  0  0  0  0  0  0
   -0.4043   -0.3868    3.6809 H   0  0  0  0  0  0  0  0  0  0  0  0
    2.2962    0.3468    4.7697 H   0  0  0  0  0  0  0  0  0  0  0  0
    2.8786    0.8309    2.5434 H   0  0  0  0  0  0  0  0  0  0  0  0
    1.3863    0.1251    1.8889 H   0  0  0  0  0  0  0  0  0  0  0  0
    1.4283    2.7076    2.0548 H   0  0  0  0  0  0  0  0  0  0  0  0
    0.1409    4.3313    4.6307 H   0  0  0  0  0  0  0  0  0  0  0  0
   -0.0335    4.3110    2.8786 H   0  0  0  0  0  0  0  0  0  0  0  0
   -2.0851    3.3392    6.0214 H   0  0  0  0  0  0  0  0  0  0  0  0
   -3.4399    2.9028    5.0287 H   0  0  0  0  0  0  0  0  0  0  0  0
   -2.1503    0.8864    5.8050 H   0  0  0  0  0  0  0  0  0  0  0  0
   -2.1996    1.0075    4.0728 H   0  0  0  0  0  0  0  0  0  0  0  0
    0.0403    1.2554    7.0537 H   0  0  0  0  0  0  0  0  0  0  0  0
    0.1287    2.8962    6.4427 H   0  0  0  0  0  0  0  0  0  0  0  0
    1.4780    1.8161    6.1977 H   0  0  0  0  0  0  0  0  0  0  0  0
    2.7256   -1.7239    5.0094 H   0  0  0  0  0  0  0  0  0  0  0  0
    4.2158   -1.2197    3.2289 H   0  0  0  0  0  0  0  0  0  0  0  0
    2.1727   -2.3047    1.2609 H   0  0  0  0  0  0  0  0  0  0  0  0
    3.2213   -0.8989    1.0775 H   0  0  0  0  0  0  0  0  0  0  0  0
    6.4372   -3.0229   -0.8668 H   0  0  0  0  0  0  0  0  0  0  0  0
    5.6453   -4.5745   -0.5321 H   0  0  0  0  0  0  0  0  0  0  0  0
    6.1468   -3.8530   -3.0731 H   0  0  0  0  0  0  0  0  0  0  0  0
    4.6296   -4.6331   -2.6775 H   0  0  0  0  0  0  0  0  0  0  0  0
    2.9972   -3.6030   -4.3005 H   0  0  0  0  0  0  0  0  0  0  0  0
    2.1813   -0.9890   -4.7203 H   0  0  0  0  0  0  0  0  0  0  0  0
    5.4212   -0.9315   -2.1445 H   0  0  0  0  0  0  0  0  0  0  0  0
    5.9366   -3.1271    2.1166 H   0  0  0  0  0  0  0  0  0  0  0  0
    5.0612   -4.6090    1.6864 H   0  0  0  0  0  0  0  0  0  0  0  0
    3.8765   -2.2387   -0.8669 H   0  0  0  0  0  0  0  0  0  0  0  0
  2  1  1  1
  1 33  1  0
  1 34  1  0
  1 35  1  0
  2 21  1  0
  2 32  1  0
  2  3  1  0
  3  4  1  0
  3 36  1  0
  3 37  1  0
  4  5  1  0
  4 38  1  0
  4 39  1  0
  5 20  1  0
  5  6  1  0
  5 40  1  6
  6  7  1  0
  6 41  1  0
  6 42  1  0
  7  8  1  0
  7 43  1  0
  7 44  1  0
  8 18  1  0
  8  9  1  0
  8 45  1  6
  9 10  1  0
  9 20  1  0
  9 46  1  1
 10 11  1  0
 10 47  1  0
 10 48  1  0
 11 12  2  0
 11 49  1  0
 12 18  1  0
 12 13  1  0
 13 14  1  0
 13 50  1  0
 13 51  1  0
 14 15  2  0
 14 16  1  0
 16 17  1  0
 16 52  1  0
 16 53  1  0
 17 18  1  0
 17 54  1  0
 17 55  1  0
 18 19  1  1
 19 56  1  0
 19 57  1  0
 19 58  1  0
 20 21  1  0
 20 59  1  1
 21 22  1  0
 21 60  1  6
 22 23  1  0
 22 61  1  0
 22 62  1  0
 23 24  2  3
 23 32  1  0
 24 25  1  0
 24 72  1  0
 25 26  1  0
 25 63  1  0
 25 64  1  0
 26 27  1  0
 26 65  1  0
 26 66  1  0
 27 31  1  0
 27 28  1  0
 28 29  2  0
 28 67  1  0
 29 30  1  0
 29 68  1  0
 30 31  2  0
 31 69  1  0
 32 70  1  0
 32 71  1  0
M  CHG  1  24   1
M  END
>  <i_m_ct_stereo_status>  (170) 
1

>  <s_m_source_file>  (170) 
/var/tmp/pbs.5076255.sched01/tmpio9qf6gp/4214r_5_m5.sdf

>  <i_m_source_file_index>  (170) 
26

>  <i_lp_mmshare_version>  (170) 
48012

>  <i_f3d_flags>  (170) 
0

>  <s_epik_input>  (170) 
W2NIXTFuW2NIXVtjSF1uMVtDSDJdW0NIMl0vTj1DKFtDSDJdMilcW0NIMl1bQ0BIXShbQ0BdMjNbQ0gzXSlbQ0BASF00W0NAQEhdKFtDSDJdW0NIMl0zKVtDSDJdW0NIMl1bQ0BASF01W0NAQEhdNFtDSDJdW0NIXT1DNltDQEBdNShbQ0gzXSlbQ0gyXVtDSDJdQyg9TylbQ0gyXTY=

>  <s_epik_cmdline>  (170) 
J2VwaWtfcHl0aG9uJywgJy1waHQnLCAnMi4wJywgJy1waCcsICc3LjAnLCAnLXRuJywgJzgnLCAnLW1hJywgJzIwMCcsICctaW1hZScsICc8aW5maWxlLm1hZT4nLCAnLW9tYWUnLCAnPG91dGZpbGUubWFlPic=

>  <r_lp_tautomer_probability>  (170) 
0.99995

>  <r_epik_Ionization_Penalty>  (170) 
0.472743

>  <r_epik_Ionization_Penalty_Charging>  (170) 
0.472637

>  <r_epik_Ionization_Penalty_Neutral>  (170) 
0.000106412

>  <r_epik_State_Penalty>  (170) 
0.887724

>  <r_epik_Charging_Adjusted_Penalty>  (170) 
1.36036

>  <i_epik_Tot_Q>  (170) 
1

>  <i_epik_Tot_abs_Q>  (170) 
1

>  <s_epik_Chemistry_Notes>  (170) 
This compound has an imine and may undergo hydrolysis.

>  <s_lp_Force_Field>  (170) 
OPLS3e

>  <r_lp_Energy>  (170) 
58.2808

>  <b_lp_Chiralities_Consistent>  (170) 
1

>  <s_lp_Variant>  (170) 
46:0-4

>  <s_i_glide_gridfile>  (170) 
pfpi4k_grid

>  <i_i_glide_lignum>  (170) 
26

>  <i_i_glide_rotatable_bonds>  (170) 
3

>  <r_i_docking_score>  (170) 
-3.39205

>  <r_i_glide_ligand_efficiency>  (170) 
-0.106002

>  <r_i_glide_ligand_efficiency_sa>  (170) 
-0.336534

>  <r_i_glide_ligand_efficiency_ln>  (170) 
-0.759572

>  <r_i_glide_gscore>  (170) 
-3.39205

>  <r_i_glide_lipo>  (170) 
-0.32862

>  <r_i_glide_hbond>  (170) 
-0.16

>  <r_i_glide_metal>  (170) 
-0

>  <r_i_glide_rewards>  (170) 
-0.609616

>  <r_i_glide_evdw>  (170) 
-30.5228

>  <r_i_glide_ecoul>  (170) 
-5.91099

>  <r_i_glide_erotb>  (170) 
0.210868

>  <r_i_glide_esite>  (170) 
-0.091895

>  <r_i_glide_emodel>  (170) 
-40.7959

>  <r_i_glide_energy>  (170) 
-36.4337

>  <r_i_glide_einternal>  (170) 
6.6751

>  <r_i_glide_intrahb_reward>  (170) 
-0

>  <i_i_glide_confnum>  (170) 
6

>  <i_i_glide_posenum>  (170) 
20

>  <r_i_glide_eff_state_penalty>  (170) 
0

>  <ligand_id>  (170) 
46

>  <original_smiles>  (170) 
CC12CCC3CCC4C(CC=C5CC(=O)CCC54C)C3C1CC(=NCCn1ccnc1)C2

>  <smiles>  (170) 
[H]C1=C2C([H])([H])C(=O)C([H])([H])C([H])([H])C2(C([H])([H])[H])C2([H])C([H])([H])C([H])([H])C3([H])C([H])([H])C([H])([H])C4(C([H])([H])[H])C([H])([H])C(=[N+]([H])C([H])([H])C([H])([H])n5c([H])nc([H])c5[H])C([H])([H])C4([H])C3([H])C2([H])C1([H])[H]

$$$$
46:3:2
     RDKit          3D

 72 77  0  0  1  0  0  0  0  0999 V2000
    5.5945   -0.7111    3.0612 C   0  0  0  0  0  0  0  0  0  0  0  0
    4.2522   -0.7468    2.2975 C   0  0  1  0  0  0  0  0  0  0  0  0
    4.4955   -0.8439    0.7657 C   0  0  0  0  0  0  0  0  0  0  0  0
    5.0079   -2.2220    0.3256 C   0  0  0  0  0  0  0  0  0  0  0  0
    4.0846   -3.3811    0.7656 C   0  0  1  0  0  0  0  0  0  0  0  0
    4.7126   -4.7198    0.3059 C   0  0  0  0  0  0  0  0  0  0  0  0
    4.4766   -5.9134    1.2430 C   0  0  0  0  0  0  0  0  0  0  0  0
    3.1188   -5.8354    1.9560 C   0  0  2  0  0  0  0  0  0  0  0  0
    3.0653   -4.5854    2.8716 C   0  0  2  0  0  0  0  0  0  0  0  0
    1.6140   -4.3833    3.3330 C   0  0  0  0  0  0  0  0  0  0  0  0
    0.9401   -5.6677    3.7759 C   0  0  0  0  0  0  0  0  0  0  0  0
    1.4159   -6.9016    3.5312 C   0  0  0  0  0  0  0  0  0  0  0  0
    0.6833   -8.1269    4.0910 C   0  0  0  0  0  0  0  0  0  0  0  0
    0.5202   -9.2038    3.0264 C   0  0  0  0  0  0  0  0  0  0  0  0
   -0.5546   -9.7803    2.8499 O   0  0  0  0  0  0  0  0  0  0  0  0
    1.7537   -9.5474    2.2140 C   0  0  0  0  0  0  0  0  0  0  0  0
    2.3871   -8.2644    1.6460 C   0  0  0  0  0  0  0  0  0  0  0  0
    2.6800   -7.1541    2.6969 C   0  0  1  0  0  0  0  0  0  0  0  0
    3.7900   -7.6511    3.6579 C   0  0  0  0  0  0  0  0  0  0  0  0
    3.8086   -3.3266    2.2899 C   0  0  2  0  0  0  0  0  0  0  0  0
    3.3321   -1.9105    2.7678 C   0  0  2  0  0  0  0  0  0  0  0  0
    1.9112   -1.4286    2.3680 C   0  0  0  0  0  0  0  0  0  0  0  0
    2.0230    0.0535    2.4735 C   0  0  0  0  0  0  0  0  0  0  0  0
    1.0064    0.8171    2.4179 N   0  0  0  0  0  0  0  0  0  0  0  0
    0.9638    2.2893    2.5650 C   0  0  0  0  0  0  0  0  0  0  0  0
   -0.4543    2.8045    2.8888 C   0  0  0  0  0  0  0  0  0  0  0  0
   -0.9221    2.3331    4.1854 N   0  0  0  0  0  0  0  0  0  0  0  0
   -0.8065    3.0125    5.4021 C   0  0  0  0  0  0  0  0  0  0  0  0
   -1.3356    2.2009    6.3660 C   0  0  0  0  0  0  0  0  0  0  0  0
   -1.7953    0.9938    5.7643 N   0  0  0  0  0  0  0  0  0  0  0  0
   -1.5129    1.1980    4.4686 C   0  0  0  0  0  0  0  0  0  0  0  0
    3.4280    0.5293    2.6052 C   0  0  0  0  0  0  0  0  0  0  0  0
    6.2016    0.1450    2.7714 H   0  0  0  0  0  0  0  0  0  0  0  0
    6.1946   -1.5999    2.8688 H   0  0  0  0  0  0  0  0  0  0  0  0
    5.4350   -0.6494    4.1390 H   0  0  0  0  0  0  0  0  0  0  0  0
    3.5737   -0.6467    0.2156 H   0  0  0  0  0  0  0  0  0  0  0  0
    5.1978   -0.0699    0.4459 H   0  0  0  0  0  0  0  0  0  0  0  0
    5.0948   -2.2284   -0.7605 H   0  0  0  0  0  0  0  0  0  0  0  0
    6.0170   -2.3708    0.7058 H   0  0  0  0  0  0  0  0  0  0  0  0
    3.1325   -3.2695    0.2553 H   0  0  0  0  0  0  0  0  0  0  0  0
    4.2813   -4.9642   -0.6706 H   0  0  0  0  0  0  0  0  0  0  0  0
    5.7818   -4.6211    0.1215 H   0  0  0  0  0  0  0  0  0  0  0  0
    4.5845   -6.8366    0.6746 H   0  0  0  0  0  0  0  0  0  0  0  0
    5.2695   -5.9176    1.9986 H   0  0  0  0  0  0  0  0  0  0  0  0
    2.3776   -5.6701    1.1682 H   0  0  0  0  0  0  0  0  0  0  0  0
    3.6166   -4.8291    3.7817 H   0  0  0  0  0  0  0  0  0  0  0  0
    1.5907   -3.7029    4.1860 H   0  0  0  0  0  0  0  0  0  0  0  0
    1.0174   -3.9624    2.5306 H   0  0  0  0  0  0  0  0  0  0  0  0
    0.0304   -5.5408    4.3479 H   0  0  0  0  0  0  0  0  0  0  0  0
    1.2540   -8.5448    4.9152 H   0  0  0  0  0  0  0  0  0  0  0  0
   -0.2954   -7.8495    4.4714 H   0  0  0  0  0  0  0  0  0  0  0  0
    2.4613  -10.0852    2.8443 H   0  0  0  0  0  0  0  0  0  0  0  0
    1.4848  -10.2240    1.4060 H   0  0  0  0  0  0  0  0  0  0  0  0
    3.2886   -8.5475    1.1036 H   0  0  0  0  0  0  0  0  0  0  0  0
    1.6908   -7.8694    0.9109 H   0  0  0  0  0  0  0  0  0  0  0  0
    4.7041   -7.9082    3.1221 H   0  0  0  0  0  0  0  0  0  0  0  0
    3.4810   -8.5454    4.2060 H   0  0  0  0  0  0  0  0  0  0  0  0
    4.0357   -6.8982    4.4082 H   0  0  0  0  0  0  0  0  0  0  0  0
    4.8059   -3.4204    2.7192 H   0  0  0  0  0  0  0  0  0  0  0  0
    3.3602   -1.9144    3.8585 H   0  0  0  0  0  0  0  0  0  0  0  0
    1.6691   -1.6999    1.3427 H   0  0  0  0  0  0  0  0  0  0  0  0
    1.1220   -1.7776    3.0232 H   0  0  0  0  0  0  0  0  0  0  0  0
    1.6727    2.5776    3.3519 H   0  0  0  0  0  0  0  0  0  0  0  0
    1.3340    2.7012    1.6234 H   0  0  0  0  0  0  0  0  0  0  0  0
   -0.4636    3.8976    2.8896 H   0  0  0  0  0  0  0  0  0  0  0  0
   -1.1703    2.4971    2.1203 H   0  0  0  0  0  0  0  0  0  0  0  0
   -0.3571    3.9958    5.4929 H   0  0  0  0  0  0  0  0  0  0  0  0
   -1.4232    2.3343    7.4233 H   0  0  0  0  0  0  0  0  0  0  0  0
   -1.7393    0.4502    3.7253 H   0  0  0  0  0  0  0  0  0  0  0  0
    3.5915    0.8754    3.6259 H   0  0  0  0  0  0  0  0  0  0  0  0
    3.6242    1.3390    1.9101 H   0  0  0  0  0  0  0  0  0  0  0  0
    0.0938    0.3817    2.2502 H   0  0  0  0  0  0  0  0  0  0  0  0
  2  1  1  1
  1 33  1  0
  1 34  1  0
  1 35  1  0
  2 21  1  0
  2 32  1  0
  2  3  1  0
  3  4  1  0
  3 36  1  0
  3 37  1  0
  4  5  1  0
  4 38  1  0
  4 39  1  0
  5 20  1  0
  5  6  1  0
  5 40  1  6
  6  7  1  0
  6 41  1  0
  6 42  1  0
  7  8  1  0
  7 43  1  0
  7 44  1  0
  8 18  1  0
  8  9  1  0
  8 45  1  6
  9 10  1  0
  9 20  1  0
  9 46  1  1
 10 11  1  0
 10 47  1  0
 10 48  1  0
 11 12  2  0
 11 49  1  0
 12 18  1  0
 12 13  1  0
 13 14  1  0
 13 50  1  0
 13 51  1  0
 14 15  2  0
 14 16  1  0
 16 17  1  0
 16 52  1  0
 16 53  1  0
 17 18  1  0
 17 54  1  0
 17 55  1  0
 18 19  1  1
 19 56  1  0
 19 57  1  0
 19 58  1  0
 20 21  1  0
 20 59  1  1
 21 22  1  0
 21 60  1  1
 22 23  1  0
 22 61  1  0
 22 62  1  0
 23 24  2  3
 23 32  1  0
 24 25  1  0
 24 72  1  0
 25 26  1  0
 25 63  1  0
 25 64  1  0
 26 27  1  0
 26 65  1  0
 26 66  1  0
 27 31  1  0
 27 28  1  0
 28 29  2  0
 28 67  1  0
 29 30  1  0
 29 68  1  0
 30 31  2  0
 31 69  1  0
 32 70  1  0
 32 71  1  0
M  CHG  1  24   1
M  END
>  <i_m_ct_stereo_status>  (171) 
1

>  <s_m_source_file>  (171) 
/var/tmp/pbs.5076255.sched01/tmpio9qf6gp/4214r_5_m5.sdf

>  <i_m_source_file_index>  (171) 
26

>  <i_lp_mmshare_version>  (171) 
48012

>  <i_f3d_flags>  (171) 
0

>  <s_epik_input>  (171) 
W2NIXTFuW2NIXVtjSF1uMVtDSDJdW0NIMl0vTj1DKFtDSDJdMilcW0NIMl1bQ0BIXShbQ0BdMjNbQ0gzXSlbQ0BASF00W0NAQEhdKFtDSDJdW0NIMl0zKVtDSDJdW0NIMl1bQ0BASF01W0NAQEhdNFtDSDJdW0NIXT1DNltDQEBdNShbQ0gzXSlbQ0gyXVtDSDJdQyg9TylbQ0gyXTY=

>  <s_epik_cmdline>  (171) 
J2VwaWtfcHl0aG9uJywgJy1waHQnLCAnMi4wJywgJy1waCcsICc3LjAnLCAnLXRuJywgJzgnLCAnLW1hJywgJzIwMCcsICctaW1hZScsICc8aW5maWxlLm1hZT4nLCAnLW9tYWUnLCAnPG91dGZpbGUubWFlPic=

>  <r_lp_tautomer_probability>  (171) 
0.99995

>  <r_epik_Ionization_Penalty>  (171) 
0.472743

>  <r_epik_Ionization_Penalty_Charging>  (171) 
0.472637

>  <r_epik_Ionization_Penalty_Neutral>  (171) 
0.000106412

>  <r_epik_State_Penalty>  (171) 
0.887724

>  <r_epik_Charging_Adjusted_Penalty>  (171) 
1.36036

>  <i_epik_Tot_Q>  (171) 
1

>  <i_epik_Tot_abs_Q>  (171) 
1

>  <s_epik_Chemistry_Notes>  (171) 
This compound has an imine and may undergo hydrolysis.

>  <s_lp_Force_Field>  (171) 
OPLS3e

>  <r_lp_Energy>  (171) 
58.2808

>  <b_lp_Chiralities_Consistent>  (171) 
1

>  <s_lp_Variant>  (171) 
46:0-4

>  <s_i_glide_gridfile>  (171) 
pfpi4k_grid

>  <i_i_glide_lignum>  (171) 
26

>  <i_i_glide_rotatable_bonds>  (171) 
3

>  <r_i_docking_score>  (171) 
-3.31035

>  <r_i_glide_ligand_efficiency>  (171) 
-0.103448

>  <r_i_glide_ligand_efficiency_sa>  (171) 
-0.328428

>  <r_i_glide_ligand_efficiency_ln>  (171) 
-0.741277

>  <r_i_glide_gscore>  (171) 
-3.31035

>  <r_i_glide_lipo>  (171) 
-0.505946

>  <r_i_glide_hbond>  (171) 
0

>  <r_i_glide_metal>  (171) 
-0

>  <r_i_glide_rewards>  (171) 
-0.445659

>  <r_i_glide_evdw>  (171) 
-27.5139

>  <r_i_glide_ecoul>  (171) 
-7.06328

>  <r_i_glide_erotb>  (171) 
0.210868

>  <r_i_glide_esite>  (171) 
-0.134422

>  <r_i_glide_emodel>  (171) 
-41.4065

>  <r_i_glide_energy>  (171) 
-34.5772

>  <r_i_glide_einternal>  (171) 
2.08605

>  <r_i_glide_intrahb_reward>  (171) 
-0

>  <i_i_glide_confnum>  (171) 
4

>  <i_i_glide_posenum>  (171) 
23

>  <r_i_glide_eff_state_penalty>  (171) 
0

>  <ligand_id>  (171) 
46

>  <original_smiles>  (171) 
CC12CCC3CCC4C(CC=C5CC(=O)CCC54C)C3C1CC(=NCCn1ccnc1)C2

>  <smiles>  (171) 
[H]C1=C2C([H])([H])C(=O)C([H])([H])C([H])([H])C2(C([H])([H])[H])C2([H])C([H])([H])C([H])([H])C3([H])C([H])([H])C([H])([H])C4(C([H])([H])[H])C([H])([H])C(=[N+]([H])C([H])([H])C([H])([H])n5c([H])nc([H])c5[H])C([H])([H])C4([H])C3([H])C2([H])C1([H])[H]

$$$$
46:4:0
     RDKit          3D

 72 77  0  0  1  0  0  0  0  0999 V2000
    3.1707   -3.4502    7.0261 C   0  0  0  0  0  0  0  0  0  0  0  0
    2.0709   -3.9280    6.0601 C   0  0  1  0  0  0  0  0  0  0  0  0
    0.9266   -2.8887    5.9285 C   0  0  0  0  0  0  0  0  0  0  0  0
    1.3223   -1.6636    5.1002 C   0  0  0  0  0  0  0  0  0  0  0  0
    1.8401   -2.0285    3.6900 C   0  0  1  0  0  0  0  0  0  0  0  0
    2.2174   -0.7303    2.9376 C   0  0  0  0  0  0  0  0  0  0  0  0
    3.4158   -0.8455    1.9855 C   0  0  0  0  0  0  0  0  0  0  0  0
    3.4961   -2.2261    1.3177 C   0  0  2  0  0  0  0  0  0  0  0  0
    3.7328   -3.3203    2.3933 C   0  0  2  0  0  0  0  0  0  0  0  0
    3.5342   -4.7013    1.7339 C   0  0  0  0  0  0  0  0  0  0  0  0
    4.1865   -4.8194    0.3692 C   0  0  0  0  0  0  0  0  0  0  0  0
    4.6454   -3.7769   -0.3522 C   0  0  0  0  0  0  0  0  0  0  0  0
    5.3435   -4.0229   -1.6841 C   0  0  0  0  0  0  0  0  0  0  0  0
    4.8355   -3.0771   -2.7655 C   0  0  0  0  0  0  0  0  0  0  0  0
    4.6013   -3.4618   -3.9129 O   0  0  0  0  0  0  0  0  0  0  0  0
    4.7309   -1.6104   -2.3897 C   0  0  0  0  0  0  0  0  0  0  0  0
    3.9653   -1.4572   -1.0689 C   0  0  0  0  0  0  0  0  0  0  0  0
    4.5052   -2.3191    0.1126 C   0  0  1  0  0  0  0  0  0  0  0  0
    5.9097   -1.8079    0.5151 C   0  0  0  0  0  0  0  0  0  0  0  0
    3.0068   -3.0378    3.7709 C   0  0  2  0  0  0  0  0  0  0  0  0
    2.6332   -4.2593    4.6624 C   0  0  2  0  0  0  0  0  0  0  0  0
    1.6132   -5.2574    4.0918 C   0  0  0  0  0  0  0  0  0  0  0  0
    0.8998   -5.8685    5.2834 C   0  0  0  0  0  0  0  0  0  0  0  0
   -0.0483   -6.7232    5.2807 N   0  0  0  0  0  0  0  0  0  0  0  0
   -0.6076   -7.2484    4.0499 C   0  0  0  0  0  0  0  0  0  0  0  0
    0.4194   -8.1230    3.2620 C   0  0  0  0  0  0  0  0  0  0  0  0
    0.6302   -9.4471    3.8622 N   0  0  0  0  0  0  0  0  0  0  0  0
    0.6386  -10.6152    3.1575 C   0  0  0  0  0  0  0  0  0  0  0  0
    0.9514  -11.5999    4.0734 C   0  0  0  0  0  0  0  0  0  0  0  0
    1.1501  -10.9710    5.2757 N   0  0  0  0  0  0  0  0  0  0  0  0
    0.9781   -9.6684    5.1294 C   0  0  0  0  0  0  0  0  0  0  0  0
    1.4892   -5.2800    6.5304 C   0  0  0  0  0  0  0  0  0  0  0  0
    2.7682   -3.2895    8.0292 H   0  0  0  0  0  0  0  0  0  0  0  0
    3.6201   -2.5156    6.6895 H   0  0  0  0  0  0  0  0  0  0  0  0
    3.9743   -4.1856    7.1044 H   0  0  0  0  0  0  0  0  0  0  0  0
    0.0542   -3.3302    5.4437 H   0  0  0  0  0  0  0  0  0  0  0  0
    0.5862   -2.5867    6.9190 H   0  0  0  0  0  0  0  0  0  0  0  0
    0.4531   -1.0129    5.0074 H   0  0  0  0  0  0  0  0  0  0  0  0
    2.0713   -1.0881    5.6474 H   0  0  0  0  0  0  0  0  0  0  0  0
    1.0246   -2.5050    3.1403 H   0  0  0  0  0  0  0  0  0  0  0  0
    1.3495   -0.4163    2.3655 H   0  0  0  0  0  0  0  0  0  0  0  0
    2.4108    0.0892    3.6366 H   0  0  0  0  0  0  0  0  0  0  0  0
    3.3533   -0.0418    1.2475 H   0  0  0  0  0  0  0  0  0  0  0  0
    4.3226   -0.6799    2.5611 H   0  0  0  0  0  0  0  0  0  0  0  0
    2.5048   -2.4173    0.9064 H   0  0  0  0  0  0  0  0  0  0  0  0
    4.7916   -3.2939    2.6475 H   0  0  0  0  0  0  0  0  0  0  0  0
    3.9870   -5.4727    2.3563 H   0  0  0  0  0  0  0  0  0  0  0  0
    2.4799   -4.9333    1.5952 H   0  0  0  0  0  0  0  0  0  0  0  0
    4.2895   -5.8228   -0.0182 H   0  0  0  0  0  0  0  0  0  0  0  0
    6.4145   -3.8626   -1.5630 H   0  0  0  0  0  0  0  0  0  0  0  0
    5.1824   -5.0514   -2.0075 H   0  0  0  0  0  0  0  0  0  0  0  0
    5.7370   -1.2051   -2.3050 H   0  0  0  0  0  0  0  0  0  0  0  0
    4.2420   -1.0576   -3.1937 H   0  0  0  0  0  0  0  0  0  0  0  0
    3.9667   -0.4014   -0.8070 H   0  0  0  0  0  0  0  0  0  0  0  0
    2.9282   -1.7227   -1.2722 H   0  0  0  0  0  0  0  0  0  0  0  0
    5.8962   -0.7552    0.8001 H   0  0  0  0  0  0  0  0  0  0  0  0
    6.6258   -1.9092   -0.3011 H   0  0  0  0  0  0  0  0  0  0  0  0
    6.3180   -2.3759    1.3505 H   0  0  0  0  0  0  0  0  0  0  0  0
    3.7695   -2.5181    4.3513 H   0  0  0  0  0  0  0  0  0  0  0  0
    3.5461   -4.8312    4.8185 H   0  0  0  0  0  0  0  0  0  0  0  0
    0.8827   -4.7919    3.4120 H   0  0  0  0  0  0  0  0  0  0  0  0
    2.2031   -5.9918    3.5905 H   0  0  0  0  0  0  0  0  0  0  0  0
   -1.4843   -7.8393    4.2856 H   0  0  0  0  0  0  0  0  0  0  0  0
   -0.9792   -6.4368    3.4202 H   0  0  0  0  0  0  0  0  0  0  0  0
    0.0301   -8.2818    2.2427 H   0  0  0  0  0  0  0  0  0  0  0  0
    1.3995   -7.7195    3.1543 H   0  0  0  0  0  0  0  0  0  0  0  0
    0.4355  -10.6545    2.0982 H   0  0  0  0  0  0  0  0  0  0  0  0
    1.0200  -12.6550    3.9315 H   0  0  0  0  0  0  0  0  0  0  0  0
    1.1084   -8.9302    5.9122 H   0  0  0  0  0  0  0  0  0  0  0  0
    2.2750   -5.9533    6.8703 H   0  0  0  0  0  0  0  0  0  0  0  0
    0.7563   -5.1862    7.3339 H   0  0  0  0  0  0  0  0  0  0  0  0
    1.3492  -11.4551    6.1773 H   0  0  0  0  0  0  0  0  0  0  0  0
  2  1  1  1
  1 33  1  0
  1 34  1  0
  1 35  1  0
  2 21  1  0
  2 32  1  0
  2  3  1  0
  3  4  1  0
  3 36  1  0
  3 37  1  0
  4  5  1  0
  4 38  1  0
  4 39  1  0
  5 20  1  0
  5  6  1  0
  5 40  1  6
  6  7  1  0
  6 41  1  0
  6 42  1  0
  7  8  1  0
  7 43  1  0
  7 44  1  0
  8 18  1  0
  8  9  1  0
  8 45  1  6
  9 10  1  0
  9 20  1  0
  9 46  1  1
 10 11  1  0
 10 47  1  0
 10 48  1  0
 11 12  2  0
 11 49  1  0
 12 18  1  0
 12 13  1  0
 13 14  1  0
 13 50  1  0
 13 51  1  0
 14 15  2  0
 14 16  1  0
 16 17  1  0
 16 52  1  0
 16 53  1  0
 17 18  1  0
 17 54  1  0
 17 55  1  0
 18 19  1  1
 19 56  1  0
 19 57  1  0
 19 58  1  0
 20 21  1  0
 20 59  1  1
 21 22  1  0
 21 60  1  1
 22 23  1  0
 22 61  1  0
 22 62  1  0
 23 24  2  3
 23 32  1  0
 24 25  1  0
 25 26  1  0
 25 63  1  0
 25 64  1  0
 26 27  1  0
 26 65  1  0
 26 66  1  0
 27 31  1  0
 27 28  1  0
 28 29  2  0
 28 67  1  0
 29 30  1  0
 29 68  1  0
 30 31  2  0
 30 72  1  0
 31 69  1  0
 32 70  1  0
 32 71  1  0
M  CHG  1  30   1
M  END
>  <i_m_ct_stereo_status>  (172) 
1

>  <s_m_source_file>  (172) 
/var/tmp/pbs.5076255.sched01/tmpio9qf6gp/4214r_5_m5.sdf

>  <i_m_source_file_index>  (172) 
27

>  <i_lp_mmshare_version>  (172) 
48012

>  <i_f3d_flags>  (172) 
0

>  <s_epik_input>  (172) 
W2NIXTFuW2NIXVtjSF1uMVtDSDJdW0NIMl0vTj1DKFtDSDJdMilcW0NIMl1bQ0BIXShbQ0BdMjNbQ0gzXSlbQ0BASF00W0NAQEhdKFtDSDJdW0NIMl0zKVtDSDJdW0NIMl1bQ0BASF01W0NAQEhdNFtDSDJdW0NIXT1DNltDQEBdNShbQ0gzXSlbQ0gyXVtDSDJdQyg9TylbQ0gyXTY=

>  <s_epik_cmdline>  (172) 
J2VwaWtfcHl0aG9uJywgJy1waHQnLCAnMi4wJywgJy1waCcsICc3LjAnLCAnLXRuJywgJzgnLCAnLW1hJywgJzIwMCcsICctaW1hZScsICc8aW5maWxlLm1hZT4nLCAnLW9tYWUnLCAnPG91dGZpbGUubWFlPic=

>  <r_epik_Ionization_Penalty>  (172) 
1.61654

>  <r_epik_Ionization_Penalty_Charging>  (172) 
0

>  <r_epik_Ionization_Penalty_Neutral>  (172) 
1.61654

>  <r_epik_State_Penalty>  (172) 
2.2236

>  <r_epik_Charging_Adjusted_Penalty>  (172) 
2.2236

>  <i_epik_Tot_Q>  (172) 
1

>  <i_epik_Tot_abs_Q>  (172) 
1

>  <s_epik_Chemistry_Notes>  (172) 
This compound has an imine and may undergo hydrolysis.

>  <s_lp_Force_Field>  (172) 
OPLS3e

>  <r_lp_Energy>  (172) 
59.1556

>  <b_lp_Chiralities_Consistent>  (172) 
1

>  <s_lp_Variant>  (172) 
46:0-5

>  <s_i_glide_gridfile>  (172) 
pfpi4k_grid

>  <i_i_glide_lignum>  (172) 
27

>  <i_i_glide_rotatable_bonds>  (172) 
3

>  <r_i_docking_score>  (172) 
-3.72079

>  <r_i_glide_ligand_efficiency>  (172) 
-0.116275

>  <r_i_glide_ligand_efficiency_sa>  (172) 
-0.369149

>  <r_i_glide_ligand_efficiency_ln>  (172) 
-0.833187

>  <r_i_glide_gscore>  (172) 
-3.72079

>  <r_i_glide_lipo>  (172) 
-0.304043

>  <r_i_glide_hbond>  (172) 
-0.2

>  <r_i_glide_metal>  (172) 
-0

>  <r_i_glide_rewards>  (172) 
-0.635011

>  <r_i_glide_evdw>  (172) 
-29.0544

>  <r_i_glide_ecoul>  (172) 
-7.77812

>  <r_i_glide_erotb>  (172) 
0.210868

>  <r_i_glide_esite>  (172) 
-0.173169

>  <r_i_glide_emodel>  (172) 
-45.5679

>  <r_i_glide_energy>  (172) 
-36.8325

>  <r_i_glide_einternal>  (172) 
3.23645

>  <r_i_glide_intrahb_reward>  (172) 
-0

>  <i_i_glide_confnum>  (172) 
2

>  <i_i_glide_posenum>  (172) 
29

>  <r_i_glide_eff_state_penalty>  (172) 
0

>  <ligand_id>  (172) 
46

>  <original_smiles>  (172) 
CC12CCC3CCC4C(CC=C5CC(=O)CCC54C)C3C1CC(=NCCn1ccnc1)C2

>  <smiles>  (172) 
[H]C1=C2C([H])([H])C(=O)C([H])([H])C([H])([H])C2(C([H])([H])[H])C2([H])C([H])([H])C([H])([H])C3([H])C([H])([H])C([H])([H])C4(C([H])([H])[H])C([H])([H])C(=NC([H])([H])C([H])([H])n5c([H])c([H])[n+]([H])c5[H])C([H])([H])C4([H])C3([H])C2([H])C1([H])[H]

$$$$
46:4:1
     RDKit          3D

 72 77  0  0  1  0  0  0  0  0999 V2000
    1.6846    4.4618    6.2260 C   0  0  0  0  0  0  0  0  0  0  0  0
    0.8764    3.9783    5.0036 C   0  0  1  0  0  0  0  0  0  0  0  0
    1.6709    4.2239    3.6950 C   0  0  0  0  0  0  0  0  0  0  0  0
    2.8074    3.2223    3.4931 C   0  0  0  0  0  0  0  0  0  0  0  0
    2.3306    1.7523    3.5547 C   0  0  1  0  0  0  0  0  0  0  0  0
    3.5465    0.8198    3.3647 C   0  0  0  0  0  0  0  0  0  0  0  0
    3.4965   -0.4918    4.1529 C   0  0  0  0  0  0  0  0  0  0  0  0
    2.0672   -1.0371    4.2916 C   0  0  2  0  0  0  0  0  0  0  0  0
    1.2089   -0.0496    5.1195 C   0  0  2  0  0  0  0  0  0  0  0  0
   -0.2718   -0.4687    5.0058 C   0  0  0  0  0  0  0  0  0  0  0  0
   -0.4793   -1.9585    5.1666 C   0  0  0  0  0  0  0  0  0  0  0  0
    0.5026   -2.8800    5.1112 C   0  0  0  0  0  0  0  0  0  0  0  0
    0.2002   -4.3559    5.3631 C   0  0  0  0  0  0  0  0  0  0  0  0
    0.8555   -5.2481    4.3142 C   0  0  0  0  0  0  0  0  0  0  0  0
    0.2356   -6.1496    3.7540 O   0  0  0  0  0  0  0  0  0  0  0  0
    2.3200   -4.9731    4.0152 C   0  0  0  0  0  0  0  0  0  0  0  0
    2.5342   -3.4779    3.7283 C   0  0  0  0  0  0  0  0  0  0  0  0
    1.9721   -2.5142    4.8208 C   0  0  1  0  0  0  0  0  0  0  0  0
    2.7733   -2.6966    6.1323 C   0  0  0  0  0  0  0  0  0  0  0  0
    1.5541    1.4701    4.8714 C   0  0  2  0  0  0  0  0  0  0  0  0
    0.4133    2.5023    5.1088 C   0  0  2  0  0  0  0  0  0  0  0  0
   -0.8284    2.4193    4.1894 C   0  0  0  0  0  0  0  0  0  0  0  0
   -1.3767    3.8099    4.1468 C   0  0  0  0  0  0  0  0  0  0  0  0
   -2.4292    4.2375    3.5588 N   0  0  0  0  0  0  0  0  0  0  0  0
   -3.1892    3.3887    2.6720 C   0  0  0  0  0  0  0  0  0  0  0  0
   -4.3771    4.1842    2.0662 C   0  0  0  0  0  0  0  0  0  0  0  0
   -4.1786    5.6146    1.6924 N   0  0  0  0  0  0  0  0  0  0  0  0
   -5.1590    6.4942    1.2917 C   0  0  0  0  0  0  0  0  0  0  0  0
   -4.5473    7.7086    1.0258 C   0  0  0  0  0  0  0  0  0  0  0  0
   -3.2172    7.5262    1.2721 N   0  0  0  0  0  0  0  0  0  0  0  0
   -2.9815    6.2607    1.6606 C   0  0  0  0  0  0  0  0  0  0  0  0
   -0.4702    4.7223    4.9331 C   0  0  0  0  0  0  0  0  0  0  0  0
    1.9205    5.5281    6.1563 H   0  0  0  0  0  0  0  0  0  0  0  0
    2.6268    3.9226    6.3187 H   0  0  0  0  0  0  0  0  0  0  0  0
    1.1252    4.3090    7.1493 H   0  0  0  0  0  0  0  0  0  0  0  0
    1.0099    4.1324    2.8408 H   0  0  0  0  0  0  0  0  0  0  0  0
    2.0593    5.2437    3.6481 H   0  0  0  0  0  0  0  0  0  0  0  0
    3.2623    3.4168    2.5233 H   0  0  0  0  0  0  0  0  0  0  0  0
    3.5862    3.4066    4.2338 H   0  0  0  0  0  0  0  0  0  0  0  0
    1.6457    1.5850    2.7188 H   0  0  0  0  0  0  0  0  0  0  0  0
    3.6209    0.5941    2.3094 H   0  0  0  0  0  0  0  0  0  0  0  0
    4.4699    1.3338    3.6382 H   0  0  0  0  0  0  0  0  0  0  0  0
    4.1579   -1.2175    3.6696 H   0  0  0  0  0  0  0  0  0  0  0  0
    3.9021   -0.3082    5.1472 H   0  0  0  0  0  0  0  0  0  0  0  0
    1.6410   -1.0327    3.2883 H   0  0  0  0  0  0  0  0  0  0  0  0
    1.4569   -0.1943    6.1711 H   0  0  0  0  0  0  0  0  0  0  0  0
   -0.8506    0.0197    5.7899 H   0  0  0  0  0  0  0  0  0  0  0  0
   -0.6955   -0.1954    4.0392 H   0  0  0  0  0  0  0  0  0  0  0  0
   -1.4974   -2.2687    5.3426 H   0  0  0  0  0  0  0  0  0  0  0  0
    0.5688   -4.6473    6.3461 H   0  0  0  0  0  0  0  0  0  0  0  0
   -0.8722   -4.5333    5.3651 H   0  0  0  0  0  0  0  0  0  0  0  0
    2.9085   -5.2932    4.8739 H   0  0  0  0  0  0  0  0  0  0  0  0
    2.6481   -5.5836    3.1730 H   0  0  0  0  0  0  0  0  0  0  0  0
    3.6018   -3.3196    3.5847 H   0  0  0  0  0  0  0  0  0  0  0  0
    2.0681   -3.2551    2.7660 H   0  0  0  0  0  0  0  0  0  0  0  0
    3.8349   -2.5094    5.9851 H   0  0  0  0  0  0  0  0  0  0  0  0
    2.6775   -3.7082    6.5244 H   0  0  0  0  0  0  0  0  0  0  0  0
    2.4160   -2.0279    6.9119 H   0  0  0  0  0  0  0  0  0  0  0  0
    2.2886    1.6975    5.6469 H   0  0  0  0  0  0  0  0  0  0  0  0
    0.0607    2.3637    6.1298 H   0  0  0  0  0  0  0  0  0  0  0  0
   -0.5907    2.0789    3.1789 H   0  0  0  0  0  0  0  0  0  0  0  0
   -1.5949    1.7803    4.6161 H   0  0  0  0  0  0  0  0  0  0  0  0
   -2.5400    3.0435    1.8800 H   0  0  0  0  0  0  0  0  0  0  0  0
   -3.5675    2.4657    3.1456 H   0  0  0  0  0  0  0  0  0  0  0  0
   -4.7331    3.6698    1.1781 H   0  0  0  0  0  0  0  0  0  0  0  0
   -5.1898    4.1605    2.7735 H   0  0  0  0  0  0  0  0  0  0  0  0
   -6.2009    6.1956    1.1970 H   0  0  0  0  0  0  0  0  0  0  0  0
   -4.9447    8.6434    0.6552 H   0  0  0  0  0  0  0  0  0  0  0  0
   -1.9969    5.8209    1.7966 H   0  0  0  0  0  0  0  0  0  0  0  0
   -0.9012    4.8599    5.9237 H   0  0  0  0  0  0  0  0  0  0  0  0
   -0.3855    5.6937    4.4621 H   0  0  0  0  0  0  0  0  0  0  0  0
   -2.4738    8.2128    1.1263 H   0  0  0  0  0  0  0  0  0  0  0  0
  2  1  1  1
  1 33  1  0
  1 34  1  0
  1 35  1  0
  2 21  1  0
  2 32  1  0
  2  3  1  0
  3  4  1  0
  3 36  1  0
  3 37  1  0
  4  5  1  0
  4 38  1  0
  4 39  1  0
  5 20  1  0
  5  6  1  0
  5 40  1  6
  6  7  1  0
  6 41  1  0
  6 42  1  0
  7  8  1  0
  7 43  1  0
  7 44  1  0
  8 18  1  0
  8  9  1  0
  8 45  1  6
  9 10  1  0
  9 20  1  0
  9 46  1  1
 10 11  1  0
 10 47  1  0
 10 48  1  0
 11 12  2  0
 11 49  1  0
 12 18  1  0
 12 13  1  0
 13 14  1  0
 13 50  1  0
 13 51  1  0
 14 15  2  0
 14 16  1  0
 16 17  1  0
 16 52  1  0
 16 53  1  0
 17 18  1  0
 17 54  1  0
 17 55  1  0
 18 19  1  1
 19 56  1  0
 19 57  1  0
 19 58  1  0
 20 21  1  0
 20 59  1  1
 21 22  1  0
 21 60  1  1
 22 23  1  0
 22 61  1  0
 22 62  1  0
 23 24  2  3
 23 32  1  0
 24 25  1  0
 25 26  1  0
 25 63  1  0
 25 64  1  0
 26 27  1  0
 26 65  1  0
 26 66  1  0
 27 31  1  0
 27 28  1  0
 28 29  2  0
 28 67  1  0
 29 30  1  0
 29 68  1  0
 30 31  2  0
 30 72  1  0
 31 69  1  0
 32 70  1  0
 32 71  1  0
M  CHG  1  30   1
M  END
>  <i_m_ct_stereo_status>  (173) 
1

>  <s_m_source_file>  (173) 
/var/tmp/pbs.5076255.sched01/tmpio9qf6gp/4214r_5_m5.sdf

>  <i_m_source_file_index>  (173) 
27

>  <i_lp_mmshare_version>  (173) 
48012

>  <i_f3d_flags>  (173) 
0

>  <s_epik_input>  (173) 
W2NIXTFuW2NIXVtjSF1uMVtDSDJdW0NIMl0vTj1DKFtDSDJdMilcW0NIMl1bQ0BIXShbQ0BdMjNbQ0gzXSlbQ0BASF00W0NAQEhdKFtDSDJdW0NIMl0zKVtDSDJdW0NIMl1bQ0BASF01W0NAQEhdNFtDSDJdW0NIXT1DNltDQEBdNShbQ0gzXSlbQ0gyXVtDSDJdQyg9TylbQ0gyXTY=

>  <s_epik_cmdline>  (173) 
J2VwaWtfcHl0aG9uJywgJy1waHQnLCAnMi4wJywgJy1waCcsICc3LjAnLCAnLXRuJywgJzgnLCAnLW1hJywgJzIwMCcsICctaW1hZScsICc8aW5maWxlLm1hZT4nLCAnLW9tYWUnLCAnPG91dGZpbGUubWFlPic=

>  <r_epik_Ionization_Penalty>  (173) 
1.61654

>  <r_epik_Ionization_Penalty_Charging>  (173) 
0

>  <r_epik_Ionization_Penalty_Neutral>  (173) 
1.61654

>  <r_epik_State_Penalty>  (173) 
2.2236

>  <r_epik_Charging_Adjusted_Penalty>  (173) 
2.2236

>  <i_epik_Tot_Q>  (173) 
1

>  <i_epik_Tot_abs_Q>  (173) 
1

>  <s_epik_Chemistry_Notes>  (173) 
This compound has an imine and may undergo hydrolysis.

>  <s_lp_Force_Field>  (173) 
OPLS3e

>  <r_lp_Energy>  (173) 
59.1556

>  <b_lp_Chiralities_Consistent>  (173) 
1

>  <s_lp_Variant>  (173) 
46:0-5

>  <s_i_glide_gridfile>  (173) 
pfpi4k_grid

>  <i_i_glide_lignum>  (173) 
27

>  <i_i_glide_rotatable_bonds>  (173) 
3

>  <r_i_docking_score>  (173) 
-3.02893

>  <r_i_glide_ligand_efficiency>  (173) 
-0.0946542

>  <r_i_glide_ligand_efficiency_sa>  (173) 
-0.300508

>  <r_i_glide_ligand_efficiency_ln>  (173) 
-0.678261

>  <r_i_glide_gscore>  (173) 
-3.02893

>  <r_i_glide_lipo>  (173) 
-0.450276

>  <r_i_glide_hbond>  (173) 
-0.24203

>  <r_i_glide_metal>  (173) 
-0

>  <r_i_glide_rewards>  (173) 
-0.445659

>  <r_i_glide_evdw>  (173) 
-19.6644

>  <r_i_glide_ecoul>  (173) 
-5.93405

>  <r_i_glide_erotb>  (173) 
0.210868

>  <r_i_glide_esite>  (173) 
-0.228511

>  <r_i_glide_emodel>  (173) 
-31.0937

>  <r_i_glide_energy>  (173) 
-25.5984

>  <r_i_glide_einternal>  (173) 
5.57448

>  <r_i_glide_intrahb_reward>  (173) 
-0

>  <i_i_glide_confnum>  (173) 
2

>  <i_i_glide_posenum>  (173) 
2

>  <r_i_glide_eff_state_penalty>  (173) 
0

>  <ligand_id>  (173) 
46

>  <original_smiles>  (173) 
CC12CCC3CCC4C(CC=C5CC(=O)CCC54C)C3C1CC(=NCCn1ccnc1)C2

>  <smiles>  (173) 
[H]C1=C2C([H])([H])C(=O)C([H])([H])C([H])([H])C2(C([H])([H])[H])C2([H])C([H])([H])C([H])([H])C3([H])C([H])([H])C([H])([H])C4(C([H])([H])[H])C([H])([H])C(=NC([H])([H])C([H])([H])n5c([H])c([H])[n+]([H])c5[H])C([H])([H])C4([H])C3([H])C2([H])C1([H])[H]

$$$$
46:4:2
     RDKit          3D

 72 77  0  0  1  0  0  0  0  0999 V2000
    2.9214   -6.3458    9.8639 C   0  0  0  0  0  0  0  0  0  0  0  0
    1.8150   -6.3821    8.7942 C   0  0  1  0  0  0  0  0  0  0  0  0
    0.4814   -5.8001    9.3357 C   0  0  0  0  0  0  0  0  0  0  0  0
    0.5027   -4.2740    9.4561 C   0  0  0  0  0  0  0  0  0  0  0  0
    0.8688   -3.5662    8.1299 C   0  0  1  0  0  0  0  0  0  0  0  0
    0.8773   -2.0391    8.3643 C   0  0  0  0  0  0  0  0  0  0  0  0
    1.9238   -1.2622    7.5545 C   0  0  0  0  0  0  0  0  0  0  0  0
    2.1729   -1.8847    6.1724 C   0  0  2  0  0  0  0  0  0  0  0  0
    2.7731   -3.3056    6.3309 C   0  0  2  0  0  0  0  0  0  0  0  0
    2.7463   -3.9963    4.9508 C   0  0  0  0  0  0  0  0  0  0  0  0
    3.2063   -3.1011    3.8180 C   0  0  0  0  0  0  0  0  0  0  0  0
    3.3539   -1.7636    3.9105 C   0  0  0  0  0  0  0  0  0  0  0  0
    3.8937   -0.9723    2.7230 C   0  0  0  0  0  0  0  0  0  0  0  0
    3.0551    0.2692    2.4630 C   0  0  0  0  0  0  0  0  0  0  0  0
    2.7213    0.5909    1.3281 O   0  0  0  0  0  0  0  0  0  0  0  0
    2.7190    1.1310    3.6673 C   0  0  0  0  0  0  0  0  0  0  0  0
    2.1265    0.2634    4.7915 C   0  0  0  0  0  0  0  0  0  0  0  0
    2.9913   -0.9768    5.1811 C   0  0  1  0  0  0  0  0  0  0  0  0
    4.3149   -0.4922    5.8237 C   0  0  0  0  0  0  0  0  0  0  0  0
    2.2106   -4.1009    7.5704 C   0  0  2  0  0  0  0  0  0  0  0  0
    2.2267   -5.6565    7.4886 C   0  0  2  0  0  0  0  0  0  0  0  0
    1.3454   -6.3104    6.4172 C   0  0  0  0  0  0  0  0  0  0  0  0
    0.9485   -7.6489    6.9734 C   0  0  0  0  0  0  0  0  0  0  0  0
    0.1599   -8.4940    6.4554 N   0  0  0  0  0  0  0  0  0  0  0  0
   -0.4317   -8.2939    5.1392 C   0  0  0  0  0  0  0  0  0  0  0  0
    0.5790   -8.5251    3.9847 C   0  0  0  0  0  0  0  0  0  0  0  0
    1.2270   -9.8516    3.9340 N   0  0  0  0  0  0  0  0  0  0  0  0
    2.1033  -10.2480    2.9615 C   0  0  0  0  0  0  0  0  0  0  0  0
    2.4901  -11.5144    3.2866 C   0  0  0  0  0  0  0  0  0  0  0  0
    1.8622  -11.8293    4.4573 N   0  0  0  0  0  0  0  0  0  0  0  0
    1.0721  -10.8330    4.8462 C   0  0  0  0  0  0  0  0  0  0  0  0
    1.5733   -7.8228    8.3212 C   0  0  0  0  0  0  0  0  0  0  0  0
    2.6416   -6.9325   10.7433 H   0  0  0  0  0  0  0  0  0  0  0  0
    3.1296   -5.3267   10.1926 H   0  0  0  0  0  0  0  0  0  0  0  0
    3.8544   -6.7597    9.4755 H   0  0  0  0  0  0  0  0  0  0  0  0
   -0.3534   -6.0509    8.6799 H   0  0  0  0  0  0  0  0  0  0  0  0
    0.2378   -6.2488   10.3023 H   0  0  0  0  0  0  0  0  0  0  0  0
   -0.4797   -3.9404    9.7866 H   0  0  0  0  0  0  0  0  0  0  0  0
    1.2027   -3.9929   10.2418 H   0  0  0  0  0  0  0  0  0  0  0  0
    0.0940   -3.7890    7.3980 H   0  0  0  0  0  0  0  0  0  0  0  0
   -0.1126   -1.6641    8.0979 H   0  0  0  0  0  0  0  0  0  0  0  0
    1.0053   -1.8062    9.4204 H   0  0  0  0  0  0  0  0  0  0  0  0
    1.6069   -0.2251    7.4820 H   0  0  0  0  0  0  0  0  0  0  0  0
    2.8634   -1.2634    8.1160 H   0  0  0  0  0  0  0  0  0  0  0  0
    1.1895   -2.0196    5.7153 H   0  0  0  0  0  0  0  0  0  0  0  0
    3.8333   -3.1825    6.5529 H   0  0  0  0  0  0  0  0  0  0  0  0
    3.4218   -4.8567    4.9622 H   0  0  0  0  0  0  0  0  0  0  0  0
    1.7437   -4.3380    4.6880 H   0  0  0  0  0  0  0  0  0  0  0  0
    3.4510   -3.6083    2.8931 H   0  0  0  0  0  0  0  0  0  0  0  0
    4.9163   -0.6662    2.9218 H   0  0  0  0  0  0  0  0  0  0  0  0
    3.8995   -1.5885    1.8265 H   0  0  0  0  0  0  0  0  0  0  0  0
    3.6253    1.6341    4.0018 H   0  0  0  0  0  0  0  0  0  0  0  0
    2.0180    1.9130    3.3790 H   0  0  0  0  0  0  0  0  0  0  0  0
    1.9541    0.9060    5.6542 H   0  0  0  0  0  0  0  0  0  0  0  0
    1.1404   -0.0686    4.4671 H   0  0  0  0  0  0  0  0  0  0  0  0
    4.1375    0.1282    6.7019 H   0  0  0  0  0  0  0  0  0  0  0  0
    4.9103    0.1046    5.1299 H   0  0  0  0  0  0  0  0  0  0  0  0
    4.9452   -1.3297    6.1252 H   0  0  0  0  0  0  0  0  0  0  0  0
    2.9305   -3.8725    8.3586 H   0  0  0  0  0  0  0  0  0  0  0  0
    3.2490   -5.9589    7.2718 H   0  0  0  0  0  0  0  0  0  0  0  0
    0.4592   -5.7258    6.1775 H   0  0  0  0  0  0  0  0  0  0  0  0
    1.9581   -6.4484    5.5445 H   0  0  0  0  0  0  0  0  0  0  0  0
   -1.2399   -9.0280    5.0454 H   0  0  0  0  0  0  0  0  0  0  0  0
   -0.9300   -7.3267    5.0542 H   0  0  0  0  0  0  0  0  0  0  0  0
    0.0621   -8.3772    3.0311 H   0  0  0  0  0  0  0  0  0  0  0  0
    1.3933   -7.8045    3.9988 H   0  0  0  0  0  0  0  0  0  0  0  0
    2.3833   -9.6107    2.1308 H   0  0  0  0  0  0  0  0  0  0  0  0
    3.1555  -12.1934    2.7638 H   0  0  0  0  0  0  0  0  0  0  0  0
    0.4759  -10.8513    5.7362 H   0  0  0  0  0  0  0  0  0  0  0  0
    2.5084   -8.3640    8.1776 H   0  0  0  0  0  0  0  0  0  0  0  0
    0.9536   -8.4158    8.9960 H   0  0  0  0  0  0  0  0  0  0  0  0
    1.9519  -12.6916    4.9811 H   0  0  0  0  0  0  0  0  0  0  0  0
  2  1  1  1
  1 33  1  0
  1 34  1  0
  1 35  1  0
  2 21  1  0
  2 32  1  0
  2  3  1  0
  3  4  1  0
  3 36  1  0
  3 37  1  0
  4  5  1  0
  4 38  1  0
  4 39  1  0
  5 20  1  0
  5  6  1  0
  5 40  1  6
  6  7  1  0
  6 41  1  0
  6 42  1  0
  7  8  1  0
  7 43  1  0
  7 44  1  0
  8 18  1  0
  8  9  1  0
  8 45  1  6
  9 10  1  0
  9 20  1  0
  9 46  1  1
 10 11  1  0
 10 47  1  0
 10 48  1  0
 11 12  2  0
 11 49  1  0
 12 18  1  0
 12 13  1  0
 13 14  1  0
 13 50  1  0
 13 51  1  0
 14 15  2  0
 14 16  1  0
 16 17  1  0
 16 52  1  0
 16 53  1  0
 17 18  1  0
 17 54  1  0
 17 55  1  0
 18 19  1  1
 19 56  1  0
 19 57  1  0
 19 58  1  0
 20 21  1  0
 20 59  1  1
 21 22  1  0
 21 60  1  6
 22 23  1  0
 22 61  1  0
 22 62  1  0
 23 24  2  3
 23 32  1  0
 24 25  1  0
 25 26  1  0
 25 63  1  0
 25 64  1  0
 26 27  1  0
 26 65  1  0
 26 66  1  0
 27 31  1  0
 27 28  1  0
 28 29  2  0
 28 67  1  0
 29 30  1  0
 29 68  1  0
 30 31  2  0
 30 72  1  0
 31 69  1  0
 32 70  1  0
 32 71  1  0
M  CHG  1  30   1
M  END
>  <i_m_ct_stereo_status>  (174) 
1

>  <s_m_source_file>  (174) 
/var/tmp/pbs.5076255.sched01/tmpio9qf6gp/4214r_5_m5.sdf

>  <i_m_source_file_index>  (174) 
27

>  <i_lp_mmshare_version>  (174) 
48012

>  <i_f3d_flags>  (174) 
0

>  <s_epik_input>  (174) 
W2NIXTFuW2NIXVtjSF1uMVtDSDJdW0NIMl0vTj1DKFtDSDJdMilcW0NIMl1bQ0BIXShbQ0BdMjNbQ0gzXSlbQ0BASF00W0NAQEhdKFtDSDJdW0NIMl0zKVtDSDJdW0NIMl1bQ0BASF01W0NAQEhdNFtDSDJdW0NIXT1DNltDQEBdNShbQ0gzXSlbQ0gyXVtDSDJdQyg9TylbQ0gyXTY=

>  <s_epik_cmdline>  (174) 
J2VwaWtfcHl0aG9uJywgJy1waHQnLCAnMi4wJywgJy1waCcsICc3LjAnLCAnLXRuJywgJzgnLCAnLW1hJywgJzIwMCcsICctaW1hZScsICc8aW5maWxlLm1hZT4nLCAnLW9tYWUnLCAnPG91dGZpbGUubWFlPic=

>  <r_epik_Ionization_Penalty>  (174) 
1.61654

>  <r_epik_Ionization_Penalty_Charging>  (174) 
0

>  <r_epik_Ionization_Penalty_Neutral>  (174) 
1.61654

>  <r_epik_State_Penalty>  (174) 
2.2236

>  <r_epik_Charging_Adjusted_Penalty>  (174) 
2.2236

>  <i_epik_Tot_Q>  (174) 
1

>  <i_epik_Tot_abs_Q>  (174) 
1

>  <s_epik_Chemistry_Notes>  (174) 
This compound has an imine and may undergo hydrolysis.

>  <s_lp_Force_Field>  (174) 
OPLS3e

>  <r_lp_Energy>  (174) 
59.1556

>  <b_lp_Chiralities_Consistent>  (174) 
1

>  <s_lp_Variant>  (174) 
46:0-5

>  <s_i_glide_gridfile>  (174) 
pfpi4k_grid

>  <i_i_glide_lignum>  (174) 
27

>  <i_i_glide_rotatable_bonds>  (174) 
3

>  <r_i_docking_score>  (174) 
-1.92072

>  <r_i_glide_ligand_efficiency>  (174) 
-0.0600226

>  <r_i_glide_ligand_efficiency_sa>  (174) 
-0.19056

>  <r_i_glide_ligand_efficiency_ln>  (174) 
-0.430102

>  <r_i_glide_gscore>  (174) 
-1.92072

>  <r_i_glide_lipo>  (174) 
-0.0734992

>  <r_i_glide_hbond>  (174) 
0

>  <r_i_glide_metal>  (174) 
-0

>  <r_i_glide_rewards>  (174) 
-0.503434

>  <r_i_glide_evdw>  (174) 
-19.1077

>  <r_i_glide_ecoul>  (174) 
-3.34242

>  <r_i_glide_erotb>  (174) 
0.210868

>  <r_i_glide_esite>  (174) 
-0.0979089

>  <r_i_glide_emodel>  (174) 
-25.7619

>  <r_i_glide_energy>  (174) 
-22.4501

>  <r_i_glide_einternal>  (174) 
3.62672

>  <r_i_glide_intrahb_reward>  (174) 
-0

>  <i_i_glide_confnum>  (174) 
2

>  <i_i_glide_posenum>  (174) 
1

>  <r_i_glide_eff_state_penalty>  (174) 
0

>  <ligand_id>  (174) 
46

>  <original_smiles>  (174) 
CC12CCC3CCC4C(CC=C5CC(=O)CCC54C)C3C1CC(=NCCn1ccnc1)C2

>  <smiles>  (174) 
[H]C1=C2C([H])([H])C(=O)C([H])([H])C([H])([H])C2(C([H])([H])[H])C2([H])C([H])([H])C([H])([H])C3([H])C([H])([H])C([H])([H])C4(C([H])([H])[H])C([H])([H])C(=NC([H])([H])C([H])([H])n5c([H])c([H])[n+]([H])c5[H])C([H])([H])C4([H])C3([H])C2([H])C1([H])[H]

$$$$
46:5:0
     RDKit          3D

 72 77  0  0  1  0  0  0  0  0999 V2000
    4.9822   -3.8931    1.6637 C   0  0  0  0  0  0  0  0  0  0  0  0
    3.8547   -4.1767    2.6812 C   0  0  1  0  0  0  0  0  0  0  0  0
    4.4292   -4.3300    4.1161 C   0  0  0  0  0  0  0  0  0  0  0  0
    4.9067   -3.0037    4.7170 C   0  0  0  0  0  0  0  0  0  0  0  0
    3.8154   -1.9108    4.7206 C   0  0  1  0  0  0  0  0  0  0  0  0
    4.4163   -0.6038    5.2972 C   0  0  0  0  0  0  0  0  0  0  0  0
    3.8621    0.6958    4.6935 C   0  0  0  0  0  0  0  0  0  0  0  0
    2.3809    0.5658    4.3087 C   0  0  2  0  0  0  0  0  0  0  0  0
    2.2181   -0.4962    3.1910 C   0  0  2  0  0  0  0  0  0  0  0  0
    0.7238   -0.8119    3.0350 C   0  0  0  0  0  0  0  0  0  0  0  0
   -0.1521    0.4299    3.0294 C   0  0  0  0  0  0  0  0  0  0  0  0
    0.2486    1.6521    3.4201 C   0  0  0  0  0  0  0  0  0  0  0  0
   -0.7055    2.8341    3.3067 C   0  0  0  0  0  0  0  0  0  0  0  0
   -0.6950    3.6843    4.5657 C   0  0  0  0  0  0  0  0  0  0  0  0
   -1.7353    4.1188    5.0616 O   0  0  0  0  0  0  0  0  0  0  0  0
    0.6724    4.0404    5.1347 C   0  0  0  0  0  0  0  0  0  0  0  0
    1.5393    2.7777    5.2738 C   0  0  0  0  0  0  0  0  0  0  0  0
    1.6579    1.9246    3.9737 C   0  0  1  0  0  0  0  0  0  0  0  0
    2.4364    2.7280    2.9050 C   0  0  0  0  0  0  0  0  0  0  0  0
    3.1957   -1.7261    3.3137 C   0  0  2  0  0  0  0  0  0  0  0  0
    2.7518   -3.0879    2.6706 C   0  0  2  0  0  0  0  0  0  0  0  0
    1.5397   -3.8377    3.2678 C   0  0  0  0  0  0  0  0  0  0  0  0
    1.6850   -5.2787    2.8337 C   0  0  0  0  0  0  0  0  0  0  0  0
    0.7381   -6.1342    2.9077 N   0  0  0  0  0  0  0  0  0  0  0  0
    0.9619   -7.5107    2.4969 C   0  0  0  0  0  0  0  0  0  0  0  0
   -0.1655   -8.4297    3.0290 C   0  0  0  0  0  0  0  0  0  0  0  0
    0.3743   -9.6191    3.7013 N   0  0  0  0  0  0  0  0  0  0  0  0
    0.7084  -10.8111    3.1136 C   0  0  0  0  0  0  0  0  0  0  0  0
    1.1968  -11.6121    4.1101 C   0  0  0  0  0  0  0  0  0  0  0  0
    1.1150  -10.8993    5.2684 N   0  0  0  0  0  0  0  0  0  0  0  0
    0.6185   -9.6799    5.0159 C   0  0  0  0  0  0  0  0  0  0  0  0
    3.0876   -5.4632    2.2942 C   0  0  0  0  0  0  0  0  0  0  0  0
    5.7064   -4.7087    1.6399 H   0  0  0  0  0  0  0  0  0  0  0  0
    5.5303   -2.9810    1.8992 H   0  0  0  0  0  0  0  0  0  0  0  0
    4.5851   -3.7759    0.6555 H   0  0  0  0  0  0  0  0  0  0  0  0
    3.6768   -4.7430    4.7879 H   0  0  0  0  0  0  0  0  0  0  0  0
    5.2466   -5.0530    4.1197 H   0  0  0  0  0  0  0  0  0  0  0  0
    5.2440   -3.1818    5.7379 H   0  0  0  0  0  0  0  0  0  0  0  0
    5.7866   -2.6593    4.1701 H   0  0  0  0  0  0  0  0  0  0  0  0
    3.0132   -2.2311    5.3871 H   0  0  0  0  0  0  0  0  0  0  0  0
    4.2308   -0.5991    6.3679 H   0  0  0  0  0  0  0  0  0  0  0  0
    5.5052   -0.5876    5.1951 H   0  0  0  0  0  0  0  0  0  0  0  0
    4.0228    1.5103    5.4038 H   0  0  0  0  0  0  0  0  0  0  0  0
    4.4385    0.9397    3.8020 H   0  0  0  0  0  0  0  0  0  0  0  0
    1.8731    0.1605    5.1839 H   0  0  0  0  0  0  0  0  0  0  0  0
    2.4956   -0.0245    2.2477 H   0  0  0  0  0  0  0  0  0  0  0  0
    0.5936   -1.3163    2.0787 H   0  0  0  0  0  0  0  0  0  0  0  0
    0.3583   -1.4529    3.8368 H   0  0  0  0  0  0  0  0  0  0  0  0
   -1.1607    0.3025    2.6640 H   0  0  0  0  0  0  0  0  0  0  0  0
   -0.3836    3.4624    2.4901 H   0  0  0  0  0  0  0  0  0  0  0  0
   -1.7192    2.5025    3.0929 H   0  0  0  0  0  0  0  0  0  0  0  0
    1.1503    4.7657    4.4746 H   0  0  0  0  0  0  0  0  0  0  0  0
    0.5552    4.5354    6.0997 H   0  0  0  0  0  0  0  0  0  0  0  0
    2.5218    3.0822    5.6308 H   0  0  0  0  0  0  0  0  0  0  0  0
    1.1072    2.1689    6.0684 H   0  0  0  0  0  0  0  0  0  0  0  0
    3.4192    3.0166    3.2700 H   0  0  0  0  0  0  0  0  0  0  0  0
    1.9252    3.6504    2.6200 H   0  0  0  0  0  0  0  0  0  0  0  0
    2.5676    2.1541    1.9878 H   0  0  0  0  0  0  0  0  0  0  0  0
    4.0437   -1.4152    2.7049 H   0  0  0  0  0  0  0  0  0  0  0  0
    2.5086   -2.8816    1.6267 H   0  0  0  0  0  0  0  0  0  0  0  0
    1.5210   -3.7903    4.3566 H   0  0  0  0  0  0  0  0  0  0  0  0
    0.6002   -3.4506    2.8938 H   0  0  0  0  0  0  0  0  0  0  0  0
    0.9864   -7.5694    1.4070 H   0  0  0  0  0  0  0  0  0  0  0  0
    1.9266   -7.8880    2.8487 H   0  0  0  0  0  0  0  0  0  0  0  0
   -0.8376   -7.9247    3.7277 H   0  0  0  0  0  0  0  0  0  0  0  0
   -0.7865   -8.7753    2.2016 H   0  0  0  0  0  0  0  0  0  0  0  0
    0.5755  -10.9946    2.0535 H   0  0  0  0  0  0  0  0  0  0  0  0
    1.5736  -12.6258    4.0805 H   0  0  0  0  0  0  0  0  0  0  0  0
    0.4335   -8.9009    5.7363 H   0  0  0  0  0  0  0  0  0  0  0  0
    3.0183   -5.5616    1.2098 H   0  0  0  0  0  0  0  0  0  0  0  0
    3.5661   -6.3621    2.6831 H   0  0  0  0  0  0  0  0  0  0  0  0
    1.3569  -11.2692    6.1963 H   0  0  0  0  0  0  0  0  0  0  0  0
  2  1  1  6
  1 33  1  0
  1 34  1  0
  1 35  1  0
  2 21  1  0
  2 32  1  0
  2  3  1  0
  3  4  1  0
  3 36  1  0
  3 37  1  0
  4  5  1  0
  4 38  1  0
  4 39  1  0
  5 20  1  0
  5  6  1  0
  5 40  1  1
  6  7  1  0
  6 41  1  0
  6 42  1  0
  7  8  1  0
  7 43  1  0
  7 44  1  0
  8 18  1  0
  8  9  1  0
  8 45  1  1
  9 10  1  0
  9 20  1  0
  9 46  1  6
 10 11  1  0
 10 47  1  0
 10 48  1  0
 11 12  2  0
 11 49  1  0
 12 18  1  0
 12 13  1  0
 13 14  1  0
 13 50  1  0
 13 51  1  0
 14 15  2  0
 14 16  1  0
 16 17  1  0
 16 52  1  0
 16 53  1  0
 17 18  1  0
 17 54  1  0
 17 55  1  0
 18 19  1  6
 19 56  1  0
 19 57  1  0
 19 58  1  0
 20 21  1  0
 20 59  1  6
 21 22  1  0
 21 60  1  6
 22 23  1  0
 22 61  1  0
 22 62  1  0
 23 24  2  3
 23 32  1  0
 24 25  1  0
 25 26  1  0
 25 63  1  0
 25 64  1  0
 26 27  1  0
 26 65  1  0
 26 66  1  0
 27 31  1  0
 27 28  1  0
 28 29  2  0
 28 67  1  0
 29 30  1  0
 29 68  1  0
 30 31  2  0
 30 72  1  0
 31 69  1  0
 32 70  1  0
 32 71  1  0
M  CHG  1  30   1
M  END
>  <i_m_ct_stereo_status>  (175) 
1

>  <s_m_source_file>  (175) 
/var/tmp/pbs.5076255.sched01/tmpio9qf6gp/4214r_5_m5.sdf

>  <i_m_source_file_index>  (175) 
28

>  <i_lp_mmshare_version>  (175) 
48012

>  <i_f3d_flags>  (175) 
0

>  <s_epik_input>  (175) 
W2NIXTFuW2NIXVtjSF1uMVtDSDJdW0NIMl0vTj1DKFtDSDJdMilcW0NIMl1bQ0BIXShbQ0BdMjNbQ0gzXSlbQ0BASF00W0NAQEhdKFtDSDJdW0NIMl0zKVtDSDJdW0NIMl1bQ0BASF01W0NAQEhdNFtDSDJdW0NIXT1DNltDQEBdNShbQ0gzXSlbQ0gyXVtDSDJdQyg9TylbQ0gyXTY=

>  <s_epik_cmdline>  (175) 
J2VwaWtfcHl0aG9uJywgJy1waHQnLCAnMi4wJywgJy1waCcsICc3LjAnLCAnLXRuJywgJzgnLCAnLW1hJywgJzIwMCcsICctaW1hZScsICc8aW5maWxlLm1hZT4nLCAnLW9tYWUnLCAnPG91dGZpbGUubWFlPic=

>  <r_epik_Ionization_Penalty>  (175) 
1.61654

>  <r_epik_Ionization_Penalty_Charging>  (175) 
0

>  <r_epik_Ionization_Penalty_Neutral>  (175) 
1.61654

>  <r_epik_State_Penalty>  (175) 
2.2236

>  <r_epik_Charging_Adjusted_Penalty>  (175) 
2.2236

>  <i_epik_Tot_Q>  (175) 
1

>  <i_epik_Tot_abs_Q>  (175) 
1

>  <s_epik_Chemistry_Notes>  (175) 
This compound has an imine and may undergo hydrolysis.

>  <s_lp_Force_Field>  (175) 
OPLS3e

>  <r_lp_Energy>  (175) 
61.355

>  <b_lp_Chiralities_Consistent>  (175) 
1

>  <s_lp_Variant>  (175) 
46:0-6

>  <s_i_glide_gridfile>  (175) 
pfpi4k_grid

>  <i_i_glide_lignum>  (175) 
28

>  <i_i_glide_rotatable_bonds>  (175) 
3

>  <r_i_docking_score>  (175) 
-3.70874

>  <r_i_glide_ligand_efficiency>  (175) 
-0.115898

>  <r_i_glide_ligand_efficiency_sa>  (175) 
-0.367954

>  <r_i_glide_ligand_efficiency_ln>  (175) 
-0.830488

>  <r_i_glide_gscore>  (175) 
-3.70874

>  <r_i_glide_lipo>  (175) 
-0.265166

>  <r_i_glide_hbond>  (175) 
-0.2

>  <r_i_glide_metal>  (175) 
-0

>  <r_i_glide_rewards>  (175) 
-0.445659

>  <r_i_glide_evdw>  (175) 
-23.0373

>  <r_i_glide_ecoul>  (175) 
-10.7569

>  <r_i_glide_erotb>  (175) 
0.210868

>  <r_i_glide_esite>  (175) 
-0.243389

>  <r_i_glide_emodel>  (175) 
-42.82

>  <r_i_glide_energy>  (175) 
-33.7942

>  <r_i_glide_einternal>  (175) 
3.83531

>  <r_i_glide_intrahb_reward>  (175) 
-0

>  <i_i_glide_confnum>  (175) 
3

>  <i_i_glide_posenum>  (175) 
11

>  <r_i_glide_eff_state_penalty>  (175) 
0

>  <ligand_id>  (175) 
46

>  <original_smiles>  (175) 
CC12CCC3CCC4C(CC=C5CC(=O)CCC54C)C3C1CC(=NCCn1ccnc1)C2

>  <smiles>  (175) 
[H]C1=C2C([H])([H])C(=O)C([H])([H])C([H])([H])C2(C([H])([H])[H])C2([H])C([H])([H])C([H])([H])C3([H])C([H])([H])C([H])([H])C4(C([H])([H])[H])C([H])([H])C(=NC([H])([H])C([H])([H])n5c([H])c([H])[n+]([H])c5[H])C([H])([H])C4([H])C3([H])C2([H])C1([H])[H]

$$$$
46:5:1
     RDKit          3D

 72 77  0  0  1  0  0  0  0  0999 V2000
    4.9317   -4.4619    3.2346 C   0  0  0  0  0  0  0  0  0  0  0  0
    3.5203   -4.5719    3.8506 C   0  0  1  0  0  0  0  0  0  0  0  0
    3.6021   -4.7663    5.3894 C   0  0  0  0  0  0  0  0  0  0  0  0
    4.0427   -3.4986    6.1313 C   0  0  0  0  0  0  0  0  0  0  0  0
    3.1503   -2.2756    5.8144 C   0  0  1  0  0  0  0  0  0  0  0  0
    3.7068   -1.0419    6.5692 C   0  0  0  0  0  0  0  0  0  0  0  0
    3.5318    0.3016    5.8480 C   0  0  0  0  0  0  0  0  0  0  0  0
    2.2406    0.3505    5.0193 C   0  0  2  0  0  0  0  0  0  0  0  0
    2.2899   -0.7102    3.8870 C   0  0  2  0  0  0  0  0  0  0  0  0
    0.8835   -0.8325    3.2707 C   0  0  0  0  0  0  0  0  0  0  0  0
    0.2234    0.5109    3.0208 C   0  0  0  0  0  0  0  0  0  0  0  0
    0.6462    1.6778    3.5420 C   0  0  0  0  0  0  0  0  0  0  0  0
   -0.0572    2.9754    3.1575 C   0  0  0  0  0  0  0  0  0  0  0  0
   -0.3215    3.8644    4.3650 C   0  0  0  0  0  0  0  0  0  0  0  0
   -1.3887    4.4634    4.5157 O   0  0  0  0  0  0  0  0  0  0  0  0
    0.8281    4.0405    5.3412 C   0  0  0  0  0  0  0  0  0  0  0  0
    1.4358    2.6758    5.7175 C   0  0  0  0  0  0  0  0  0  0  0  0
    1.8372    1.7814    4.5047 C   0  0  1  0  0  0  0  0  0  0  0  0
    3.0131    2.4525    3.7438 C   0  0  0  0  0  0  0  0  0  0  0  0
    3.0187   -2.0477    4.2864 C   0  0  2  0  0  0  0  0  0  0  0  0
    2.6214   -3.3546    3.5185 C   0  0  2  0  0  0  0  0  0  0  0  0
    1.1947   -3.9304    3.7008 C   0  0  0  0  0  0  0  0  0  0  0  0
    1.2886   -5.3913    3.3224 C   0  0  0  0  0  0  0  0  0  0  0  0
    0.2702   -6.1421    3.1117 N   0  0  0  0  0  0  0  0  0  0  0  0
    0.4485   -7.5216    2.6914 C   0  0  0  0  0  0  0  0  0  0  0  0
    0.5271   -8.4751    3.9051 C   0  0  0  0  0  0  0  0  0  0  0  0
    1.2446   -9.7187    3.5661 N   0  0  0  0  0  0  0  0  0  0  0  0
    2.4932   -9.7951    3.0062 C   0  0  0  0  0  0  0  0  0  0  0  0
    2.7784  -11.1259    2.8896 C   0  0  0  0  0  0  0  0  0  0  0  0
    1.7057  -11.7865    3.4041 N   0  0  0  0  0  0  0  0  0  0  0  0
    0.7811  -10.9367    3.8340 C   0  0  0  0  0  0  0  0  0  0  0  0
    2.7529   -5.7575    3.2250 C   0  0  0  0  0  0  0  0  0  0  0  0
    5.5171   -5.3629    3.4220 H   0  0  0  0  0  0  0  0  0  0  0  0
    5.4924   -3.6221    3.6419 H   0  0  0  0  0  0  0  0  0  0  0  0
    4.8838   -4.3202    2.1550 H   0  0  0  0  0  0  0  0  0  0  0  0
    2.6330   -5.0603    5.7919 H   0  0  0  0  0  0  0  0  0  0  0  0
    4.2765   -5.5895    5.6326 H   0  0  0  0  0  0  0  0  0  0  0  0
    4.0178   -3.6938    7.2046 H   0  0  0  0  0  0  0  0  0  0  0  0
    5.0850   -3.2867    5.8964 H   0  0  0  0  0  0  0  0  0  0  0  0
    2.1529   -2.4767    6.1952 H   0  0  0  0  0  0  0  0  0  0  0  0
    3.1996   -0.9883    7.5365 H   0  0  0  0  0  0  0  0  0  0  0  0
    4.7627   -1.1648    6.8097 H   0  0  0  0  0  0  0  0  0  0  0  0
    3.5723    1.1035    6.5843 H   0  0  0  0  0  0  0  0  0  0  0  0
    4.3868    0.4508    5.1815 H   0  0  0  0  0  0  0  0  0  0  0  0
    1.4384    0.0362    5.6928 H   0  0  0  0  0  0  0  0  0  0  0  0
    2.9062   -0.2963    3.0861 H   0  0  0  0  0  0  0  0  0  0  0  0
    0.9511   -1.3391    2.3055 H   0  0  0  0  0  0  0  0  0  0  0  0
    0.2140   -1.3998    3.9186 H   0  0  0  0  0  0  0  0  0  0  0  0
   -0.6272    0.5037    2.3524 H   0  0  0  0  0  0  0  0  0  0  0  0
    0.6010    3.5113    2.4817 H   0  0  0  0  0  0  0  0  0  0  0  0
   -0.9888    2.7789    2.6318 H   0  0  0  0  0  0  0  0  0  0  0  0
    1.5756    4.6812    4.8739 H   0  0  0  0  0  0  0  0  0  0  0  0
    0.4822    4.5659    6.2317 H   0  0  0  0  0  0  0  0  0  0  0  0
    2.2900    2.8614    6.3657 H   0  0  0  0  0  0  0  0  0  0  0  0
    0.7044    2.1477    6.3309 H   0  0  0  0  0  0  0  0  0  0  0  0
    3.8781    2.6129    4.3873 H   0  0  0  0  0  0  0  0  0  0  0  0
    2.7377    3.4283    3.3374 H   0  0  0  0  0  0  0  0  0  0  0  0
    3.3371    1.8518    2.8929 H   0  0  0  0  0  0  0  0  0  0  0  0
    4.0457   -1.8622    3.9751 H   0  0  0  0  0  0  0  0  0  0  0  0
    2.7409   -3.1464    2.4535 H   0  0  0  0  0  0  0  0  0  0  0  0
    0.8502   -3.8491    4.7309 H   0  0  0  0  0  0  0  0  0  0  0  0
    0.4721   -3.4354    3.0612 H   0  0  0  0  0  0  0  0  0  0  0  0
   -0.3980   -7.8111    2.0611 H   0  0  0  0  0  0  0  0  0  0  0  0
    1.3137   -7.6273    2.0327 H   0  0  0  0  0  0  0  0  0  0  0  0
    1.0842   -8.0244    4.7286 H   0  0  0  0  0  0  0  0  0  0  0  0
   -0.4667   -8.7208    4.2849 H   0  0  0  0  0  0  0  0  0  0  0  0
    3.0757   -8.9236    2.7216 H   0  0  0  0  0  0  0  0  0  0  0  0
    3.6484  -11.6254    2.4827 H   0  0  0  0  0  0  0  0  0  0  0  0
   -0.1555  -11.1948    4.3003 H   0  0  0  0  0  0  0  0  0  0  0  0
    3.0046   -5.8675    2.1689 H   0  0  0  0  0  0  0  0  0  0  0  0
    2.9639   -6.6995    3.7272 H   0  0  0  0  0  0  0  0  0  0  0  0
    1.6429  -12.8187    3.4453 H   0  0  0  0  0  0  0  0  0  0  0  0
  2  1  1  6
  1 33  1  0
  1 34  1  0
  1 35  1  0
  2 21  1  0
  2 32  1  0
  2  3  1  0
  3  4  1  0
  3 36  1  0
  3 37  1  0
  4  5  1  0
  4 38  1  0
  4 39  1  0
  5 20  1  0
  5  6  1  0
  5 40  1  1
  6  7  1  0
  6 41  1  0
  6 42  1  0
  7  8  1  0
  7 43  1  0
  7 44  1  0
  8 18  1  0
  8  9  1  0
  8 45  1  1
  9 10  1  0
  9 20  1  0
  9 46  1  6
 10 11  1  0
 10 47  1  0
 10 48  1  0
 11 12  2  0
 11 49  1  0
 12 18  1  0
 12 13  1  0
 13 14  1  0
 13 50  1  0
 13 51  1  0
 14 15  2  0
 14 16  1  0
 16 17  1  0
 16 52  1  0
 16 53  1  0
 17 18  1  0
 17 54  1  0
 17 55  1  0
 18 19  1  6
 19 56  1  0
 19 57  1  0
 19 58  1  0
 20 21  1  0
 20 59  1  6
 21 22  1  0
 21 60  1  6
 22 23  1  0
 22 61  1  0
 22 62  1  0
 23 24  2  3
 23 32  1  0
 24 25  1  0
 25 26  1  0
 25 63  1  0
 25 64  1  0
 26 27  1  0
 26 65  1  0
 26 66  1  0
 27 31  1  0
 27 28  1  0
 28 29  2  0
 28 67  1  0
 29 30  1  0
 29 68  1  0
 30 31  2  0
 30 72  1  0
 31 69  1  0
 32 70  1  0
 32 71  1  0
M  CHG  1  30   1
M  END
>  <i_m_ct_stereo_status>  (176) 
1

>  <s_m_source_file>  (176) 
/var/tmp/pbs.5076255.sched01/tmpio9qf6gp/4214r_5_m5.sdf

>  <i_m_source_file_index>  (176) 
28

>  <i_lp_mmshare_version>  (176) 
48012

>  <i_f3d_flags>  (176) 
0

>  <s_epik_input>  (176) 
W2NIXTFuW2NIXVtjSF1uMVtDSDJdW0NIMl0vTj1DKFtDSDJdMilcW0NIMl1bQ0BIXShbQ0BdMjNbQ0gzXSlbQ0BASF00W0NAQEhdKFtDSDJdW0NIMl0zKVtDSDJdW0NIMl1bQ0BASF01W0NAQEhdNFtDSDJdW0NIXT1DNltDQEBdNShbQ0gzXSlbQ0gyXVtDSDJdQyg9TylbQ0gyXTY=

>  <s_epik_cmdline>  (176) 
J2VwaWtfcHl0aG9uJywgJy1waHQnLCAnMi4wJywgJy1waCcsICc3LjAnLCAnLXRuJywgJzgnLCAnLW1hJywgJzIwMCcsICctaW1hZScsICc8aW5maWxlLm1hZT4nLCAnLW9tYWUnLCAnPG91dGZpbGUubWFlPic=

>  <r_epik_Ionization_Penalty>  (176) 
1.61654

>  <r_epik_Ionization_Penalty_Charging>  (176) 
0

>  <r_epik_Ionization_Penalty_Neutral>  (176) 
1.61654

>  <r_epik_State_Penalty>  (176) 
2.2236

>  <r_epik_Charging_Adjusted_Penalty>  (176) 
2.2236

>  <i_epik_Tot_Q>  (176) 
1

>  <i_epik_Tot_abs_Q>  (176) 
1

>  <s_epik_Chemistry_Notes>  (176) 
This compound has an imine and may undergo hydrolysis.

>  <s_lp_Force_Field>  (176) 
OPLS3e

>  <r_lp_Energy>  (176) 
61.355

>  <b_lp_Chiralities_Consistent>  (176) 
1

>  <s_lp_Variant>  (176) 
46:0-6

>  <s_i_glide_gridfile>  (176) 
pfpi4k_grid

>  <i_i_glide_lignum>  (176) 
28

>  <i_i_glide_rotatable_bonds>  (176) 
3

>  <r_i_docking_score>  (176) 
-3.2774

>  <r_i_glide_ligand_efficiency>  (176) 
-0.102419

>  <r_i_glide_ligand_efficiency_sa>  (176) 
-0.325159

>  <r_i_glide_ligand_efficiency_ln>  (176) 
-0.733899

>  <r_i_glide_gscore>  (176) 
-3.2774

>  <r_i_glide_lipo>  (176) 
-0.0145485

>  <r_i_glide_hbond>  (176) 
-0.144885

>  <r_i_glide_metal>  (176) 
-0

>  <r_i_glide_rewards>  (176) 
-0.494464

>  <r_i_glide_evdw>  (176) 
-19.4417

>  <r_i_glide_ecoul>  (176) 
-11.9676

>  <r_i_glide_erotb>  (176) 
0.210868

>  <r_i_glide_esite>  (176) 
-0.0671376

>  <r_i_glide_emodel>  (176) 
-40.1776

>  <r_i_glide_energy>  (176) 
-31.4093

>  <r_i_glide_einternal>  (176) 
1.65058

>  <r_i_glide_intrahb_reward>  (176) 
-0

>  <i_i_glide_confnum>  (176) 
3

>  <i_i_glide_posenum>  (176) 
9

>  <r_i_glide_eff_state_penalty>  (176) 
0

>  <ligand_id>  (176) 
46

>  <original_smiles>  (176) 
CC12CCC3CCC4C(CC=C5CC(=O)CCC54C)C3C1CC(=NCCn1ccnc1)C2

>  <smiles>  (176) 
[H]C1=C2C([H])([H])C(=O)C([H])([H])C([H])([H])C2(C([H])([H])[H])C2([H])C([H])([H])C([H])([H])C3([H])C([H])([H])C([H])([H])C4(C([H])([H])[H])C([H])([H])C(=NC([H])([H])C([H])([H])n5c([H])c([H])[n+]([H])c5[H])C([H])([H])C4([H])C3([H])C2([H])C1([H])[H]

$$$$
46:5:2
     RDKit          3D

 72 77  0  0  1  0  0  0  0  0999 V2000
    4.9303    0.1762    8.4203 C   0  0  0  0  0  0  0  0  0  0  0  0
    3.4898    0.3516    7.8935 C   0  0  1  0  0  0  0  0  0  0  0  0
    3.3898    1.5897    6.9605 C   0  0  0  0  0  0  0  0  0  0  0  0
    4.0632    1.3685    5.6021 C   0  0  0  0  0  0  0  0  0  0  0  0
    3.5355    0.1193    4.8617 C   0  0  1  0  0  0  0  0  0  0  0  0
    4.3112   -0.0397    3.5306 C   0  0  0  0  0  0  0  0  0  0  0  0
    4.5400   -1.4913    3.0800 C   0  0  0  0  0  0  0  0  0  0  0  0
    3.3699   -2.4112    3.4693 C   0  0  2  0  0  0  0  0  0  0  0  0
    3.2542   -2.4911    5.0145 C   0  0  2  0  0  0  0  0  0  0  0  0
    1.9146   -3.1684    5.3647 C   0  0  0  0  0  0  0  0  0  0  0  0
    1.6326   -4.4019    4.5244 C   0  0  0  0  0  0  0  0  0  0  0  0
    2.2898   -4.7293    3.3936 C   0  0  0  0  0  0  0  0  0  0  0  0
    1.9768   -6.0412    2.6708 C   0  0  0  0  0  0  0  0  0  0  0  0
    1.8292   -5.8306    1.1671 C   0  0  0  0  0  0  0  0  0  0  0  0
    0.8646   -6.2632    0.5344 O   0  0  0  0  0  0  0  0  0  0  0  0
    2.9035   -4.9907    0.4925 C   0  0  0  0  0  0  0  0  0  0  0  0
    3.1101   -3.6680    1.2570 C   0  0  0  0  0  0  0  0  0  0  0  0
    3.3832   -3.8303    2.7841 C   0  0  1  0  0  0  0  0  0  0  0  0
    4.7478   -4.5372    2.9874 C   0  0  0  0  0  0  0  0  0  0  0  0
    3.5913   -1.1434    5.7580 C   0  0  2  0  0  0  0  0  0  0  0  0
    2.9501   -0.9081    7.1679 C   0  0  2  0  0  0  0  0  0  0  0  0
    1.4162   -0.7363    7.2718 C   0  0  0  0  0  0  0  0  0  0  0  0
    1.1809   -0.0056    8.5716 C   0  0  0  0  0  0  0  0  0  0  0  0
    0.0306    0.1121    9.1077 N   0  0  0  0  0  0  0  0  0  0  0  0
   -0.1156    0.7951   10.3855 C   0  0  0  0  0  0  0  0  0  0  0  0
   -0.2671    2.3225   10.2050 C   0  0  0  0  0  0  0  0  0  0  0  0
   -1.5376    2.7089    9.5819 N   0  0  0  0  0  0  0  0  0  0  0  0
   -2.7276    2.9595   10.2104 C   0  0  0  0  0  0  0  0  0  0  0  0
   -3.6212    3.3326    9.2424 C   0  0  0  0  0  0  0  0  0  0  0  0
   -2.9391    3.2854    8.0567 N   0  0  0  0  0  0  0  0  0  0  0  0
   -1.6715    2.9140    8.2631 C   0  0  0  0  0  0  0  0  0  0  0  0
    2.5101    0.5158    9.0729 C   0  0  0  0  0  0  0  0  0  0  0  0
    5.2531    1.0489    8.9898 H   0  0  0  0  0  0  0  0  0  0  0  0
    5.6458    0.0348    7.6123 H   0  0  0  0  0  0  0  0  0  0  0  0
    5.0092   -0.6910    9.0751 H   0  0  0  0  0  0  0  0  0  0  0  0
    2.3473    1.8454    6.7704 H   0  0  0  0  0  0  0  0  0  0  0  0
    3.8191    2.4679    7.4462 H   0  0  0  0  0  0  0  0  0  0  0  0
    3.9030    2.2502    4.9807 H   0  0  0  0  0  0  0  0  0  0  0  0
    5.1429    1.3014    5.7416 H   0  0  0  0  0  0  0  0  0  0  0  0
    2.4890    0.2914    4.6114 H   0  0  0  0  0  0  0  0  0  0  0  0
    3.7563    0.4864    2.7557 H   0  0  0  0  0  0  0  0  0  0  0  0
    5.2841    0.4590    3.5794 H   0  0  0  0  0  0  0  0  0  0  0  0
    4.7118   -1.4981    2.0011 H   0  0  0  0  0  0  0  0  0  0  0  0
    5.4540   -1.8632    3.5436 H   0  0  0  0  0  0  0  0  0  0  0  0
    2.4627   -1.9130    3.1230 H   0  0  0  0  0  0  0  0  0  0  0  0
    4.0185   -3.1862    5.3652 H   0  0  0  0  0  0  0  0  0  0  0  0
    1.9345   -3.4924    6.4065 H   0  0  0  0  0  0  0  0  0  0  0  0
    1.0763   -2.4852    5.2257 H   0  0  0  0  0  0  0  0  0  0  0  0
    0.8583   -5.0548    4.9041 H   0  0  0  0  0  0  0  0  0  0  0  0
    2.7789   -6.7552    2.8482 H   0  0  0  0  0  0  0  0  0  0  0  0
    1.0593   -6.4782    3.0628 H   0  0  0  0  0  0  0  0  0  0  0  0
    3.8288   -5.5658    0.4504 H   0  0  0  0  0  0  0  0  0  0  0  0
    2.6168   -4.7889   -0.5409 H   0  0  0  0  0  0  0  0  0  0  0  0
    3.9248   -3.1307    0.7737 H   0  0  0  0  0  0  0  0  0  0  0  0
    2.2242   -3.0478    1.1087 H   0  0  0  0  0  0  0  0  0  0  0  0
    5.5657   -3.9835    2.5238 H   0  0  0  0  0  0  0  0  0  0  0  0
    4.7569   -5.5396    2.5529 H   0  0  0  0  0  0  0  0  0  0  0  0
    4.9840   -4.6588    4.0455 H   0  0  0  0  0  0  0  0  0  0  0  0
    4.6543   -1.2440    5.9690 H   0  0  0  0  0  0  0  0  0  0  0  0
    3.2110   -1.7684    7.7866 H   0  0  0  0  0  0  0  0  0  0  0  0
    1.0149   -0.1376    6.4536 H   0  0  0  0  0  0  0  0  0  0  0  0
    0.8813   -1.6835    7.3024 H   0  0  0  0  0  0  0  0  0  0  0  0
   -0.9872    0.3936   10.9076 H   0  0  0  0  0  0  0  0  0  0  0  0
    0.7281    0.5953   11.0570 H   0  0  0  0  0  0  0  0  0  0  0  0
   -0.2441    2.8045   11.1860 H   0  0  0  0  0  0  0  0  0  0  0  0
    0.5471    2.7558    9.6162 H   0  0  0  0  0  0  0  0  0  0  0  0
   -2.8511    2.8561   11.2766 H   0  0  0  0  0  0  0  0  0  0  0  0
   -4.6680    3.6046    9.3068 H   0  0  0  0  0  0  0  0  0  0  0  0
   -0.9061    2.8005    7.5154 H   0  0  0  0  0  0  0  0  0  0  0  0
    2.8104   -0.0937    9.9260 H   0  0  0  0  0  0  0  0  0  0  0  0
    2.4426    1.5486    9.4119 H   0  0  0  0  0  0  0  0  0  0  0  0
   -3.3352    3.4963    7.1490 H   0  0  0  0  0  0  0  0  0  0  0  0
  2  1  1  1
  1 33  1  0
  1 34  1  0
  1 35  1  0
  2 21  1  0
  2 32  1  0
  2  3  1  0
  3  4  1  0
  3 36  1  0
  3 37  1  0
  4  5  1  0
  4 38  1  0
  4 39  1  0
  5 20  1  0
  5  6  1  0
  5 40  1  6
  6  7  1  0
  6 41  1  0
  6 42  1  0
  7  8  1  0
  7 43  1  0
  7 44  1  0
  8 18  1  0
  8  9  1  0
  8 45  1  6
  9 10  1  0
  9 20  1  0
  9 46  1  1
 10 11  1  0
 10 47  1  0
 10 48  1  0
 11 12  2  0
 11 49  1  0
 12 18  1  0
 12 13  1  0
 13 14  1  0
 13 50  1  0
 13 51  1  0
 14 15  2  0
 14 16  1  0
 16 17  1  0
 16 52  1  0
 16 53  1  0
 17 18  1  0
 17 54  1  0
 17 55  1  0
 18 19  1  6
 19 56  1  0
 19 57  1  0
 19 58  1  0
 20 21  1  0
 20 59  1  1
 21 22  1  0
 21 60  1  1
 22 23  1  0
 22 61  1  0
 22 62  1  0
 23 24  2  3
 23 32  1  0
 24 25  1  0
 25 26  1  0
 25 63  1  0
 25 64  1  0
 26 27  1  0
 26 65  1  0
 26 66  1  0
 27 31  1  0
 27 28  1  0
 28 29  2  0
 28 67  1  0
 29 30  1  0
 29 68  1  0
 30 31  2  0
 30 72  1  0
 31 69  1  0
 32 70  1  0
 32 71  1  0
M  CHG  1  30   1
M  END
>  <i_m_ct_stereo_status>  (177) 
1

>  <s_m_source_file>  (177) 
/var/tmp/pbs.5076255.sched01/tmpio9qf6gp/4214r_5_m5.sdf

>  <i_m_source_file_index>  (177) 
28

>  <i_lp_mmshare_version>  (177) 
48012

>  <i_f3d_flags>  (177) 
0

>  <s_epik_input>  (177) 
W2NIXTFuW2NIXVtjSF1uMVtDSDJdW0NIMl0vTj1DKFtDSDJdMilcW0NIMl1bQ0BIXShbQ0BdMjNbQ0gzXSlbQ0BASF00W0NAQEhdKFtDSDJdW0NIMl0zKVtDSDJdW0NIMl1bQ0BASF01W0NAQEhdNFtDSDJdW0NIXT1DNltDQEBdNShbQ0gzXSlbQ0gyXVtDSDJdQyg9TylbQ0gyXTY=

>  <s_epik_cmdline>  (177) 
J2VwaWtfcHl0aG9uJywgJy1waHQnLCAnMi4wJywgJy1waCcsICc3LjAnLCAnLXRuJywgJzgnLCAnLW1hJywgJzIwMCcsICctaW1hZScsICc8aW5maWxlLm1hZT4nLCAnLW9tYWUnLCAnPG91dGZpbGUubWFlPic=

>  <r_epik_Ionization_Penalty>  (177) 
1.61654

>  <r_epik_Ionization_Penalty_Charging>  (177) 
0

>  <r_epik_Ionization_Penalty_Neutral>  (177) 
1.61654

>  <r_epik_State_Penalty>  (177) 
2.2236

>  <r_epik_Charging_Adjusted_Penalty>  (177) 
2.2236

>  <i_epik_Tot_Q>  (177) 
1

>  <i_epik_Tot_abs_Q>  (177) 
1

>  <s_epik_Chemistry_Notes>  (177) 
This compound has an imine and may undergo hydrolysis.

>  <s_lp_Force_Field>  (177) 
OPLS3e

>  <r_lp_Energy>  (177) 
61.355

>  <b_lp_Chiralities_Consistent>  (177) 
1

>  <s_lp_Variant>  (177) 
46:0-6

>  <s_i_glide_gridfile>  (177) 
pfpi4k_grid

>  <i_i_glide_lignum>  (177) 
28

>  <i_i_glide_rotatable_bonds>  (177) 
3

>  <r_i_docking_score>  (177) 
-2.83274

>  <r_i_glide_ligand_efficiency>  (177) 
-0.0885232

>  <r_i_glide_ligand_efficiency_sa>  (177) 
-0.281043

>  <r_i_glide_ligand_efficiency_ln>  (177) 
-0.634328

>  <r_i_glide_gscore>  (177) 
-2.83274

>  <r_i_glide_lipo>  (177) 
-0.14309

>  <r_i_glide_hbond>  (177) 
-0.190623

>  <r_i_glide_metal>  (177) 
-0

>  <r_i_glide_rewards>  (177) 
-0.445659

>  <r_i_glide_evdw>  (177) 
-19.8321

>  <r_i_glide_ecoul>  (177) 
-7.76116

>  <r_i_glide_erotb>  (177) 
0.210868

>  <r_i_glide_esite>  (177) 
-0.108456

>  <r_i_glide_emodel>  (177) 
-35.3019

>  <r_i_glide_energy>  (177) 
-27.5933

>  <r_i_glide_einternal>  (177) 
1.41912

>  <r_i_glide_intrahb_reward>  (177) 
-0

>  <i_i_glide_confnum>  (177) 
3

>  <i_i_glide_posenum>  (177) 
4

>  <r_i_glide_eff_state_penalty>  (177) 
0

>  <ligand_id>  (177) 
46

>  <original_smiles>  (177) 
CC12CCC3CCC4C(CC=C5CC(=O)CCC54C)C3C1CC(=NCCn1ccnc1)C2

>  <smiles>  (177) 
[H]C1=C2C([H])([H])C(=O)C([H])([H])C([H])([H])C2(C([H])([H])[H])C2([H])C([H])([H])C([H])([H])C3([H])C([H])([H])C([H])([H])C4(C([H])([H])[H])C([H])([H])C(=NC([H])([H])C([H])([H])n5c([H])c([H])[n+]([H])c5[H])C([H])([H])C4([H])C3([H])C2([H])C1([H])[H]

$$$$
46:7:0
     RDKit          3D

 71 76  0  0  1  0  0  0  0  0999 V2000
    5.0035   -3.4903    4.7463 C   0  0  0  0  0  0  0  0  0  0  0  0
    4.1969   -3.3918    3.4342 C   0  0  1  0  0  0  0  0  0  0  0  0
    3.0791   -4.4681    3.3861 C   0  0  0  0  0  0  0  0  0  0  0  0
    1.9188   -4.1728    4.3442 C   0  0  0  0  0  0  0  0  0  0  0  0
    1.2901   -2.7772    4.1240 C   0  0  1  0  0  0  0  0  0  0  0  0
    0.1833   -2.5646    5.1853 C   0  0  0  0  0  0  0  0  0  0  0  0
   -0.0003   -1.1186    5.6661 C   0  0  0  0  0  0  0  0  0  0  0  0
    0.3084   -0.0950    4.5644 C   0  0  2  0  0  0  0  0  0  0  0  0
    1.7939   -0.2000    4.1317 C   0  0  2  0  0  0  0  0  0  0  0  0
    1.9828    0.6170    2.8394 C   0  0  0  0  0  0  0  0  0  0  0  0
    1.3106    1.9760    2.8908 C   0  0  0  0  0  0  0  0  0  0  0  0
    0.3986    2.3388    3.8112 C   0  0  0  0  0  0  0  0  0  0  0  0
   -0.1575    3.7609    3.8018 C   0  0  0  0  0  0  0  0  0  0  0  0
   -1.6714    3.7463    3.9326 C   0  0  0  0  0  0  0  0  0  0  0  0
   -2.3845    4.4881    3.2595 O   0  0  0  0  0  0  0  0  0  0  0  0
   -2.2624    2.8755    5.0238 C   0  0  0  0  0  0  0  0  0  0  0  0
   -1.6928    1.4506    4.9271 C   0  0  0  0  0  0  0  0  0  0  0  0
   -0.1337    1.3795    4.8880 C   0  0  1  0  0  0  0  0  0  0  0  0
    0.4292    1.8428    6.2573 C   0  0  0  0  0  0  0  0  0  0  0  0
    2.3664   -1.6651    4.1476 C   0  0  2  0  0  0  0  0  0  0  0  0
    3.5814   -1.9832    3.2140 C   0  0  2  0  0  0  0  0  0  0  0  0
    3.3790   -1.9416    1.6807 C   0  0  0  0  0  0  0  0  0  0  0  0
    4.5012   -2.7704    1.1099 C   0  0  0  0  0  0  0  0  0  0  0  0
    4.8302   -2.7397   -0.1134 N   0  0  0  0  0  0  0  0  0  0  0  0
    5.8829   -3.5794   -0.6594 C   0  0  0  0  0  0  0  0  0  0  0  0
    6.2772   -3.0888   -2.0722 C   0  0  0  0  0  0  0  0  0  0  0  0
    5.1246   -2.8070   -2.9072 N   0  0  0  0  0  0  0  0  0  0  0  0
    4.4528   -1.5834   -2.9813 C   0  0  0  0  0  0  0  0  0  0  0  0
    3.4013   -1.7596   -3.8320 C   0  0  0  0  0  0  0  0  0  0  0  0
    3.4203   -3.0912   -4.3197 N   0  0  0  0  0  0  0  0  0  0  0  0
    4.4861   -3.6203   -3.7125 C   0  0  0  0  0  0  0  0  0  0  0  0
    5.1338   -3.5718    2.2166 C   0  0  0  0  0  0  0  0  0  0  0  0
    5.4921   -4.4621    4.8347 H   0  0  0  0  0  0  0  0  0  0  0  0
    4.3738   -3.3577    5.6269 H   0  0  0  0  0  0  0  0  0  0  0  0
    5.7801   -2.7260    4.7872 H   0  0  0  0  0  0  0  0  0  0  0  0
    2.6645   -4.5442    2.3812 H   0  0  0  0  0  0  0  0  0  0  0  0
    3.4950   -5.4539    3.6036 H   0  0  0  0  0  0  0  0  0  0  0  0
    1.1541   -4.9388    4.2097 H   0  0  0  0  0  0  0  0  0  0  0  0
    2.2691   -4.2816    5.3699 H   0  0  0  0  0  0  0  0  0  0  0  0
    0.8231   -2.7616    3.1421 H   0  0  0  0  0  0  0  0  0  0  0  0
   -0.7554   -2.8914    4.7378 H   0  0  0  0  0  0  0  0  0  0  0  0
    0.3241   -3.2149    6.0501 H   0  0  0  0  0  0  0  0  0  0  0  0
   -1.0084   -0.9986    6.0601 H   0  0  0  0  0  0  0  0  0  0  0  0
    0.6886   -0.9523    6.4985 H   0  0  0  0  0  0  0  0  0  0  0  0
   -0.2776   -0.4008    3.6933 H   0  0  0  0  0  0  0  0  0  0  0  0
    2.3852    0.3272    4.8825 H   0  0  0  0  0  0  0  0  0  0  0  0
    3.0465    0.8000    2.6746 H   0  0  0  0  0  0  0  0  0  0  0  0
    1.5781    0.0943    1.9705 H   0  0  0  0  0  0  0  0  0  0  0  0
    1.6209    2.6824    2.1294 H   0  0  0  0  0  0  0  0  0  0  0  0
    0.2546    4.3202    4.6363 H   0  0  0  0  0  0  0  0  0  0  0  0
    0.1168    4.2746    2.8826 H   0  0  0  0  0  0  0  0  0  0  0  0
   -2.0291    3.3188    5.9896 H   0  0  0  0  0  0  0  0  0  0  0  0
   -3.3497    2.8787    4.9456 H   0  0  0  0  0  0  0  0  0  0  0  0
   -2.0955    0.8703    5.7548 H   0  0  0  0  0  0  0  0  0  0  0  0
   -2.1000    1.0011    4.0213 H   0  0  0  0  0  0  0  0  0  0  0  0
    0.0494    1.2392    7.0817 H   0  0  0  0  0  0  0  0  0  0  0  0
    0.1667    2.8808    6.4750 H   0  0  0  0  0  0  0  0  0  0  0  0
    1.5189    1.7933    6.2782 H   0  0  0  0  0  0  0  0  0  0  0  0
    2.7853   -1.7484    5.1493 H   0  0  0  0  0  0  0  0  0  0  0  0
    4.3581   -1.2506    3.4371 H   0  0  0  0  0  0  0  0  0  0  0  0
    2.4250   -2.3738    1.3787 H   0  0  0  0  0  0  0  0  0  0  0  0
    3.4411   -0.9423    1.2608 H   0  0  0  0  0  0  0  0  0  0  0  0
    6.7682   -3.5629   -0.0138 H   0  0  0  0  0  0  0  0  0  0  0  0
    5.5450   -4.6166   -0.7245 H   0  0  0  0  0  0  0  0  0  0  0  0
    6.8976   -2.1990   -2.0025 H   0  0  0  0  0  0  0  0  0  0  0  0
    6.8939   -3.8368   -2.5750 H   0  0  0  0  0  0  0  0  0  0  0  0
    4.7406   -0.7203   -2.4029 H   0  0  0  0  0  0  0  0  0  0  0  0
    2.6196   -1.0848   -4.1333 H   0  0  0  0  0  0  0  0  0  0  0  0
    4.7678   -4.6543   -3.8745 H   0  0  0  0  0  0  0  0  0  0  0  0
    6.1146   -3.1400    2.4154 H   0  0  0  0  0  0  0  0  0  0  0  0
    5.2725   -4.6145    1.9338 H   0  0  0  0  0  0  0  0  0  0  0  0
  2  1  1  1
  1 33  1  0
  1 34  1  0
  1 35  1  0
  2 21  1  0
  2 32  1  0
  2  3  1  0
  3  4  1  0
  3 36  1  0
  3 37  1  0
  4  5  1  0
  4 38  1  0
  4 39  1  0
  5 20  1  0
  5  6  1  0
  5 40  1  6
  6  7  1  0
  6 41  1  0
  6 42  1  0
  7  8  1  0
  7 43  1  0
  7 44  1  0
  8 18  1  0
  8  9  1  0
  8 45  1  6
  9 10  1  0
  9 20  1  0
  9 46  1  1
 10 11  1  0
 10 47  1  0
 10 48  1  0
 11 12  2  0
 11 49  1  0
 12 18  1  0
 12 13  1  0
 13 14  1  0
 13 50  1  0
 13 51  1  0
 14 15  2  0
 14 16  1  0
 16 17  1  0
 16 52  1  0
 16 53  1  0
 17 18  1  0
 17 54  1  0
 17 55  1  0
 18 19  1  1
 19 56  1  0
 19 57  1  0
 19 58  1  0
 20 21  1  0
 20 59  1  1
 21 22  1  0
 21 60  1  6
 22 23  1  0
 22 61  1  0
 22 62  1  0
 23 24  2  3
 23 32  1  0
 24 25  1  0
 25 26  1  0
 25 63  1  0
 25 64  1  0
 26 27  1  0
 26 65  1  0
 26 66  1  0
 27 31  1  0
 27 28  1  0
 28 29  2  0
 28 67  1  0
 29 30  1  0
 29 68  1  0
 30 31  2  0
 31 69  1  0
 32 70  1  0
 32 71  1  0
M  END
>  <i_m_ct_stereo_status>  (178) 
1

>  <s_m_source_file>  (178) 
/var/tmp/pbs.5076255.sched01/tmpio9qf6gp/4214r_5_m5.sdf

>  <i_m_source_file_index>  (178) 
30

>  <i_lp_mmshare_version>  (178) 
48012

>  <i_f3d_flags>  (178) 
0

>  <s_epik_input>  (178) 
W2NIXTFuW2NIXVtjSF1uMVtDSDJdW0NIMl0vTj1DKFtDSDJdMilcW0NIMl1bQ0BIXShbQ0BdMjNbQ0gzXSlbQ0BASF00W0NAQEhdKFtDSDJdW0NIMl0zKVtDSDJdW0NIMl1bQ0BASF01W0NAQEhdNFtDSDJdW0NIXT1DNltDQEBdNShbQ0gzXSlbQ0gyXVtDSDJdQyg9TylbQ0gyXTY=

>  <s_epik_cmdline>  (178) 
J2VwaWtfcHl0aG9uJywgJy1waHQnLCAnMi4wJywgJy1waCcsICc3LjAnLCAnLXRuJywgJzgnLCAnLW1hJywgJzIwMCcsICctaW1hZScsICc8aW5maWxlLm1hZT4nLCAnLW9tYWUnLCAnPG91dGZpbGUubWFlPic=

>  <r_lp_tautomer_probability>  (178) 
0.499971

>  <r_epik_Ionization_Penalty>  (178) 
2.24135

>  <r_epik_Ionization_Penalty_Charging>  (178) 
0.602827

>  <r_epik_Ionization_Penalty_Neutral>  (178) 
1.63852

>  <r_epik_State_Penalty>  (178) 
2.58913

>  <r_epik_Charging_Adjusted_Penalty>  (178) 
3.19196

>  <i_epik_Tot_Q>  (178) 
0

>  <i_epik_Tot_abs_Q>  (178) 
0

>  <s_epik_Chemistry_Notes>  (178) 
This compound has an imine and may undergo hydrolysis.

>  <s_lp_Force_Field>  (178) 
OPLS3e

>  <r_lp_Energy>  (178) 
54.4602

>  <b_lp_Chiralities_Consistent>  (178) 
1

>  <s_lp_Variant>  (178) 
46:0-8

>  <s_i_glide_gridfile>  (178) 
pfpi4k_grid

>  <i_i_glide_lignum>  (178) 
30

>  <i_i_glide_rotatable_bonds>  (178) 
3

>  <r_i_docking_score>  (178) 
-3.62859

>  <r_i_glide_ligand_efficiency>  (178) 
-0.113394

>  <r_i_glide_ligand_efficiency_sa>  (178) 
-0.360002

>  <r_i_glide_ligand_efficiency_ln>  (178) 
-0.812541

>  <r_i_glide_gscore>  (178) 
-3.62859

>  <r_i_glide_lipo>  (178) 
-0.416513

>  <r_i_glide_hbond>  (178) 
-0.375596

>  <r_i_glide_metal>  (178) 
-0

>  <r_i_glide_rewards>  (178) 
-0.824495

>  <r_i_glide_evdw>  (178) 
-31.4799

>  <r_i_glide_ecoul>  (178) 
-3.89028

>  <r_i_glide_erotb>  (178) 
0.211757

>  <r_i_glide_esite>  (178) 
-0.066212

>  <r_i_glide_emodel>  (178) 
-41.6201

>  <r_i_glide_energy>  (178) 
-35.3702

>  <r_i_glide_einternal>  (178) 
3.00306

>  <r_i_glide_intrahb_reward>  (178) 
-0

>  <i_i_glide_confnum>  (178) 
3

>  <i_i_glide_posenum>  (178) 
2

>  <r_i_glide_eff_state_penalty>  (178) 
0

>  <ligand_id>  (178) 
46

>  <original_smiles>  (178) 
CC12CCC3CCC4C(CC=C5CC(=O)CCC54C)C3C1CC(=NCCn1ccnc1)C2

>  <smiles>  (178) 
[H]C1=C2C([H])([H])C(=O)C([H])([H])C([H])([H])C2(C([H])([H])[H])C2([H])C([H])([H])C([H])([H])C3([H])C([H])([H])C([H])([H])C4(C([H])([H])[H])C([H])([H])C(=NC([H])([H])C([H])([H])n5c([H])nc([H])c5[H])C([H])([H])C4([H])C3([H])C2([H])C1([H])[H]

$$$$
46:7:1
     RDKit          3D

 71 76  0  0  1  0  0  0  0  0999 V2000
    5.2193   -2.3805    4.5846 C   0  0  0  0  0  0  0  0  0  0  0  0
    4.1029   -2.8707    3.6438 C   0  0  1  0  0  0  0  0  0  0  0  0
    3.2549   -3.9776    4.3278 C   0  0  0  0  0  0  0  0  0  0  0  0
    2.3481   -3.4406    5.4390 C   0  0  0  0  0  0  0  0  0  0  0  0
    1.4151   -2.3033    4.9692 C   0  0  1  0  0  0  0  0  0  0  0  0
    0.5965   -1.7996    6.1835 C   0  0  0  0  0  0  0  0  0  0  0  0
    0.2698   -0.2984    6.1722 C   0  0  0  0  0  0  0  0  0  0  0  0
    0.0612    0.2352    4.7462 C   0  0  2  0  0  0  0  0  0  0  0  0
    1.3765    0.1053    3.9285 C   0  0  2  0  0  0  0  0  0  0  0  0
    1.0514    0.3630    2.4450 C   0  0  0  0  0  0  0  0  0  0  0  0
    0.1553    1.5623    2.2444 C   0  0  0  0  0  0  0  0  0  0  0  0
   -0.5354    2.1815    3.2240 C   0  0  0  0  0  0  0  0  0  0  0  0
   -1.3351    3.4286    2.9174 C   0  0  0  0  0  0  0  0  0  0  0  0
   -2.7274    3.3329    3.4820 C   0  0  0  0  0  0  0  0  0  0  0  0
   -3.7121    3.6324    2.8139 O   0  0  0  0  0  0  0  0  0  0  0  0
   -2.8197    2.9605    4.9472 C   0  0  0  0  0  0  0  0  0  0  0  0
   -2.0479    1.6342    5.1710 C   0  0  0  0  0  0  0  0  0  0  0  0
   -0.5625    1.6765    4.6774 C   0  0  1  0  0  0  0  0  0  0  0  0
    0.2298    2.6840    5.5379 C   0  0  0  0  0  0  0  0  0  0  0  0
    2.2145   -1.1817    4.2643 C   0  0  2  0  0  0  0  0  0  0  0  0
    3.1816   -1.7223    3.1592 C   0  0  2  0  0  0  0  0  0  0  0  0
    2.5733   -2.3040    1.8685 C   0  0  0  0  0  0  0  0  0  0  0  0
    3.6325   -3.2180    1.2991 C   0  0  0  0  0  0  0  0  0  0  0  0
    3.5675   -3.7020    0.1278 N   0  0  0  0  0  0  0  0  0  0  0  0
    4.6524   -4.4702   -0.4518 C   0  0  0  0  0  0  0  0  0  0  0  0
    5.5906   -3.5931   -1.2921 C   0  0  0  0  0  0  0  0  0  0  0  0
    4.8944   -2.7829   -2.2709 N   0  0  0  0  0  0  0  0  0  0  0  0
    4.4716   -1.4704   -2.0987 C   0  0  0  0  0  0  0  0  0  0  0  0
    3.8099   -1.1273   -3.2494 C   0  0  0  0  0  0  0  0  0  0  0  0
    3.8580   -2.1691   -4.1520 N   0  0  0  0  0  0  0  0  0  0  0  0
    4.5030   -3.1286   -3.5061 C   0  0  0  0  0  0  0  0  0  0  0  0
    4.7070   -3.4209    2.3388 C   0  0  0  0  0  0  0  0  0  0  0  0
    5.8913   -3.1992    4.8471 H   0  0  0  0  0  0  0  0  0  0  0  0
    4.8280   -1.9729    5.5171 H   0  0  0  0  0  0  0  0  0  0  0  0
    5.8151   -1.5978    4.1083 H   0  0  0  0  0  0  0  0  0  0  0  0
    2.6168   -4.4800    3.5999 H   0  0  0  0  0  0  0  0  0  0  0  0
    3.9028   -4.7590    4.7289 H   0  0  0  0  0  0  0  0  0  0  0  0
    1.7482   -4.2621    5.8271 H   0  0  0  0  0  0  0  0  0  0  0  0
    2.9693   -3.1058    6.2726 H   0  0  0  0  0  0  0  0  0  0  0  0
    0.7116   -2.7141    4.2386 H   0  0  0  0  0  0  0  0  0  0  0  0
   -0.3323   -2.3551    6.1970 H   0  0  0  0  0  0  0  0  0  0  0  0
    1.0967   -2.0438    7.1259 H   0  0  0  0  0  0  0  0  0  0  0  0
   -0.6046   -0.1183    6.8014 H   0  0  0  0  0  0  0  0  0  0  0  0
    1.1012    0.2361    6.6250 H   0  0  0  0  0  0  0  0  0  0  0  0
   -0.6540   -0.4309    4.2686 H   0  0  0  0  0  0  0  0  0  0  0  0
    2.0202    0.9336    4.2190 H   0  0  0  0  0  0  0  0  0  0  0  0
    1.9728    0.5691    1.8964 H   0  0  0  0  0  0  0  0  0  0  0  0
    0.5533   -0.4876    1.9812 H   0  0  0  0  0  0  0  0  0  0  0  0
    0.1156    1.9489    1.2350 H   0  0  0  0  0  0  0  0  0  0  0  0
   -0.8428    4.3157    3.3138 H   0  0  0  0  0  0  0  0  0  0  0  0
   -1.4501    3.5405    1.8486 H   0  0  0  0  0  0  0  0  0  0  0  0
   -2.3921    3.7510    5.5553 H   0  0  0  0  0  0  0  0  0  0  0  0
   -3.8733    2.9569    5.2309 H   0  0  0  0  0  0  0  0  0  0  0  0
   -2.0948    1.3801    6.2297 H   0  0  0  0  0  0  0  0  0  0  0  0
   -2.5598    0.8317    4.6405 H   0  0  0  0  0  0  0  0  0  0  0  0
    0.2074    2.4214    6.5958 H   0  0  0  0  0  0  0  0  0  0  0  0
   -0.1703    3.6949    5.4542 H   0  0  0  0  0  0  0  0  0  0  0  0
    1.2717    2.7467    5.2250 H   0  0  0  0  0  0  0  0  0  0  0  0
    2.8854   -0.8275    5.0455 H   0  0  0  0  0  0  0  0  0  0  0  0
    3.8226   -0.8952    2.8581 H   0  0  0  0  0  0  0  0  0  0  0  0
    1.6787   -2.8930    2.0620 H   0  0  0  0  0  0  0  0  0  0  0  0
    2.3371   -1.5517    1.1191 H   0  0  0  0  0  0  0  0  0  0  0  0
    5.2314   -5.0245    0.2886 H   0  0  0  0  0  0  0  0  0  0  0  0
    4.2278   -5.2306   -1.1021 H   0  0  0  0  0  0  0  0  0  0  0  0
    6.2146   -2.9532   -0.6704 H   0  0  0  0  0  0  0  0  0  0  0  0
    6.2394   -4.2438   -1.8498 H   0  0  0  0  0  0  0  0  0  0  0  0
    4.6330   -0.9361   -1.1663 H   0  0  0  0  0  0  0  0  0  0  0  0
    3.2943   -0.1816   -3.4695 H   0  0  0  0  0  0  0  0  0  0  0  0
    4.6936   -4.1059   -3.9318 H   0  0  0  0  0  0  0  0  0  0  0  0
    5.5923   -2.8627    2.0355 H   0  0  0  0  0  0  0  0  0  0  0  0
    4.9803   -4.4727    2.4302 H   0  0  0  0  0  0  0  0  0  0  0  0
  2  1  1  1
  1 33  1  0
  1 34  1  0
  1 35  1  0
  2 21  1  0
  2 32  1  0
  2  3  1  0
  3  4  1  0
  3 36  1  0
  3 37  1  0
  4  5  1  0
  4 38  1  0
  4 39  1  0
  5 20  1  0
  5  6  1  0
  5 40  1  6
  6  7  1  0
  6 41  1  0
  6 42  1  0
  7  8  1  0
  7 43  1  0
  7 44  1  0
  8 18  1  0
  8  9  1  0
  8 45  1  6
  9 10  1  0
  9 20  1  0
  9 46  1  1
 10 11  1  0
 10 47  1  0
 10 48  1  0
 11 12  2  0
 11 49  1  0
 12 18  1  0
 12 13  1  0
 13 14  1  0
 13 50  1  0
 13 51  1  0
 14 15  2  0
 14 16  1  0
 16 17  1  0
 16 52  1  0
 16 53  1  0
 17 18  1  0
 17 54  1  0
 17 55  1  0
 18 19  1  1
 19 56  1  0
 19 57  1  0
 19 58  1  0
 20 21  1  0
 20 59  1  1
 21 22  1  0
 21 60  1  6
 22 23  1  0
 22 61  1  0
 22 62  1  0
 23 24  2  3
 23 32  1  0
 24 25  1  0
 25 26  1  0
 25 63  1  0
 25 64  1  0
 26 27  1  0
 26 65  1  0
 26 66  1  0
 27 31  1  0
 27 28  1  0
 28 29  2  0
 28 67  1  0
 29 30  1  0
 29 68  1  0
 30 31  2  0
 31 69  1  0
 32 70  1  0
 32 71  1  0
M  END
>  <i_m_ct_stereo_status>  (179) 
1

>  <s_m_source_file>  (179) 
/var/tmp/pbs.5076255.sched01/tmpio9qf6gp/4214r_5_m5.sdf

>  <i_m_source_file_index>  (179) 
30

>  <i_lp_mmshare_version>  (179) 
48012

>  <i_f3d_flags>  (179) 
0

>  <s_epik_input>  (179) 
W2NIXTFuW2NIXVtjSF1uMVtDSDJdW0NIMl0vTj1DKFtDSDJdMilcW0NIMl1bQ0BIXShbQ0BdMjNbQ0gzXSlbQ0BASF00W0NAQEhdKFtDSDJdW0NIMl0zKVtDSDJdW0NIMl1bQ0BASF01W0NAQEhdNFtDSDJdW0NIXT1DNltDQEBdNShbQ0gzXSlbQ0gyXVtDSDJdQyg9TylbQ0gyXTY=

>  <s_epik_cmdline>  (179) 
J2VwaWtfcHl0aG9uJywgJy1waHQnLCAnMi4wJywgJy1waCcsICc3LjAnLCAnLXRuJywgJzgnLCAnLW1hJywgJzIwMCcsICctaW1hZScsICc8aW5maWxlLm1hZT4nLCAnLW9tYWUnLCAnPG91dGZpbGUubWFlPic=

>  <r_lp_tautomer_probability>  (179) 
0.499971

>  <r_epik_Ionization_Penalty>  (179) 
2.24135

>  <r_epik_Ionization_Penalty_Charging>  (179) 
0.602827

>  <r_epik_Ionization_Penalty_Neutral>  (179) 
1.63852

>  <r_epik_State_Penalty>  (179) 
2.58913

>  <r_epik_Charging_Adjusted_Penalty>  (179) 
3.19196

>  <i_epik_Tot_Q>  (179) 
0

>  <i_epik_Tot_abs_Q>  (179) 
0

>  <s_epik_Chemistry_Notes>  (179) 
This compound has an imine and may undergo hydrolysis.

>  <s_lp_Force_Field>  (179) 
OPLS3e

>  <r_lp_Energy>  (179) 
54.4602

>  <b_lp_Chiralities_Consistent>  (179) 
1

>  <s_lp_Variant>  (179) 
46:0-8

>  <s_i_glide_gridfile>  (179) 
pfpi4k_grid

>  <i_i_glide_lignum>  (179) 
30

>  <i_i_glide_rotatable_bonds>  (179) 
3

>  <r_i_docking_score>  (179) 
-3.1329

>  <r_i_glide_ligand_efficiency>  (179) 
-0.0979032

>  <r_i_glide_ligand_efficiency_sa>  (179) 
-0.310823

>  <r_i_glide_ligand_efficiency_ln>  (179) 
-0.701542

>  <r_i_glide_gscore>  (179) 
-3.1329

>  <r_i_glide_lipo>  (179) 
-0.257264

>  <r_i_glide_hbond>  (179) 
-0.32

>  <r_i_glide_metal>  (179) 
-0

>  <r_i_glide_rewards>  (179) 
-0.848519

>  <r_i_glide_evdw>  (179) 
-28.7487

>  <r_i_glide_ecoul>  (179) 
-2.84917

>  <r_i_glide_erotb>  (179) 
0.211757

>  <r_i_glide_esite>  (179) 
-0.0540662

>  <r_i_glide_emodel>  (179) 
-37.1936

>  <r_i_glide_energy>  (179) 
-31.5979

>  <r_i_glide_einternal>  (179) 
2.07259

>  <r_i_glide_intrahb_reward>  (179) 
-0

>  <i_i_glide_confnum>  (179) 
3

>  <i_i_glide_posenum>  (179) 
35

>  <r_i_glide_eff_state_penalty>  (179) 
0

>  <ligand_id>  (179) 
46

>  <original_smiles>  (179) 
CC12CCC3CCC4C(CC=C5CC(=O)CCC54C)C3C1CC(=NCCn1ccnc1)C2

>  <smiles>  (179) 
[H]C1=C2C([H])([H])C(=O)C([H])([H])C([H])([H])C2(C([H])([H])[H])C2([H])C([H])([H])C([H])([H])C3([H])C([H])([H])C([H])([H])C4(C([H])([H])[H])C([H])([H])C(=NC([H])([H])C([H])([H])n5c([H])nc([H])c5[H])C([H])([H])C4([H])C3([H])C2([H])C1([H])[H]

$$$$
46:7:2
     RDKit          3D

 71 76  0  0  1  0  0  0  0  0999 V2000
    4.3367   -3.7709    4.8022 C   0  0  0  0  0  0  0  0  0  0  0  0
    3.7824   -3.0313    3.5663 C   0  0  1  0  0  0  0  0  0  0  0  0
    2.4234   -3.6370    3.1192 C   0  0  0  0  0  0  0  0  0  0  0  0
    1.2739   -3.2957    4.0748 C   0  0  0  0  0  0  0  0  0  0  0  0
    1.1118   -1.7753    4.3034 C   0  0  1  0  0  0  0  0  0  0  0  0
   -0.0375   -1.5405    5.3162 C   0  0  0  0  0  0  0  0  0  0  0  0
    0.1502   -0.3316    6.2463 C   0  0  0  0  0  0  0  0  0  0  0  0
    0.8888    0.8251    5.5515 C   0  0  2  0  0  0  0  0  0  0  0  0
    2.3306    0.3873    5.1744 C   0  0  2  0  0  0  0  0  0  0  0  0
    2.9279    1.4491    4.2310 C   0  0  0  0  0  0  0  0  0  0  0  0
    2.6699    2.8686    4.6976 C   0  0  0  0  0  0  0  0  0  0  0  0
    1.7768    3.2194    5.6418 C   0  0  0  0  0  0  0  0  0  0  0  0
    1.6552    4.6778    6.0839 C   0  0  0  0  0  0  0  0  0  0  0  0
    0.1990    5.1227    6.1636 C   0  0  0  0  0  0  0  0  0  0  0  0
   -0.1840    6.2106    5.7327 O   0  0  0  0  0  0  0  0  0  0  0  0
   -0.7587    4.1759    6.8697 C   0  0  0  0  0  0  0  0  0  0  0  0
   -0.6082    2.7471    6.3189 C   0  0  0  0  0  0  0  0  0  0  0  0
    0.8505    2.1945    6.3276 C   0  0  1  0  0  0  0  0  0  0  0  0
    1.3246    2.0249    7.7924 C   0  0  0  0  0  0  0  0  0  0  0  0
    2.4487   -1.1185    4.7309 C   0  0  2  0  0  0  0  0  0  0  0  0
    3.6388   -1.5034    3.7901 C   0  0  2  0  0  0  0  0  0  0  0  0
    3.6681   -0.9392    2.3475 C   0  0  0  0  0  0  0  0  0  0  0  0
    4.5718   -1.8691    1.5769 C   0  0  0  0  0  0  0  0  0  0  0  0
    5.0606   -1.5952    0.4308 N   0  0  0  0  0  0  0  0  0  0  0  0
    5.9243   -2.5433   -0.2533 C   0  0  0  0  0  0  0  0  0  0  0  0
    5.1282   -3.6332   -1.0070 C   0  0  0  0  0  0  0  0  0  0  0  0
    4.4304   -3.1370   -2.1734 N   0  0  0  0  0  0  0  0  0  0  0  0
    3.3541   -2.2621   -2.2009 C   0  0  0  0  0  0  0  0  0  0  0  0
    3.0026   -2.1038   -3.5196 C   0  0  0  0  0  0  0  0  0  0  0  0
    3.8347   -2.8842   -4.3170 N   0  0  0  0  0  0  0  0  0  0  0  0
    4.6482   -3.4654   -3.4535 C   0  0  0  0  0  0  0  0  0  0  0  0
    4.7909   -3.1179    2.4044 C   0  0  0  0  0  0  0  0  0  0  0  0
    4.5073   -4.8275    4.5891 H   0  0  0  0  0  0  0  0  0  0  0  0
    3.6572   -3.7185    5.6515 H   0  0  0  0  0  0  0  0  0  0  0  0
    5.2879   -3.3457    5.1251 H   0  0  0  0  0  0  0  0  0  0  0  0
    2.1482   -3.2725    2.1286 H   0  0  0  0  0  0  0  0  0  0  0  0
    2.5074   -4.7203    3.0142 H   0  0  0  0  0  0  0  0  0  0  0  0
    0.3450   -3.6995    3.6747 H   0  0  0  0  0  0  0  0  0  0  0  0
    1.4309   -3.8109    5.0227 H   0  0  0  0  0  0  0  0  0  0  0  0
    0.8205   -1.3199    3.3578 H   0  0  0  0  0  0  0  0  0  0  0  0
   -0.9607   -1.4118    4.7479 H   0  0  0  0  0  0  0  0  0  0  0  0
   -0.1991   -2.4214    5.9371 H   0  0  0  0  0  0  0  0  0  0  0  0
   -0.8243   -0.0194    6.6142 H   0  0  0  0  0  0  0  0  0  0  0  0
    0.7271   -0.6472    7.1183 H   0  0  0  0  0  0  0  0  0  0  0  0
    0.3667    0.9929    4.6067 H   0  0  0  0  0  0  0  0  0  0  0  0
    2.9336    0.4485    6.0804 H   0  0  0  0  0  0  0  0  0  0  0  0
    4.0109    1.3220    4.1772 H   0  0  0  0  0  0  0  0  0  0  0  0
    2.5183    1.3628    3.2243 H   0  0  0  0  0  0  0  0  0  0  0  0
    3.2820    3.6288    4.2278 H   0  0  0  0  0  0  0  0  0  0  0  0
    2.1040    4.7923    7.0679 H   0  0  0  0  0  0  0  0  0  0  0  0
    2.1983    5.3295    5.3991 H   0  0  0  0  0  0  0  0  0  0  0  0
   -0.5476    4.2059    7.9380 H   0  0  0  0  0  0  0  0  0  0  0  0
   -1.7809    4.5277    6.7439 H   0  0  0  0  0  0  0  0  0  0  0  0
   -1.2735    2.1032    6.8927 H   0  0  0  0  0  0  0  0  0  0  0  0
   -0.9959    2.7415    5.2995 H   0  0  0  0  0  0  0  0  0  0  0  0
    0.6748    1.3565    8.3577 H   0  0  0  0  0  0  0  0  0  0  0  0
    1.3418    2.9745    8.3292 H   0  0  0  0  0  0  0  0  0  0  0  0
    2.3380    1.6264    7.8441 H   0  0  0  0  0  0  0  0  0  0  0  0
    2.6845   -1.6264    5.6670 H   0  0  0  0  0  0  0  0  0  0  0  0
    4.5553   -1.1626    4.2723 H   0  0  0  0  0  0  0  0  0  0  0  0
    2.6800   -0.9396    1.8854 H   0  0  0  0  0  0  0  0  0  0  0  0
    4.0734    0.0678    2.2849 H   0  0  0  0  0  0  0  0  0  0  0  0
    6.5388   -1.9863   -0.9650 H   0  0  0  0  0  0  0  0  0  0  0  0
    6.6373   -3.0024    0.4364 H   0  0  0  0  0  0  0  0  0  0  0  0
    5.8109   -4.4166   -1.3262 H   0  0  0  0  0  0  0  0  0  0  0  0
    4.3996   -4.1214   -0.3641 H   0  0  0  0  0  0  0  0  0  0  0  0
    2.9277   -1.8332   -1.3063 H   0  0  0  0  0  0  0  0  0  0  0  0
    2.2182   -1.5054   -3.9563 H   0  0  0  0  0  0  0  0  0  0  0  0
    5.4176   -4.1575   -3.7593 H   0  0  0  0  0  0  0  0  0  0  0  0
    5.8155   -3.0946    2.7724 H   0  0  0  0  0  0  0  0  0  0  0  0
    4.6694   -4.0300    1.8233 H   0  0  0  0  0  0  0  0  0  0  0  0
  2  1  1  1
  1 33  1  0
  1 34  1  0
  1 35  1  0
  2 21  1  0
  2 32  1  0
  2  3  1  0
  3  4  1  0
  3 36  1  0
  3 37  1  0
  4  5  1  0
  4 38  1  0
  4 39  1  0
  5 20  1  0
  5  6  1  0
  5 40  1  6
  6  7  1  0
  6 41  1  0
  6 42  1  0
  7  8  1  0
  7 43  1  0
  7 44  1  0
  8 18  1  0
  8  9  1  0
  8 45  1  6
  9 10  1  0
  9 20  1  0
  9 46  1  1
 10 11  1  0
 10 47  1  0
 10 48  1  0
 11 12  2  0
 11 49  1  0
 12 18  1  0
 12 13  1  0
 13 14  1  0
 13 50  1  0
 13 51  1  0
 14 15  2  0
 14 16  1  0
 16 17  1  0
 16 52  1  0
 16 53  1  0
 17 18  1  0
 17 54  1  0
 17 55  1  0
 18 19  1  1
 19 56  1  0
 19 57  1  0
 19 58  1  0
 20 21  1  0
 20 59  1  1
 21 22  1  0
 21 60  1  1
 22 23  1  0
 22 61  1  0
 22 62  1  0
 23 24  2  3
 23 32  1  0
 24 25  1  0
 25 26  1  0
 25 63  1  0
 25 64  1  0
 26 27  1  0
 26 65  1  0
 26 66  1  0
 27 31  1  0
 27 28  1  0
 28 29  2  0
 28 67  1  0
 29 30  1  0
 29 68  1  0
 30 31  2  0
 31 69  1  0
 32 70  1  0
 32 71  1  0
M  END
>  <i_m_ct_stereo_status>  (180) 
1

>  <s_m_source_file>  (180) 
/var/tmp/pbs.5076255.sched01/tmpio9qf6gp/4214r_5_m5.sdf

>  <i_m_source_file_index>  (180) 
30

>  <i_lp_mmshare_version>  (180) 
48012

>  <i_f3d_flags>  (180) 
0

>  <s_epik_input>  (180) 
W2NIXTFuW2NIXVtjSF1uMVtDSDJdW0NIMl0vTj1DKFtDSDJdMilcW0NIMl1bQ0BIXShbQ0BdMjNbQ0gzXSlbQ0BASF00W0NAQEhdKFtDSDJdW0NIMl0zKVtDSDJdW0NIMl1bQ0BASF01W0NAQEhdNFtDSDJdW0NIXT1DNltDQEBdNShbQ0gzXSlbQ0gyXVtDSDJdQyg9TylbQ0gyXTY=

>  <s_epik_cmdline>  (180) 
J2VwaWtfcHl0aG9uJywgJy1waHQnLCAnMi4wJywgJy1waCcsICc3LjAnLCAnLXRuJywgJzgnLCAnLW1hJywgJzIwMCcsICctaW1hZScsICc8aW5maWxlLm1hZT4nLCAnLW9tYWUnLCAnPG91dGZpbGUubWFlPic=

>  <r_lp_tautomer_probability>  (180) 
0.499971

>  <r_epik_Ionization_Penalty>  (180) 
2.24135

>  <r_epik_Ionization_Penalty_Charging>  (180) 
0.602827

>  <r_epik_Ionization_Penalty_Neutral>  (180) 
1.63852

>  <r_epik_State_Penalty>  (180) 
2.58913

>  <r_epik_Charging_Adjusted_Penalty>  (180) 
3.19196

>  <i_epik_Tot_Q>  (180) 
0

>  <i_epik_Tot_abs_Q>  (180) 
0

>  <s_epik_Chemistry_Notes>  (180) 
This compound has an imine and may undergo hydrolysis.

>  <s_lp_Force_Field>  (180) 
OPLS3e

>  <r_lp_Energy>  (180) 
54.4602

>  <b_lp_Chiralities_Consistent>  (180) 
1

>  <s_lp_Variant>  (180) 
46:0-8

>  <s_i_glide_gridfile>  (180) 
pfpi4k_grid

>  <i_i_glide_lignum>  (180) 
30

>  <i_i_glide_rotatable_bonds>  (180) 
3

>  <r_i_docking_score>  (180) 
-3.06683

>  <r_i_glide_ligand_efficiency>  (180) 
-0.0958384

>  <r_i_glide_ligand_efficiency_sa>  (180) 
-0.304268

>  <r_i_glide_ligand_efficiency_ln>  (180) 
-0.686747

>  <r_i_glide_gscore>  (180) 
-3.06683

>  <r_i_glide_lipo>  (180) 
-0.332169

>  <r_i_glide_hbond>  (180) 
-0.273162

>  <r_i_glide_metal>  (180) 
-0

>  <r_i_glide_rewards>  (180) 
-0.738877

>  <r_i_glide_evdw>  (180) 
-25.3449

>  <r_i_glide_ecoul>  (180) 
-4.37501

>  <r_i_glide_erotb>  (180) 
0.211757

>  <r_i_glide_esite>  (180) 
-0.0108826

>  <r_i_glide_emodel>  (180) 
-35.4664

>  <r_i_glide_energy>  (180) 
-29.7199

>  <r_i_glide_einternal>  (180) 
1.85393

>  <r_i_glide_intrahb_reward>  (180) 
-0

>  <i_i_glide_confnum>  (180) 
4

>  <i_i_glide_posenum>  (180) 
26

>  <r_i_glide_eff_state_penalty>  (180) 
0

>  <ligand_id>  (180) 
46

>  <original_smiles>  (180) 
CC12CCC3CCC4C(CC=C5CC(=O)CCC54C)C3C1CC(=NCCn1ccnc1)C2

>  <smiles>  (180) 
[H]C1=C2C([H])([H])C(=O)C([H])([H])C([H])([H])C2(C([H])([H])[H])C2([H])C([H])([H])C([H])([H])C3([H])C([H])([H])C([H])([H])C4(C([H])([H])[H])C([H])([H])C(=NC([H])([H])C([H])([H])n5c([H])nc([H])c5[H])C([H])([H])C4([H])C3([H])C2([H])C1([H])[H]

$$$$
47:0:0
     RDKit          3D

 35 38  0  0  1  0  0  0  0  0999 V2000
    3.8561   -9.2370    2.0241 N   0  0  0  0  0  0  0  0  0  0  0  0
    3.1020   -8.1919    1.6846 C   0  0  0  0  0  0  0  0  0  0  0  0
    1.7585   -8.2839    1.7050 N   0  0  0  0  0  0  0  0  0  0  0  0
    1.0234   -7.2223    1.3572 C   0  0  0  0  0  0  0  0  0  0  0  0
    1.4411   -6.0016    0.9705 N   0  0  0  0  0  0  0  0  0  0  0  0
    2.8028   -5.9098    0.9707 C   0  0  0  0  0  0  0  0  0  0  0  0
    3.6881   -6.9676    1.3118 C   0  0  0  0  0  0  0  0  0  0  0  0
    5.0078   -6.5527    1.2310 N   0  0  0  0  0  0  0  0  0  0  0  0
    4.9092   -5.2985    0.9187 C   0  0  0  0  0  0  0  0  0  0  0  0
    3.6219   -4.8280    0.6734 N   0  0  0  0  0  0  0  0  0  0  0  0
    3.2129   -3.4892    0.2450 C   0  0  2  0  0  0  0  0  0  0  0  0
    3.7990   -3.1191   -1.1322 C   0  0  1  0  0  0  0  0  0  0  0  0
    3.0209   -2.1111   -1.7492 O   0  0  0  0  0  0  0  0  0  0  0  0
    5.2159   -2.5967   -0.8126 C   0  0  1  0  0  0  0  0  0  0  0  0
    5.7678   -1.7702   -1.8183 O   0  0  0  0  0  0  0  0  0  0  0  0
    5.0740   -1.9120    0.5706 C   0  0  1  0  0  0  0  0  0  0  0  0
    4.8490   -0.4080    0.5052 C   0  0  0  0  0  0  0  0  0  0  0  0
    3.7125   -0.1549    1.4791 C   0  0  0  0  0  0  0  0  0  0  0  0
    2.9073   -1.3104    1.3086 O   0  0  0  0  0  0  0  0  0  0  0  0
    3.7715   -2.4329    1.2061 C   0  0  1  0  0  0  0  0  0  0  0  0
    3.4196  -10.1303    2.2262 H   0  0  0  0  0  0  0  0  0  0  0  0
    4.8668   -9.1517    1.9805 H   0  0  0  0  0  0  0  0  0  0  0  0
   -0.0470   -7.3960    1.3771 H   0  0  0  0  0  0  0  0  0  0  0  0
    5.8138   -4.7041    0.8708 H   0  0  0  0  0  0  0  0  0  0  0  0
    2.1241   -3.4410    0.2287 H   0  0  0  0  0  0  0  0  0  0  0  0
    3.8249   -3.9766   -1.8002 H   0  0  0  0  0  0  0  0  0  0  0  0
    2.3360   -1.7805   -1.1538 H   0  0  0  0  0  0  0  0  0  0  0  0
    5.9164   -3.4337   -0.7664 H   0  0  0  0  0  0  0  0  0  0  0  0
    5.0848   -1.1737   -2.0864 H   0  0  0  0  0  0  0  0  0  0  0  0
    5.9176   -2.1363    1.2234 H   0  0  0  0  0  0  0  0  0  0  0  0
    5.7519    0.1626    0.7226 H   0  0  0  0  0  0  0  0  0  0  0  0
    4.4954   -0.1109   -0.4819 H   0  0  0  0  0  0  0  0  0  0  0  0
    4.0823   -0.0984    2.5061 H   0  0  0  0  0  0  0  0  0  0  0  0
    3.1678    0.7651    1.2472 H   0  0  0  0  0  0  0  0  0  0  0  0
    3.9144   -2.8166    2.2177 H   0  0  0  0  0  0  0  0  0  0  0  0
  1  2  1  0
  1 22  1  0
  1 21  1  0
  2  3  2  0
  2  7  1  0
  3  4  1  0
  4 23  1  0
  4  5  2  0
  5  6  1  0
  6 10  1  0
  6  7  2  0
  7  8  1  0
  8  9  2  0
  9 24  1  0
  9 10  1  0
 10 11  1  0
 11 20  1  0
 11 12  1  0
 11 25  1  6
 12 13  1  0
 12 14  1  0
 12 26  1  6
 13 27  1  0
 14 15  1  0
 14 16  1  0
 14 28  1  1
 15 29  1  0
 16 20  1  0
 16 17  1  0
 16 30  1  1
 17 18  1  0
 17 31  1  0
 17 32  1  0
 18 19  1  0
 18 33  1  0
 18 34  1  0
 19 20  1  0
 20 35  1  1
M  END
>  <i_m_ct_stereo_status>  (181) 
1

>  <s_m_source_file>  (181) 
/var/tmp/pbs.5076255.sched01/tmpio9qf6gp/4214r_5_m5.sdf

>  <i_m_source_file_index>  (181) 
31

>  <i_lp_mmshare_version>  (181) 
48012

>  <i_f3d_flags>  (181) 
0

>  <s_epik_input>  (181) 
bjFbY0hdW25IXS9jKD1OXFtIXSljKGMxMiluW2NIXW4yW0NASF0oW0NAQEhdKFtPSF0pW0NASF0zW09IXSlbQ0BASF0oW0NAQEhdMzQpT1tDSDJdW0NIMl00

>  <s_epik_cmdline>  (181) 
J2VwaWtfcHl0aG9uJywgJy1waHQnLCAnMi4wJywgJy1waCcsICc3LjAnLCAnLXRuJywgJzgnLCAnLW1hJywgJzIwMCcsICctaW1hZScsICc8aW5maWxlLm1hZT4nLCAnLW9tYWUnLCAnPG91dGZpbGUubWFlPic=

>  <r_lp_tautomer_probability>  (181) 
1

>  <r_epik_Ionization_Penalty>  (181) 
0.000991789

>  <r_epik_Ionization_Penalty_Charging>  (181) 
0

>  <r_epik_Ionization_Penalty_Neutral>  (181) 
0.000991789

>  <r_epik_State_Penalty>  (181) 
-0

>  <r_epik_Charging_Adjusted_Penalty>  (181) 
0

>  <i_epik_Tot_Q>  (181) 
0

>  <i_epik_Tot_abs_Q>  (181) 
0

>  <s_lp_Force_Field>  (181) 
OPLS3e

>  <r_lp_Energy>  (181) 
24.3804

>  <b_lp_Chiralities_Consistent>  (181) 
1

>  <s_lp_Variant>  (181) 
47:0-1

>  <s_i_glide_gridfile>  (181) 
pfpi4k_grid

>  <i_i_glide_lignum>  (181) 
31

>  <i_i_glide_rotatable_bonds>  (181) 
3

>  <r_i_docking_score>  (181) 
-4.07887

>  <r_i_glide_ligand_efficiency>  (181) 
-0.203944

>  <r_i_glide_ligand_efficiency_sa>  (181) 
-0.553588

>  <r_i_glide_ligand_efficiency_ln>  (181) 
-1.02081

>  <r_i_glide_gscore>  (181) 
-4.07887

>  <r_i_glide_lipo>  (181) 
-0.30488

>  <r_i_glide_hbond>  (181) 
-0.154931

>  <r_i_glide_metal>  (181) 
-0

>  <r_i_glide_rewards>  (181) 
-1.60324

>  <r_i_glide_evdw>  (181) 
-24.5767

>  <r_i_glide_ecoul>  (181) 
-6.02413

>  <r_i_glide_erotb>  (181) 
0.234199

>  <r_i_glide_esite>  (181) 
-0.117564

>  <r_i_glide_emodel>  (181) 
-36.5457

>  <r_i_glide_energy>  (181) 
-30.6008

>  <r_i_glide_einternal>  (181) 
2.77994

>  <r_i_glide_intrahb_reward>  (181) 
-0

>  <i_i_glide_confnum>  (181) 
1

>  <i_i_glide_posenum>  (181) 
21

>  <r_i_glide_eff_state_penalty>  (181) 
0

>  <ligand_id>  (181) 
47

>  <original_smiles>  (181) 
N=c1[nH]cnc2c1ncn2C1C(O)C(O)C2CCOC21

>  <smiles>  (181) 
[H]OC1([H])C([H])(O[H])C2([H])C([H])([H])C([H])([H])OC2([H])C1([H])n1c([H])nc2c(N([H])[H])nc([H])nc21

$$$$
47:0:1
     RDKit          3D

 35 38  0  0  1  0  0  0  0  0999 V2000
    1.9833   -7.0893    3.3532 N   0  0  0  0  0  0  0  0  0  0  0  0
    2.8135   -6.9473    2.3128 C   0  0  0  0  0  0  0  0  0  0  0  0
    3.5851   -7.9923    1.9391 N   0  0  0  0  0  0  0  0  0  0  0  0
    4.4129   -7.8483    0.8982 C   0  0  0  0  0  0  0  0  0  0  0  0
    4.6139   -6.7669    0.1308 N   0  0  0  0  0  0  0  0  0  0  0  0
    3.8207   -5.7291    0.5132 C   0  0  0  0  0  0  0  0  0  0  0  0
    2.9005   -5.7369    1.5934 C   0  0  0  0  0  0  0  0  0  0  0  0
    2.2682   -4.5190    1.7215 N   0  0  0  0  0  0  0  0  0  0  0  0
    2.7768   -3.8124    0.7520 C   0  0  0  0  0  0  0  0  0  0  0  0
    3.7183   -4.4579   -0.0328 N   0  0  0  0  0  0  0  0  0  0  0  0
    4.4758   -3.9074   -1.1635 C   0  0  2  0  0  0  0  0  0  0  0  0
    5.6625   -3.0652   -0.6656 C   0  0  1  0  0  0  0  0  0  0  0  0
    6.6356   -2.9253   -1.6895 O   0  0  0  0  0  0  0  0  0  0  0  0
    5.0045   -1.7161   -0.3587 C   0  0  1  0  0  0  0  0  0  0  0  0
    5.9170   -0.6565   -0.2242 O   0  0  0  0  0  0  0  0  0  0  0  0
    3.9084   -1.5233   -1.4298 C   0  0  1  0  0  0  0  0  0  0  0  0
    4.3168   -0.7526   -2.6741 C   0  0  0  0  0  0  0  0  0  0  0  0
    3.7550   -1.5910   -3.8112 C   0  0  0  0  0  0  0  0  0  0  0  0
    3.9593   -2.9138   -3.3514 O   0  0  0  0  0  0  0  0  0  0  0  0
    3.5996   -2.9301   -1.9743 C   0  0  1  0  0  0  0  0  0  0  0  0
    1.9553   -7.9687    3.8469 H   0  0  0  0  0  0  0  0  0  0  0  0
    1.4332   -6.2933    3.6402 H   0  0  0  0  0  0  0  0  0  0  0  0
    4.9938   -8.7245    0.6462 H   0  0  0  0  0  0  0  0  0  0  0  0
    2.4511   -2.7892    0.5968 H   0  0  0  0  0  0  0  0  0  0  0  0
    4.8140   -4.7329   -1.7947 H   0  0  0  0  0  0  0  0  0  0  0  0
    6.1407   -3.4993    0.2132 H   0  0  0  0  0  0  0  0  0  0  0  0
    6.8420   -3.7809   -2.0403 H   0  0  0  0  0  0  0  0  0  0  0  0
    4.5326   -1.7705    0.6196 H   0  0  0  0  0  0  0  0  0  0  0  0
    5.4355    0.1607   -0.2826 H   0  0  0  0  0  0  0  0  0  0  0  0
    3.0238   -1.0640   -0.9917 H   0  0  0  0  0  0  0  0  0  0  0  0
    3.9474    0.2721   -2.6955 H   0  0  0  0  0  0  0  0  0  0  0  0
    5.4020   -0.7233   -2.7376 H   0  0  0  0  0  0  0  0  0  0  0  0
    2.6875   -1.4003   -3.9513 H   0  0  0  0  0  0  0  0  0  0  0  0
    4.2815   -1.4081   -4.7461 H   0  0  0  0  0  0  0  0  0  0  0  0
    2.5383   -3.1728   -1.9216 H   0  0  0  0  0  0  0  0  0  0  0  0
  1  2  1  0
  1 22  1  0
  1 21  1  0
  2  3  2  0
  2  7  1  0
  3  4  1  0
  4 23  1  0
  4  5  2  0
  5  6  1  0
  6 10  1  0
  6  7  2  0
  7  8  1  0
  8  9  2  0
  9 24  1  0
  9 10  1  0
 10 11  1  0
 11 20  1  0
 11 12  1  0
 11 25  1  6
 12 13  1  0
 12 14  1  0
 12 26  1  1
 13 27  1  0
 14 15  1  0
 14 16  1  0
 14 28  1  1
 15 29  1  0
 16 20  1  0
 16 17  1  0
 16 30  1  1
 17 18  1  0
 17 31  1  0
 17 32  1  0
 18 19  1  0
 18 33  1  0
 18 34  1  0
 19 20  1  0
 20 35  1  6
M  END
>  <i_m_ct_stereo_status>  (182) 
1

>  <s_m_source_file>  (182) 
/var/tmp/pbs.5076255.sched01/tmpio9qf6gp/4214r_5_m5.sdf

>  <i_m_source_file_index>  (182) 
31

>  <i_lp_mmshare_version>  (182) 
48012

>  <i_f3d_flags>  (182) 
0

>  <s_epik_input>  (182) 
bjFbY0hdW25IXS9jKD1OXFtIXSljKGMxMiluW2NIXW4yW0NASF0oW0NAQEhdKFtPSF0pW0NASF0zW09IXSlbQ0BASF0oW0NAQEhdMzQpT1tDSDJdW0NIMl00

>  <s_epik_cmdline>  (182) 
J2VwaWtfcHl0aG9uJywgJy1waHQnLCAnMi4wJywgJy1waCcsICc3LjAnLCAnLXRuJywgJzgnLCAnLW1hJywgJzIwMCcsICctaW1hZScsICc8aW5maWxlLm1hZT4nLCAnLW9tYWUnLCAnPG91dGZpbGUubWFlPic=

>  <r_lp_tautomer_probability>  (182) 
1

>  <r_epik_Ionization_Penalty>  (182) 
0.000991789

>  <r_epik_Ionization_Penalty_Charging>  (182) 
0

>  <r_epik_Ionization_Penalty_Neutral>  (182) 
0.000991789

>  <r_epik_State_Penalty>  (182) 
-0

>  <r_epik_Charging_Adjusted_Penalty>  (182) 
0

>  <i_epik_Tot_Q>  (182) 
0

>  <i_epik_Tot_abs_Q>  (182) 
0

>  <s_lp_Force_Field>  (182) 
OPLS3e

>  <r_lp_Energy>  (182) 
24.3804

>  <b_lp_Chiralities_Consistent>  (182) 
1

>  <s_lp_Variant>  (182) 
47:0-1

>  <s_i_glide_gridfile>  (182) 
pfpi4k_grid

>  <i_i_glide_lignum>  (182) 
31

>  <i_i_glide_rotatable_bonds>  (182) 
3

>  <r_i_docking_score>  (182) 
-3.6932

>  <r_i_glide_ligand_efficiency>  (182) 
-0.18466

>  <r_i_glide_ligand_efficiency_sa>  (182) 
-0.501245

>  <r_i_glide_ligand_efficiency_ln>  (182) 
-0.924287

>  <r_i_glide_gscore>  (182) 
-3.6932

>  <r_i_glide_lipo>  (182) 
-0.216614

>  <r_i_glide_hbond>  (182) 
0

>  <r_i_glide_metal>  (182) 
-0

>  <r_i_glide_rewards>  (182) 
-1.62081

>  <r_i_glide_evdw>  (182) 
-26.2528

>  <r_i_glide_ecoul>  (182) 
-4.90019

>  <r_i_glide_erotb>  (182) 
0.234199

>  <r_i_glide_esite>  (182) 
-0.0423057

>  <r_i_glide_emodel>  (182) 
-38.2127

>  <r_i_glide_energy>  (182) 
-31.153

>  <r_i_glide_einternal>  (182) 
0.83291

>  <r_i_glide_intrahb_reward>  (182) 
-0

>  <i_i_glide_confnum>  (182) 
1

>  <i_i_glide_posenum>  (182) 
1

>  <r_i_glide_eff_state_penalty>  (182) 
0

>  <ligand_id>  (182) 
47

>  <original_smiles>  (182) 
N=c1[nH]cnc2c1ncn2C1C(O)C(O)C2CCOC21

>  <smiles>  (182) 
[H]OC1([H])C([H])(O[H])C2([H])C([H])([H])C([H])([H])OC2([H])C1([H])n1c([H])nc2c(N([H])[H])nc([H])nc21

$$$$
47:0:2
     RDKit          3D

 35 38  0  0  1  0  0  0  0  0999 V2000
    0.6122  -10.8648    3.2151 N   0  0  0  0  0  0  0  0  0  0  0  0
    0.4465   -9.5587    2.9866 C   0  0  0  0  0  0  0  0  0  0  0  0
   -0.7966   -9.0274    3.0455 N   0  0  0  0  0  0  0  0  0  0  0  0
   -0.9628   -7.7181    2.8310 C   0  0  0  0  0  0  0  0  0  0  0  0
   -0.0386   -6.7888    2.5443 N   0  0  0  0  0  0  0  0  0  0  0  0
    1.2171   -7.3383    2.4918 C   0  0  0  0  0  0  0  0  0  0  0  0
    1.5337   -8.7076    2.6954 C   0  0  0  0  0  0  0  0  0  0  0  0
    2.8936   -8.9213    2.5588 N   0  0  0  0  0  0  0  0  0  0  0  0
    3.3674   -7.7382    2.2793 C   0  0  0  0  0  0  0  0  0  0  0  0
    2.4340   -6.7190    2.2485 N   0  0  0  0  0  0  0  0  0  0  0  0
    2.6722   -5.3123    1.9622 C   0  0  2  0  0  0  0  0  0  0  0  0
    2.9819   -5.0666    0.4835 C   0  0  1  0  0  0  0  0  0  0  0  0
    1.8129   -5.1237   -0.3218 O   0  0  0  0  0  0  0  0  0  0  0  0
    3.6890   -3.7019    0.4535 C   0  0  1  0  0  0  0  0  0  0  0  0
    2.7322   -2.6519    0.4436 O   0  0  0  0  0  0  0  0  0  0  0  0
    4.5038   -3.6949    1.7738 C   0  0  1  0  0  0  0  0  0  0  0  0
    4.5345   -2.4196    2.6235 C   0  0  0  0  0  0  0  0  0  0  0  0
    4.4019   -2.9590    4.0415 C   0  0  0  0  0  0  0  0  0  0  0  0
    3.5120   -4.0551    3.8945 O   0  0  0  0  0  0  0  0  0  0  0  0
    3.8798   -4.7374    2.7066 C   0  0  1  0  0  0  0  0  0  0  0  0
   -0.1935  -11.4153    3.4538 H   0  0  0  0  0  0  0  0  0  0  0  0
    1.5383  -11.2653    3.1639 H   0  0  0  0  0  0  0  0  0  0  0  0
   -1.9831   -7.3706    2.9122 H   0  0  0  0  0  0  0  0  0  0  0  0
    4.4216   -7.5897    2.0945 H   0  0  0  0  0  0  0  0  0  0  0  0
    1.7910   -4.7278    2.2410 H   0  0  0  0  0  0  0  0  0  0  0  0
    3.6654   -5.8328    0.1167 H   0  0  0  0  0  0  0  0  0  0  0  0
    2.1026   -5.1397   -1.2253 H   0  0  0  0  0  0  0  0  0  0  0  0
    4.3410   -3.5978   -0.4183 H   0  0  0  0  0  0  0  0  0  0  0  0
    2.3790   -2.5216   -0.4263 H   0  0  0  0  0  0  0  0  0  0  0  0
    5.5266   -4.0222    1.5688 H   0  0  0  0  0  0  0  0  0  0  0  0
    5.4345   -1.8253    2.4629 H   0  0  0  0  0  0  0  0  0  0  0  0
    3.6755   -1.7705    2.4631 H   0  0  0  0  0  0  0  0  0  0  0  0
    5.3638   -3.3048    4.4238 H   0  0  0  0  0  0  0  0  0  0  0  0
    3.9897   -2.2157    4.7241 H   0  0  0  0  0  0  0  0  0  0  0  0
    4.6350   -5.4799    2.9637 H   0  0  0  0  0  0  0  0  0  0  0  0
  1  2  1  0
  1 22  1  0
  1 21  1  0
  2  3  2  0
  2  7  1  0
  3  4  1  0
  4 23  1  0
  4  5  2  0
  5  6  1  0
  6 10  1  0
  6  7  2  0
  7  8  1  0
  8  9  2  0
  9 24  1  0
  9 10  1  0
 10 11  1  0
 11 20  1  0
 11 12  1  0
 11 25  1  1
 12 13  1  0
 12 14  1  0
 12 26  1  6
 13 27  1  0
 14 15  1  0
 14 16  1  0
 14 28  1  6
 15 29  1  0
 16 20  1  0
 16 17  1  0
 16 30  1  6
 17 18  1  0
 17 31  1  0
 17 32  1  0
 18 19  1  0
 18 33  1  0
 18 34  1  0
 19 20  1  0
 20 35  1  1
M  END
>  <i_m_ct_stereo_status>  (183) 
1

>  <s_m_source_file>  (183) 
/var/tmp/pbs.5076255.sched01/tmpio9qf6gp/4214r_5_m5.sdf

>  <i_m_source_file_index>  (183) 
31

>  <i_lp_mmshare_version>  (183) 
48012

>  <i_f3d_flags>  (183) 
0

>  <s_epik_input>  (183) 
bjFbY0hdW25IXS9jKD1OXFtIXSljKGMxMiluW2NIXW4yW0NASF0oW0NAQEhdKFtPSF0pW0NASF0zW09IXSlbQ0BASF0oW0NAQEhdMzQpT1tDSDJdW0NIMl00

>  <s_epik_cmdline>  (183) 
J2VwaWtfcHl0aG9uJywgJy1waHQnLCAnMi4wJywgJy1waCcsICc3LjAnLCAnLXRuJywgJzgnLCAnLW1hJywgJzIwMCcsICctaW1hZScsICc8aW5maWxlLm1hZT4nLCAnLW9tYWUnLCAnPG91dGZpbGUubWFlPic=

>  <r_lp_tautomer_probability>  (183) 
1

>  <r_epik_Ionization_Penalty>  (183) 
0.000991789

>  <r_epik_Ionization_Penalty_Charging>  (183) 
0

>  <r_epik_Ionization_Penalty_Neutral>  (183) 
0.000991789

>  <r_epik_State_Penalty>  (183) 
-0

>  <r_epik_Charging_Adjusted_Penalty>  (183) 
0

>  <i_epik_Tot_Q>  (183) 
0

>  <i_epik_Tot_abs_Q>  (183) 
0

>  <s_lp_Force_Field>  (183) 
OPLS3e

>  <r_lp_Energy>  (183) 
24.3804

>  <b_lp_Chiralities_Consistent>  (183) 
1

>  <s_lp_Variant>  (183) 
47:0-1

>  <s_i_glide_gridfile>  (183) 
pfpi4k_grid

>  <i_i_glide_lignum>  (183) 
31

>  <i_i_glide_rotatable_bonds>  (183) 
3

>  <r_i_docking_score>  (183) 
-3.54991

>  <r_i_glide_ligand_efficiency>  (183) 
-0.177496

>  <r_i_glide_ligand_efficiency_sa>  (183) 
-0.481797

>  <r_i_glide_ligand_efficiency_ln>  (183) 
-0.888426

>  <r_i_glide_gscore>  (183) 
-3.54991

>  <r_i_glide_lipo>  (183) 
-0.0594063

>  <r_i_glide_hbond>  (183) 
-0.112983

>  <r_i_glide_metal>  (183) 
-0

>  <r_i_glide_rewards>  (183) 
-1.51855

>  <r_i_glide_evdw>  (183) 
-21.9266

>  <r_i_glide_ecoul>  (183) 
-5.92086

>  <r_i_glide_erotb>  (183) 
0.234199

>  <r_i_glide_esite>  (183) 
-0.108716

>  <r_i_glide_emodel>  (183) 
-34.4226

>  <r_i_glide_energy>  (183) 
-27.8474

>  <r_i_glide_einternal>  (183) 
1.58267

>  <r_i_glide_intrahb_reward>  (183) 
-0

>  <i_i_glide_confnum>  (183) 
5

>  <i_i_glide_posenum>  (183) 
2

>  <r_i_glide_eff_state_penalty>  (183) 
0

>  <ligand_id>  (183) 
47

>  <original_smiles>  (183) 
N=c1[nH]cnc2c1ncn2C1C(O)C(O)C2CCOC21

>  <smiles>  (183) 
[H]OC1([H])C([H])(O[H])C2([H])C([H])([H])C([H])([H])OC2([H])C1([H])n1c([H])nc2c(N([H])[H])nc([H])nc21

$$$$
48:0:0
     RDKit          3D

 28 30  0  0  1  0  0  0  0  0999 V2000
    3.0678    0.4972   -5.1269 C   0  0  0  0  0  0  0  0  0  0  0  0
    3.0759   -0.5872   -4.3465 C   0  0  0  0  0  0  0  0  0  0  0  0
    4.2691   -1.4463   -4.0644 C   0  0  2  0  0  0  0  0  0  0  0  0
    3.9467   -2.8166   -4.1370 O   0  0  0  0  0  0  0  0  0  0  0  0
    4.5050   -3.3299   -2.9487 C   0  0  1  0  0  0  0  0  0  0  0  0
    5.5282   -2.5125   -2.6025 O   0  0  0  0  0  0  0  0  0  0  0  0
    4.7581   -1.3366   -2.6214 C   0  0  2  0  0  0  0  0  0  0  0  0
    3.6456   -1.6115   -1.5946 C   0  0  0  0  0  0  0  0  0  0  0  0
    3.4927   -3.1222   -1.7922 C   0  0  1  0  0  0  0  0  0  0  0  0
    2.1887   -3.4282   -2.2683 O   0  0  0  0  0  0  0  0  0  0  0  0
    3.7923   -3.8518   -0.4686 C   0  0  0  0  0  0  0  0  0  0  0  0
    2.9280   -4.7367    0.0728 N   0  0  0  0  0  0  0  0  0  0  0  0
    3.5396   -5.1361    1.2223 N   0  0  0  0  0  0  0  0  0  0  0  0
    4.6664   -4.5400    1.3952 N   0  0  0  0  0  0  0  0  0  0  0  0
    4.8575   -3.7043    0.3483 N   0  0  0  0  0  0  0  0  0  0  0  0
    6.0467   -2.8461    0.3564 C   0  0  0  0  0  0  0  0  0  0  0  0
    3.9422    0.8586   -5.6589 H   0  0  0  0  0  0  0  0  0  0  0  0
    2.1312    1.0078   -5.2494 H   0  0  0  0  0  0  0  0  0  0  0  0
    2.2273   -0.9535   -3.8479 H   0  0  0  0  0  0  0  0  0  0  0  0
    5.0248   -1.1429   -4.7537 H   0  0  0  0  0  0  0  0  0  0  0  0
    4.8370   -4.3602   -3.0680 H   0  0  0  0  0  0  0  0  0  0  0  0
    5.3743   -0.4829   -2.3918 H   0  0  0  0  0  0  0  0  0  0  0  0
    3.9380   -1.3173   -0.5863 H   0  0  0  0  0  0  0  0  0  0  0  0
    2.7348   -1.0545   -1.7878 H   0  0  0  0  0  0  0  0  0  0  0  0
    2.1604   -4.3338   -2.4238 H   0  0  0  0  0  0  0  0  0  0  0  0
    6.1187   -2.1298   -0.4621 H   0  0  0  0  0  0  0  0  0  0  0  0
    6.9404   -3.4864    0.3196 H   0  0  0  0  0  0  0  0  0  0  0  0
    6.0434   -2.2189    1.2554 H   0  0  0  0  0  0  0  0  0  0  0  0
  1  2  2  0
  1 17  1  0
  1 18  1  0
  2  3  1  0
  2 19  1  0
  3  7  1  0
  3  4  1  0
  3 20  1  6
  4  5  1  0
  5  9  1  0
  5  6  1  0
  5 21  1  6
  6  7  1  0
  7  8  1  0
  7 22  1  1
  8  9  1  0
  8 23  1  0
  8 24  1  0
  9 10  1  6
  9 11  1  0
 10 25  1  0
 11 15  1  0
 11 12  2  0
 12 13  1  0
 13 14  2  0
 14 15  1  0
 15 16  1  0
 16 26  1  0
 16 27  1  0
 16 28  1  0
M  END
>  <i_m_ct_stereo_status>  (184) 
1

>  <s_m_source_file>  (184) 
/var/tmp/pbs.5076255.sched01/tmpio9qf6gp/4214r_5_m5.sdf

>  <i_m_source_file_index>  (184) 
32

>  <i_lp_mmshare_version>  (184) 
48012

>  <i_f3d_flags>  (184) 
0

>  <s_epik_input>  (184) 
W0NIMl09W0NIXVtDQEhdKE9bQ0BASF0xMilbQ0BIXShPMSlbQ0gyXVtDQF0yKFtPSF0pYzNubm5uM1tDSDNd

>  <s_epik_cmdline>  (184) 
J2VwaWtfcHl0aG9uJywgJy1waHQnLCAnMi4wJywgJy1waCcsICc3LjAnLCAnLXRuJywgJzgnLCAnLW1hJywgJzIwMCcsICctaW1hZScsICc8aW5maWxlLm1hZT4nLCAnLW9tYWUnLCAnPG91dGZpbGUubWFlPic=

>  <r_lp_tautomer_probability>  (184) 
1

>  <r_epik_Ionization_Penalty>  (184) 
0.000224454

>  <r_epik_Ionization_Penalty_Charging>  (184) 
0

>  <r_epik_Ionization_Penalty_Neutral>  (184) 
0.000224454

>  <r_epik_State_Penalty>  (184) 
-0

>  <r_epik_Charging_Adjusted_Penalty>  (184) 
0

>  <i_epik_Tot_Q>  (184) 
0

>  <i_epik_Tot_abs_Q>  (184) 
0

>  <s_epik_Chemistry_Notes>  (184) 
This compound contains an acetal/aminal-like group ( X-CH(R)-Y where X, Y are N, S, or O) that may be acid/base labile, releasing an aldehyde.

>  <s_lp_Force_Field>  (184) 
OPLS3e

>  <r_lp_Energy>  (184) 
14.6487

>  <b_lp_Chiralities_Consistent>  (184) 
1

>  <s_lp_Variant>  (184) 
48:0-1

>  <s_i_glide_gridfile>  (184) 
pfpi4k_grid

>  <i_i_glide_lignum>  (184) 
32

>  <i_i_glide_rotatable_bonds>  (184) 
3

>  <r_i_docking_score>  (184) 
-3.8438

>  <r_i_glide_ligand_efficiency>  (184) 
-0.240237

>  <r_i_glide_ligand_efficiency_sa>  (184) 
-0.60536

>  <r_i_glide_ligand_efficiency_ln>  (184) 
-1.01888

>  <r_i_glide_gscore>  (184) 
-3.8438

>  <r_i_glide_lipo>  (184) 
-0.425859

>  <r_i_glide_hbond>  (184) 
-0.261604

>  <r_i_glide_metal>  (184) 
-0

>  <r_i_glide_rewards>  (184) 
-2.04548

>  <r_i_glide_evdw>  (184) 
-22.594

>  <r_i_glide_ecoul>  (184) 
-4.06298

>  <r_i_glide_erotb>  (184) 
0.674052

>  <r_i_glide_esite>  (184) 
-0.045752

>  <r_i_glide_emodel>  (184) 
-31.725

>  <r_i_glide_energy>  (184) 
-26.657

>  <r_i_glide_einternal>  (184) 
2.28896

>  <r_i_glide_intrahb_reward>  (184) 
-0

>  <i_i_glide_confnum>  (184) 
5

>  <i_i_glide_posenum>  (184) 
14

>  <r_i_glide_eff_state_penalty>  (184) 
0

>  <ligand_id>  (184) 
48

>  <original_smiles>  (184) 
C=CC1OC2OC1CC2(O)c1nnnn1C

>  <smiles>  (184) 
[H]OC1(c2nnnn2C([H])([H])[H])C2([H])OC([H])(C([H])=C([H])[H])C([H])(O2)C1([H])[H]

$$$$
48:0:1
     RDKit          3D

 28 30  0  0  1  0  0  0  0  0999 V2000
    3.0834    0.7255   -5.1603 C   0  0  0  0  0  0  0  0  0  0  0  0
    3.0818   -0.2967   -4.2827 C   0  0  0  0  0  0  0  0  0  0  0  0
    4.1715   -1.2652   -4.0492 C   0  0  2  0  0  0  0  0  0  0  0  0
    3.7021   -2.6225   -4.1098 O   0  0  0  0  0  0  0  0  0  0  0  0
    4.1923   -3.2088   -2.9304 C   0  0  1  0  0  0  0  0  0  0  0  0
    5.3411   -2.4943   -2.6307 O   0  0  0  0  0  0  0  0  0  0  0  0
    4.7017   -1.2305   -2.6142 C   0  0  2  0  0  0  0  0  0  0  0  0
    3.5896   -1.3944   -1.5616 C   0  0  0  0  0  0  0  0  0  0  0  0
    3.2643   -2.8842   -1.7514 C   0  0  1  0  0  0  0  0  0  0  0  0
    1.9146   -3.0229   -2.1750 O   0  0  0  0  0  0  0  0  0  0  0  0
    3.5186   -3.6662   -0.4642 C   0  0  0  0  0  0  0  0  0  0  0  0
    2.6384   -4.5151    0.0659 N   0  0  0  0  0  0  0  0  0  0  0  0
    3.2298   -4.9761    1.2148 N   0  0  0  0  0  0  0  0  0  0  0  0
    4.4024   -4.4377    1.3835 N   0  0  0  0  0  0  0  0  0  0  0  0
    4.6145   -3.5923    0.3316 N   0  0  0  0  0  0  0  0  0  0  0  0
    5.8570   -2.8229    0.3382 C   0  0  0  0  0  0  0  0  0  0  0  0
    3.9343    0.9281   -5.8235 H   0  0  0  0  0  0  0  0  0  0  0  0
    2.2119    1.3561   -5.2052 H   0  0  0  0  0  0  0  0  0  0  0  0
    2.2424   -0.4357   -3.6856 H   0  0  0  0  0  0  0  0  0  0  0  0
    5.0018   -1.1401   -4.7455 H   0  0  0  0  0  0  0  0  0  0  0  0
    4.4194   -4.2509   -3.0898 H   0  0  0  0  0  0  0  0  0  0  0  0
    5.4134   -0.4501   -2.4010 H   0  0  0  0  0  0  0  0  0  0  0  0
    3.9491   -1.1488   -0.5481 H   0  0  0  0  0  0  0  0  0  0  0  0
    2.7426   -0.7294   -1.7006 H   0  0  0  0  0  0  0  0  0  0  0  0
    1.4121   -2.3800   -1.6699 H   0  0  0  0  0  0  0  0  0  0  0  0
    5.9792   -2.1358   -0.4818 H   0  0  0  0  0  0  0  0  0  0  0  0
    6.7079   -3.4985    0.3091 H   0  0  0  0  0  0  0  0  0  0  0  0
    5.9003   -2.1936    1.2301 H   0  0  0  0  0  0  0  0  0  0  0  0
  1  2  2  0
  1 17  1  0
  1 18  1  0
  2  3  1  0
  2 19  1  0
  3  7  1  0
  3  4  1  0
  3 20  1  6
  4  5  1  0
  5  9  1  0
  5  6  1  0
  5 21  1  6
  6  7  1  0
  7  8  1  0
  7 22  1  1
  8  9  1  0
  8 23  1  0
  8 24  1  0
  9 10  1  6
  9 11  1  0
 10 25  1  0
 11 15  1  0
 11 12  2  0
 12 13  1  0
 13 14  2  0
 14 15  1  0
 15 16  1  0
 16 26  1  0
 16 27  1  0
 16 28  1  0
M  END
>  <i_m_ct_stereo_status>  (185) 
1

>  <s_m_source_file>  (185) 
/var/tmp/pbs.5076255.sched01/tmpio9qf6gp/4214r_5_m5.sdf

>  <i_m_source_file_index>  (185) 
32

>  <i_lp_mmshare_version>  (185) 
48012

>  <i_f3d_flags>  (185) 
0

>  <s_epik_input>  (185) 
W0NIMl09W0NIXVtDQEhdKE9bQ0BASF0xMilbQ0BIXShPMSlbQ0gyXVtDQF0yKFtPSF0pYzNubm5uM1tDSDNd

>  <s_epik_cmdline>  (185) 
J2VwaWtfcHl0aG9uJywgJy1waHQnLCAnMi4wJywgJy1waCcsICc3LjAnLCAnLXRuJywgJzgnLCAnLW1hJywgJzIwMCcsICctaW1hZScsICc8aW5maWxlLm1hZT4nLCAnLW9tYWUnLCAnPG91dGZpbGUubWFlPic=

>  <r_lp_tautomer_probability>  (185) 
1

>  <r_epik_Ionization_Penalty>  (185) 
0.000224454

>  <r_epik_Ionization_Penalty_Charging>  (185) 
0

>  <r_epik_Ionization_Penalty_Neutral>  (185) 
0.000224454

>  <r_epik_State_Penalty>  (185) 
-0

>  <r_epik_Charging_Adjusted_Penalty>  (185) 
0

>  <i_epik_Tot_Q>  (185) 
0

>  <i_epik_Tot_abs_Q>  (185) 
0

>  <s_epik_Chemistry_Notes>  (185) 
This compound contains an acetal/aminal-like group ( X-CH(R)-Y where X, Y are N, S, or O) that may be acid/base labile, releasing an aldehyde.

>  <s_lp_Force_Field>  (185) 
OPLS3e

>  <r_lp_Energy>  (185) 
14.6487

>  <b_lp_Chiralities_Consistent>  (185) 
1

>  <s_lp_Variant>  (185) 
48:0-1

>  <s_i_glide_gridfile>  (185) 
pfpi4k_grid

>  <i_i_glide_lignum>  (185) 
32

>  <i_i_glide_rotatable_bonds>  (185) 
3

>  <r_i_docking_score>  (185) 
-3.73806

>  <r_i_glide_ligand_efficiency>  (185) 
-0.233629

>  <r_i_glide_ligand_efficiency_sa>  (185) 
-0.588708

>  <r_i_glide_ligand_efficiency_ln>  (185) 
-0.990848

>  <r_i_glide_gscore>  (185) 
-3.73806

>  <r_i_glide_lipo>  (185) 
-0.509137

>  <r_i_glide_hbond>  (185) 
-0.25877

>  <r_i_glide_metal>  (185) 
-0

>  <r_i_glide_rewards>  (185) 
-1.98916

>  <r_i_glide_evdw>  (185) 
-21.6842

>  <r_i_glide_ecoul>  (185) 
-3.48867

>  <r_i_glide_erotb>  (185) 
0.674052

>  <r_i_glide_esite>  (185) 
-0.0475322

>  <r_i_glide_emodel>  (185) 
-29.4958

>  <r_i_glide_energy>  (185) 
-25.1729

>  <r_i_glide_einternal>  (185) 
2.84065

>  <r_i_glide_intrahb_reward>  (185) 
-0

>  <i_i_glide_confnum>  (185) 
3

>  <i_i_glide_posenum>  (185) 
2

>  <r_i_glide_eff_state_penalty>  (185) 
0

>  <ligand_id>  (185) 
48

>  <original_smiles>  (185) 
C=CC1OC2OC1CC2(O)c1nnnn1C

>  <smiles>  (185) 
[H]OC1(c2nnnn2C([H])([H])[H])C2([H])OC([H])(C([H])=C([H])[H])C([H])(O2)C1([H])[H]

$$$$
48:0:2
     RDKit          3D

 28 30  0  0  1  0  0  0  0  0999 V2000
    3.4150   -1.0295   -3.3829 C   0  0  0  0  0  0  0  0  0  0  0  0
    4.3159   -0.9140   -2.3993 C   0  0  0  0  0  0  0  0  0  0  0  0
    5.0946   -2.0800   -1.8372 C   0  0  2  0  0  0  0  0  0  0  0  0
    4.7272   -3.3233   -2.3968 O   0  0  0  0  0  0  0  0  0  0  0  0
    4.5339   -4.1391   -1.2786 C   0  0  1  0  0  0  0  0  0  0  0  0
    5.3095   -3.6309   -0.2683 O   0  0  0  0  0  0  0  0  0  0  0  0
    4.7968   -2.3308   -0.3497 C   0  0  2  0  0  0  0  0  0  0  0  0
    3.2779   -2.5172   -0.1152 C   0  0  0  0  0  0  0  0  0  0  0  0
    3.0843   -3.9174   -0.7196 C   0  0  1  0  0  0  0  0  0  0  0  0
    2.1496   -3.8485   -1.7861 O   0  0  0  0  0  0  0  0  0  0  0  0
    2.6331   -4.9293    0.3114 C   0  0  0  0  0  0  0  0  0  0  0  0
    1.6218   -5.7864    0.1011 N   0  0  0  0  0  0  0  0  0  0  0  0
    1.4742   -6.4616    1.2742 N   0  0  0  0  0  0  0  0  0  0  0  0
    2.3427   -6.0728    2.1462 N   0  0  0  0  0  0  0  0  0  0  0  0
    3.0961   -5.1080    1.5663 N   0  0  0  0  0  0  0  0  0  0  0  0
    4.1501   -4.4578    2.3786 C   0  0  0  0  0  0  0  0  0  0  0  0
    3.2013   -1.9845   -3.8515 H   0  0  0  0  0  0  0  0  0  0  0  0
    2.8752   -0.1529   -3.7127 H   0  0  0  0  0  0  0  0  0  0  0  0
    4.5013    0.0394   -1.9343 H   0  0  0  0  0  0  0  0  0  0  0  0
    6.1798   -1.9085   -1.9337 H   0  0  0  0  0  0  0  0  0  0  0  0
    4.7761   -5.1843   -1.4986 H   0  0  0  0  0  0  0  0  0  0  0  0
    5.2918   -1.6522    0.3423 H   0  0  0  0  0  0  0  0  0  0  0  0
    3.0207   -2.4633    0.9537 H   0  0  0  0  0  0  0  0  0  0  0  0
    2.6777   -1.7539   -0.5960 H   0  0  0  0  0  0  0  0  0  0  0  0
    2.2105   -4.6842   -2.2389 H   0  0  0  0  0  0  0  0  0  0  0  0
    4.6940   -3.6762    1.8792 H   0  0  0  0  0  0  0  0  0  0  0  0
    4.8680   -5.2196    2.6828 H   0  0  0  0  0  0  0  0  0  0  0  0
    3.6804   -4.0013    3.2554 H   0  0  0  0  0  0  0  0  0  0  0  0
  1  2  2  0
  1 17  1  0
  1 18  1  0
  2  3  1  0
  2 19  1  0
  3  7  1  0
  3  4  1  0
  3 20  1  1
  4  5  1  0
  5  9  1  0
  5  6  1  0
  5 21  1  6
  6  7  1  0
  7  8  1  0
  7 22  1  1
  8  9  1  0
  8 23  1  0
  8 24  1  0
  9 10  1  6
  9 11  1  0
 10 25  1  0
 11 15  1  0
 11 12  2  0
 12 13  1  0
 13 14  2  0
 14 15  1  0
 15 16  1  0
 16 26  1  0
 16 27  1  0
 16 28  1  0
M  END
>  <i_m_ct_stereo_status>  (186) 
1

>  <s_m_source_file>  (186) 
/var/tmp/pbs.5076255.sched01/tmpio9qf6gp/4214r_5_m5.sdf

>  <i_m_source_file_index>  (186) 
32

>  <i_lp_mmshare_version>  (186) 
48012

>  <i_f3d_flags>  (186) 
0

>  <s_epik_input>  (186) 
W0NIMl09W0NIXVtDQEhdKE9bQ0BASF0xMilbQ0BIXShPMSlbQ0gyXVtDQF0yKFtPSF0pYzNubm5uM1tDSDNd

>  <s_epik_cmdline>  (186) 
J2VwaWtfcHl0aG9uJywgJy1waHQnLCAnMi4wJywgJy1waCcsICc3LjAnLCAnLXRuJywgJzgnLCAnLW1hJywgJzIwMCcsICctaW1hZScsICc8aW5maWxlLm1hZT4nLCAnLW9tYWUnLCAnPG91dGZpbGUubWFlPic=

>  <r_lp_tautomer_probability>  (186) 
1

>  <r_epik_Ionization_Penalty>  (186) 
0.000224454

>  <r_epik_Ionization_Penalty_Charging>  (186) 
0

>  <r_epik_Ionization_Penalty_Neutral>  (186) 
0.000224454

>  <r_epik_State_Penalty>  (186) 
-0

>  <r_epik_Charging_Adjusted_Penalty>  (186) 
0

>  <i_epik_Tot_Q>  (186) 
0

>  <i_epik_Tot_abs_Q>  (186) 
0

>  <s_epik_Chemistry_Notes>  (186) 
This compound contains an acetal/aminal-like group ( X-CH(R)-Y where X, Y are N, S, or O) that may be acid/base labile, releasing an aldehyde.

>  <s_lp_Force_Field>  (186) 
OPLS3e

>  <r_lp_Energy>  (186) 
14.6487

>  <b_lp_Chiralities_Consistent>  (186) 
1

>  <s_lp_Variant>  (186) 
48:0-1

>  <s_i_glide_gridfile>  (186) 
pfpi4k_grid

>  <i_i_glide_lignum>  (186) 
32

>  <i_i_glide_rotatable_bonds>  (186) 
3

>  <r_i_docking_score>  (186) 
-3.72645

>  <r_i_glide_ligand_efficiency>  (186) 
-0.232903

>  <r_i_glide_ligand_efficiency_sa>  (186) 
-0.586879

>  <r_i_glide_ligand_efficiency_ln>  (186) 
-0.987771

>  <r_i_glide_gscore>  (186) 
-3.72645

>  <r_i_glide_lipo>  (186) 
-0.14916

>  <r_i_glide_hbond>  (186) 
0

>  <r_i_glide_metal>  (186) 
-0

>  <r_i_glide_rewards>  (186) 
-1.88034

>  <r_i_glide_evdw>  (186) 
-15.388

>  <r_i_glide_ecoul>  (186) 
-9.05385

>  <r_i_glide_erotb>  (186) 
0.674052

>  <r_i_glide_esite>  (186) 
-0.243526

>  <r_i_glide_emodel>  (186) 
-29.4421

>  <r_i_glide_energy>  (186) 
-24.4418

>  <r_i_glide_einternal>  (186) 
2.38879

>  <r_i_glide_intrahb_reward>  (186) 
-0

>  <i_i_glide_confnum>  (186) 
3

>  <i_i_glide_posenum>  (186) 
28

>  <r_i_glide_eff_state_penalty>  (186) 
0

>  <ligand_id>  (186) 
48

>  <original_smiles>  (186) 
C=CC1OC2OC1CC2(O)c1nnnn1C

>  <smiles>  (186) 
[H]OC1(c2nnnn2C([H])([H])[H])C2([H])OC([H])(C([H])=C([H])[H])C([H])(O2)C1([H])[H]

$$$$
49:0:0
     RDKit          3D

 43 46  0  0  1  0  0  0  0  0999 V2000
   -1.9248   -9.1161    2.3762 C   0  0  0  0  0  0  0  0  0  0  0  0
   -0.9606   -7.9938    2.6905 C   0  0  0  0  0  0  0  0  0  0  0  0
   -0.9750   -7.5343    3.9502 N   0  0  0  0  0  0  0  0  0  0  0  0
   -0.1059   -6.5731    4.2903 N   0  0  0  0  0  0  0  0  0  0  0  0
    0.7231   -6.0719    3.3463 C   0  0  0  0  0  0  0  0  0  0  0  0
    0.6920   -6.5829    2.0318 C   0  0  0  0  0  0  0  0  0  0  0  0
   -0.1936   -7.5340    1.6879 N   0  0  0  0  0  0  0  0  0  0  0  0
    1.4876   -6.0762    1.0257 O   0  0  0  0  0  0  0  0  0  0  0  0
    2.5604   -5.2396    1.4146 C   0  0  0  0  0  0  0  0  0  0  0  0
    3.7958   -6.1338    1.7285 C   0  0  0  0  0  0  0  0  0  0  0  0
    4.7628   -5.9627    0.5542 C   0  0  0  0  0  0  0  0  0  0  0  0
    4.4727   -4.5701    0.0240 C   0  0  0  0  0  0  0  0  0  0  0  0
    2.9586   -4.4323    0.1539 C   0  0  0  0  0  0  0  0  0  0  0  0
    2.1662   -4.3410    2.4747 N   0  0  0  0  0  0  0  0  0  0  0  0
    1.7203   -4.9779    3.7058 C   0  0  1  0  0  0  0  0  0  0  0  0
    1.1341   -3.8664    4.6349 C   0  0  0  0  0  0  0  0  0  0  0  0
    1.8110   -2.4740    4.5312 C   0  0  0  0  0  0  0  0  0  0  0  0
    1.2203   -1.4854    5.5496 C   0  0  0  0  0  0  0  0  0  0  0  0
    1.3463   -1.9982    6.8685 O   0  0  0  0  0  0  0  0  0  0  0  0
    0.6491   -3.2238    7.0498 C   0  0  0  0  0  0  0  0  0  0  0  0
    1.2181   -4.2992    6.1133 C   0  0  0  0  0  0  0  0  0  0  0  0
   -2.4336   -9.4554    3.2793 H   0  0  0  0  0  0  0  0  0  0  0  0
   -1.4011   -9.9678    1.9444 H   0  0  0  0  0  0  0  0  0  0  0  0
   -2.6815   -8.7742    1.6819 H   0  0  0  0  0  0  0  0  0  0  0  0
    4.2791   -5.7935    2.6479 H   0  0  0  0  0  0  0  0  0  0  0  0
    3.5049   -7.1745    1.8738 H   0  0  0  0  0  0  0  0  0  0  0  0
    5.8028   -6.0788    0.8605 H   0  0  0  0  0  0  0  0  0  0  0  0
    4.5569   -6.6992   -0.2221 H   0  0  0  0  0  0  0  0  0  0  0  0
    4.9654   -3.8248    0.6475 H   0  0  0  0  0  0  0  0  0  0  0  0
    4.8164   -4.4270   -1.0002 H   0  0  0  0  0  0  0  0  0  0  0  0
    2.4541   -4.8495   -0.7166 H   0  0  0  0  0  0  0  0  0  0  0  0
    2.6604   -3.3839    0.2381 H   0  0  0  0  0  0  0  0  0  0  0  0
    2.9227   -3.7107    2.7032 H   0  0  0  0  0  0  0  0  0  0  0  0
    2.5855   -5.4443    4.1747 H   0  0  0  0  0  0  0  0  0  0  0  0
    0.0898   -3.7109    4.3617 H   0  0  0  0  0  0  0  0  0  0  0  0
    2.8845   -2.5682    4.6939 H   0  0  0  0  0  0  0  0  0  0  0  0
    1.6801   -2.0439    3.5386 H   0  0  0  0  0  0  0  0  0  0  0  0
    1.7468   -0.5342    5.4949 H   0  0  0  0  0  0  0  0  0  0  0  0
    0.1726   -1.2826    5.3253 H   0  0  0  0  0  0  0  0  0  0  0  0
    0.7579   -3.5440    8.0868 H   0  0  0  0  0  0  0  0  0  0  0  0
   -0.4179   -3.0848    6.8647 H   0  0  0  0  0  0  0  0  0  0  0  0
    0.6776   -5.2263    6.2990 H   0  0  0  0  0  0  0  0  0  0  0  0
    2.2597   -4.4984    6.3738 H   0  0  0  0  0  0  0  0  0  0  0  0
  1  2  1  0
  1 22  1  0
  1 23  1  0
  1 24  1  0
  2  7  2  0
  2  3  1  0
  3  4  2  0
  4  5  1  0
  5 15  1  0
  5  6  2  0
  6  7  1  0
  6  8  1  0
  8  9  1  0
  9 13  1  0
  9 10  1  0
  9 14  1  0
 10 11  1  0
 10 25  1  0
 10 26  1  0
 11 12  1  0
 11 27  1  0
 11 28  1  0
 12 13  1  0
 12 29  1  0
 12 30  1  0
 13 31  1  0
 13 32  1  0
 14 15  1  0
 14 33  1  0
 15 16  1  0
 15 34  1  1
 16 21  1  0
 16 17  1  0
 16 35  1  0
 17 18  1  0
 17 36  1  0
 17 37  1  0
 18 19  1  0
 18 38  1  0
 18 39  1  0
 19 20  1  0
 20 21  1  0
 20 40  1  0
 20 41  1  0
 21 42  1  0
 21 43  1  0
M  END
>  <i_m_ct_stereo_status>  (187) 
1

>  <s_m_source_file>  (187) 
/var/tmp/pbs.5076255.sched01/tmpio9qf6gp/4214r_5_m5.sdf

>  <i_m_source_file_index>  (187) 
33

>  <i_lp_mmshare_version>  (187) 
48012

>  <i_f3d_flags>  (187) 
0

>  <s_epik_input>  (187) 
W0NIMl0xW0NIMl1PW0NIMl1bQ0gyXVtDSF0xW0NASF0oW05IXTIpYyhubmMobjMpW0NIM10pYzNPQzI0W0NIMl1bQ0gyXVtDSDJdW0NIMl00

>  <s_epik_cmdline>  (187) 
J2VwaWtfcHl0aG9uJywgJy1waHQnLCAnMi4wJywgJy1waCcsICc3LjAnLCAnLXRuJywgJzgnLCAnLW1hJywgJzIwMCcsICctaW1hZScsICc8aW5maWxlLm1hZT4nLCAnLW9tYWUnLCAnPG91dGZpbGUubWFlPic=

>  <r_lp_tautomer_probability>  (187) 
1

>  <r_epik_Ionization_Penalty>  (187) 
0.068197

>  <r_epik_Ionization_Penalty_Charging>  (187) 
0

>  <r_epik_Ionization_Penalty_Neutral>  (187) 
0.068197

>  <r_epik_State_Penalty>  (187) 
0.0593828

>  <r_epik_Charging_Adjusted_Penalty>  (187) 
0.0593828

>  <i_epik_Tot_Q>  (187) 
0

>  <i_epik_Tot_abs_Q>  (187) 
0

>  <s_lp_Force_Field>  (187) 
OPLS3e

>  <r_lp_Energy>  (187) 
34.3676

>  <b_lp_Chiralities_Consistent>  (187) 
1

>  <s_lp_Variant>  (187) 
49:0-1

>  <s_i_glide_gridfile>  (187) 
pfpi4k_grid

>  <i_i_glide_lignum>  (187) 
33

>  <i_i_glide_rotatable_bonds>  (187) 
1

>  <r_i_docking_score>  (187) 
-3.16867

>  <r_i_glide_ligand_efficiency>  (187) 
-0.150889

>  <r_i_glide_ligand_efficiency_sa>  (187) 
-0.416292

>  <r_i_glide_ligand_efficiency_ln>  (187) 
-0.783448

>  <r_i_glide_gscore>  (187) 
-3.16867

>  <r_i_glide_lipo>  (187) 
-0.485013

>  <r_i_glide_hbond>  (187) 
-0.118425

>  <r_i_glide_metal>  (187) 
-0

>  <r_i_glide_rewards>  (187) 
-1.42936

>  <r_i_glide_evdw>  (187) 
-20.6797

>  <r_i_glide_ecoul>  (187) 
-0.923143

>  <r_i_glide_erotb>  (187) 
0.216153

>  <r_i_glide_esite>  (187) 
-0.179577

>  <r_i_glide_emodel>  (187) 
-26.1793

>  <r_i_glide_energy>  (187) 
-21.6028

>  <r_i_glide_einternal>  (187) 
1.10081

>  <r_i_glide_intrahb_reward>  (187) 
-0

>  <i_i_glide_confnum>  (187) 
2

>  <i_i_glide_posenum>  (187) 
3

>  <r_i_glide_eff_state_penalty>  (187) 
0

>  <ligand_id>  (187) 
49

>  <original_smiles>  (187) 
Cc1nnc2c(n1)OC1(CCCC1)NC2C1CCOCC1

>  <smiles>  (187) 
[H]N1C([H])(C2([H])C([H])([H])C([H])([H])OC([H])([H])C2([H])[H])c2nnc(C([H])([H])[H])nc2OC12C([H])([H])C([H])([H])C([H])([H])C2([H])[H]

$$$$
49:0:1
     RDKit          3D

 43 46  0  0  1  0  0  0  0  0999 V2000
    3.3312   -3.9754   -0.4505 C   0  0  0  0  0  0  0  0  0  0  0  0
    3.1334   -5.1666    0.4651 C   0  0  0  0  0  0  0  0  0  0  0  0
    1.8609   -5.4912    0.7600 N   0  0  0  0  0  0  0  0  0  0  0  0
    1.6363   -6.5408    1.5648 N   0  0  0  0  0  0  0  0  0  0  0  0
    2.7010   -7.2040    2.0730 C   0  0  0  0  0  0  0  0  0  0  0  0
    4.0182   -6.8425    1.7152 C   0  0  0  0  0  0  0  0  0  0  0  0
    4.2398   -5.7932    0.8981 N   0  0  0  0  0  0  0  0  0  0  0  0
    5.1233   -7.5168    2.1889 O   0  0  0  0  0  0  0  0  0  0  0  0
    4.9025   -8.7634    2.8231 C   0  0  0  0  0  0  0  0  0  0  0  0
    4.9008   -9.8688    1.7304 C   0  0  0  0  0  0  0  0  0  0  0  0
    6.2308  -10.6196    1.8610 C   0  0  0  0  0  0  0  0  0  0  0  0
    6.6010  -10.4711    3.3229 C   0  0  0  0  0  0  0  0  0  0  0  0
    6.1711   -9.0496    3.6673 C   0  0  0  0  0  0  0  0  0  0  0  0
    3.7238   -8.7243    3.6645 N   0  0  0  0  0  0  0  0  0  0  0  0
    2.4829   -8.4079    2.9718 C   0  0  1  0  0  0  0  0  0  0  0  0
    1.3780   -8.2209    4.0526 C   0  0  0  0  0  0  0  0  0  0  0  0
    1.5577   -7.0045    4.9880 C   0  0  0  0  0  0  0  0  0  0  0  0
    0.3810   -6.9078    5.9772 C   0  0  0  0  0  0  0  0  0  0  0  0
    0.2633   -8.1129    6.7242 O   0  0  0  0  0  0  0  0  0  0  0  0
   -0.0212   -9.2416    5.9049 C   0  0  0  0  0  0  0  0  0  0  0  0
    1.1347   -9.4782    4.9140 C   0  0  0  0  0  0  0  0  0  0  0  0
    2.3754   -3.5915   -0.8131 H   0  0  0  0  0  0  0  0  0  0  0  0
    3.9266   -4.2613   -1.3156 H   0  0  0  0  0  0  0  0  0  0  0  0
    3.8376   -3.1692    0.0777 H   0  0  0  0  0  0  0  0  0  0  0  0
    4.0756  -10.5612    1.9177 H   0  0  0  0  0  0  0  0  0  0  0  0
    4.7624   -9.4485    0.7342 H   0  0  0  0  0  0  0  0  0  0  0  0
    6.1445  -11.6669    1.5699 H   0  0  0  0  0  0  0  0  0  0  0  0
    6.9942  -10.1604    1.2337 H   0  0  0  0  0  0  0  0  0  0  0  0
    6.0262  -11.1804    3.9171 H   0  0  0  0  0  0  0  0  0  0  0  0
    7.6562  -10.6528    3.5202 H   0  0  0  0  0  0  0  0  0  0  0  0
    6.9469   -8.3336    3.4023 H   0  0  0  0  0  0  0  0  0  0  0  0
    5.9661   -8.9471    4.7358 H   0  0  0  0  0  0  0  0  0  0  0  0
    3.5836   -9.6083    4.1347 H   0  0  0  0  0  0  0  0  0  0  0  0
    2.2181   -9.2404    2.3226 H   0  0  0  0  0  0  0  0  0  0  0  0
    0.4549   -8.0507    3.4987 H   0  0  0  0  0  0  0  0  0  0  0  0
    2.4911   -7.0842    5.5506 H   0  0  0  0  0  0  0  0  0  0  0  0
    1.6204   -6.0781    4.4179 H   0  0  0  0  0  0  0  0  0  0  0  0
    0.5392   -6.0845    6.6741 H   0  0  0  0  0  0  0  0  0  0  0  0
   -0.5532   -6.7010    5.4532 H   0  0  0  0  0  0  0  0  0  0  0  0
   -0.1573  -10.1184    6.5376 H   0  0  0  0  0  0  0  0  0  0  0  0
   -0.9584   -9.0700    5.3747 H   0  0  0  0  0  0  0  0  0  0  0  0
    0.9067  -10.3355    4.2788 H   0  0  0  0  0  0  0  0  0  0  0  0
    2.0307   -9.7427    5.4820 H   0  0  0  0  0  0  0  0  0  0  0  0
  1  2  1  0
  1 22  1  0
  1 23  1  0
  1 24  1  0
  2  7  2  0
  2  3  1  0
  3  4  2  0
  4  5  1  0
  5 15  1  0
  5  6  2  0
  6  7  1  0
  6  8  1  0
  8  9  1  0
  9 13  1  0
  9 10  1  0
  9 14  1  0
 10 11  1  0
 10 25  1  0
 10 26  1  0
 11 12  1  0
 11 27  1  0
 11 28  1  0
 12 13  1  0
 12 29  1  0
 12 30  1  0
 13 31  1  0
 13 32  1  0
 14 15  1  0
 14 33  1  0
 15 16  1  0
 15 34  1  6
 16 21  1  0
 16 17  1  0
 16 35  1  0
 17 18  1  0
 17 36  1  0
 17 37  1  0
 18 19  1  0
 18 38  1  0
 18 39  1  0
 19 20  1  0
 20 21  1  0
 20 40  1  0
 20 41  1  0
 21 42  1  0
 21 43  1  0
M  END
>  <i_m_ct_stereo_status>  (188) 
1

>  <s_m_source_file>  (188) 
/var/tmp/pbs.5076255.sched01/tmpio9qf6gp/4214r_5_m5.sdf

>  <i_m_source_file_index>  (188) 
33

>  <i_lp_mmshare_version>  (188) 
48012

>  <i_f3d_flags>  (188) 
0

>  <s_epik_input>  (188) 
W0NIMl0xW0NIMl1PW0NIMl1bQ0gyXVtDSF0xW0NASF0oW05IXTIpYyhubmMobjMpW0NIM10pYzNPQzI0W0NIMl1bQ0gyXVtDSDJdW0NIMl00

>  <s_epik_cmdline>  (188) 
J2VwaWtfcHl0aG9uJywgJy1waHQnLCAnMi4wJywgJy1waCcsICc3LjAnLCAnLXRuJywgJzgnLCAnLW1hJywgJzIwMCcsICctaW1hZScsICc8aW5maWxlLm1hZT4nLCAnLW9tYWUnLCAnPG91dGZpbGUubWFlPic=

>  <r_lp_tautomer_probability>  (188) 
1

>  <r_epik_Ionization_Penalty>  (188) 
0.068197

>  <r_epik_Ionization_Penalty_Charging>  (188) 
0

>  <r_epik_Ionization_Penalty_Neutral>  (188) 
0.068197

>  <r_epik_State_Penalty>  (188) 
0.0593828

>  <r_epik_Charging_Adjusted_Penalty>  (188) 
0.0593828

>  <i_epik_Tot_Q>  (188) 
0

>  <i_epik_Tot_abs_Q>  (188) 
0

>  <s_lp_Force_Field>  (188) 
OPLS3e

>  <r_lp_Energy>  (188) 
34.3676

>  <b_lp_Chiralities_Consistent>  (188) 
1

>  <s_lp_Variant>  (188) 
49:0-1

>  <s_i_glide_gridfile>  (188) 
pfpi4k_grid

>  <i_i_glide_lignum>  (188) 
33

>  <i_i_glide_rotatable_bonds>  (188) 
1

>  <r_i_docking_score>  (188) 
-2.95974

>  <r_i_glide_ligand_efficiency>  (188) 
-0.14094

>  <r_i_glide_ligand_efficiency_sa>  (188) 
-0.388842

>  <r_i_glide_ligand_efficiency_ln>  (188) 
-0.731789

>  <r_i_glide_gscore>  (188) 
-2.95974

>  <r_i_glide_lipo>  (188) 
-0.0514267

>  <r_i_glide_hbond>  (188) 
0

>  <r_i_glide_metal>  (188) 
-0

>  <r_i_glide_rewards>  (188) 
-1.42936

>  <r_i_glide_evdw>  (188) 
-17.3343

>  <r_i_glide_ecoul>  (188) 
-4.49004

>  <r_i_glide_erotb>  (188) 
0.216153

>  <r_i_glide_esite>  (188) 
-0.154883

>  <r_i_glide_emodel>  (188) 
-26.479

>  <r_i_glide_energy>  (188) 
-21.8244

>  <r_i_glide_einternal>  (188) 
0.402017

>  <r_i_glide_intrahb_reward>  (188) 
-0

>  <i_i_glide_confnum>  (188) 
3

>  <i_i_glide_posenum>  (188) 
1

>  <r_i_glide_eff_state_penalty>  (188) 
0

>  <ligand_id>  (188) 
49

>  <original_smiles>  (188) 
Cc1nnc2c(n1)OC1(CCCC1)NC2C1CCOCC1

>  <smiles>  (188) 
[H]N1C([H])(C2([H])C([H])([H])C([H])([H])OC([H])([H])C2([H])[H])c2nnc(C([H])([H])[H])nc2OC12C([H])([H])C([H])([H])C([H])([H])C2([H])[H]

$$$$
49:0:2
     RDKit          3D

 43 46  0  0  1  0  0  0  0  0999 V2000
    3.8823   -3.1304   -0.8427 C   0  0  0  0  0  0  0  0  0  0  0  0
    3.5639   -4.3777   -0.0415 C   0  0  0  0  0  0  0  0  0  0  0  0
    2.2581   -4.6841    0.0734 N   0  0  0  0  0  0  0  0  0  0  0  0
    1.9184   -5.7894    0.7415 N   0  0  0  0  0  0  0  0  0  0  0  0
    2.8874   -6.5271    1.3286 C   0  0  0  0  0  0  0  0  0  0  0  0
    4.2469   -6.1617    1.1808 C   0  0  0  0  0  0  0  0  0  0  0  0
    4.5922   -5.0615    0.4870 N   0  0  0  0  0  0  0  0  0  0  0  0
    5.2661   -6.8943    1.7480 O   0  0  0  0  0  0  0  0  0  0  0  0
    4.9385   -8.1697    2.2515 C   0  0  0  0  0  0  0  0  0  0  0  0
    5.0667   -9.1995    1.0953 C   0  0  0  0  0  0  0  0  0  0  0  0
    6.3562   -9.9840    1.3557 C   0  0  0  0  0  0  0  0  0  0  0  0
    6.5292   -9.9448    2.8645 C   0  0  0  0  0  0  0  0  0  0  0  0
    6.0652   -8.5440    3.2472 C   0  0  0  0  0  0  0  0  0  0  0  0
    3.6537   -8.1607    2.9240 N   0  0  0  0  0  0  0  0  0  0  0  0
    2.5217   -7.7944    2.0883 C   0  0  1  0  0  0  0  0  0  0  0  0
    1.2700   -7.6326    3.0185 C   0  0  0  0  0  0  0  0  0  0  0  0
    1.1837   -8.6500    4.1861 C   0  0  0  0  0  0  0  0  0  0  0  0
   -0.1172   -8.4719    4.9888 C   0  0  0  0  0  0  0  0  0  0  0  0
   -1.2474   -8.5930    4.1382 O   0  0  0  0  0  0  0  0  0  0  0  0
   -1.2753   -7.6197    3.1117 C   0  0  0  0  0  0  0  0  0  0  0  0
   -0.0412   -7.7671    2.2112 C   0  0  0  0  0  0  0  0  0  0  0  0
    2.9833   -2.7084   -1.2992 H   0  0  0  0  0  0  0  0  0  0  0  0
    4.5842   -3.3659   -1.6384 H   0  0  0  0  0  0  0  0  0  0  0  0
    4.3130   -2.3706   -0.1954 H   0  0  0  0  0  0  0  0  0  0  0  0
    4.2130   -9.8782    1.1005 H   0  0  0  0  0  0  0  0  0  0  0  0
    5.0702   -8.6961    0.1288 H   0  0  0  0  0  0  0  0  0  0  0  0
    6.2995  -11.0069    0.9775 H   0  0  0  0  0  0  0  0  0  0  0  0
    7.1987   -9.4882    0.8742 H   0  0  0  0  0  0  0  0  0  0  0  0
    5.8712  -10.6826    3.3244 H   0  0  0  0  0  0  0  0  0  0  0  0
    7.5454  -10.1582    3.1965 H   0  0  0  0  0  0  0  0  0  0  0  0
    6.8782   -7.8262    3.1526 H   0  0  0  0  0  0  0  0  0  0  0  0
    5.7136   -8.5140    4.2829 H   0  0  0  0  0  0  0  0  0  0  0  0
    3.4419   -9.0696    3.3087 H   0  0  0  0  0  0  0  0  0  0  0  0
    2.3505   -8.5852    1.3622 H   0  0  0  0  0  0  0  0  0  0  0  0
    1.3288   -6.6468    3.4815 H   0  0  0  0  0  0  0  0  0  0  0  0
    1.2362   -9.6705    3.8032 H   0  0  0  0  0  0  0  0  0  0  0  0
    2.0150   -8.5366    4.8838 H   0  0  0  0  0  0  0  0  0  0  0  0
   -0.1871   -9.2315    5.7649 H   0  0  0  0  0  0  0  0  0  0  0  0
   -0.1279   -7.5023    5.4894 H   0  0  0  0  0  0  0  0  0  0  0  0
   -2.1794   -7.7518    2.5187 H   0  0  0  0  0  0  0  0  0  0  0  0
   -1.3117   -6.6206    3.5483 H   0  0  0  0  0  0  0  0  0  0  0  0
   -0.1352   -7.0314    1.4188 H   0  0  0  0  0  0  0  0  0  0  0  0
   -0.0560   -8.7408    1.7199 H   0  0  0  0  0  0  0  0  0  0  0  0
  1  2  1  0
  1 22  1  0
  1 23  1  0
  1 24  1  0
  2  7  2  0
  2  3  1  0
  3  4  2  0
  4  5  1  0
  5 15  1  0
  5  6  2  0
  6  7  1  0
  6  8  1  0
  8  9  1  0
  9 13  1  0
  9 10  1  0
  9 14  1  0
 10 11  1  0
 10 25  1  0
 10 26  1  0
 11 12  1  0
 11 27  1  0
 11 28  1  0
 12 13  1  0
 12 29  1  0
 12 30  1  0
 13 31  1  0
 13 32  1  0
 14 15  1  0
 14 33  1  0
 15 16  1  0
 15 34  1  6
 16 21  1  0
 16 17  1  0
 16 35  1  0
 17 18  1  0
 17 36  1  0
 17 37  1  0
 18 19  1  0
 18 38  1  0
 18 39  1  0
 19 20  1  0
 20 21  1  0
 20 40  1  0
 20 41  1  0
 21 42  1  0
 21 43  1  0
M  END
>  <i_m_ct_stereo_status>  (189) 
1

>  <s_m_source_file>  (189) 
/var/tmp/pbs.5076255.sched01/tmpio9qf6gp/4214r_5_m5.sdf

>  <i_m_source_file_index>  (189) 
33

>  <i_lp_mmshare_version>  (189) 
48012

>  <i_f3d_flags>  (189) 
0

>  <s_epik_input>  (189) 
W0NIMl0xW0NIMl1PW0NIMl1bQ0gyXVtDSF0xW0NASF0oW05IXTIpYyhubmMobjMpW0NIM10pYzNPQzI0W0NIMl1bQ0gyXVtDSDJdW0NIMl00

>  <s_epik_cmdline>  (189) 
J2VwaWtfcHl0aG9uJywgJy1waHQnLCAnMi4wJywgJy1waCcsICc3LjAnLCAnLXRuJywgJzgnLCAnLW1hJywgJzIwMCcsICctaW1hZScsICc8aW5maWxlLm1hZT4nLCAnLW9tYWUnLCAnPG91dGZpbGUubWFlPic=

>  <r_lp_tautomer_probability>  (189) 
1

>  <r_epik_Ionization_Penalty>  (189) 
0.068197

>  <r_epik_Ionization_Penalty_Charging>  (189) 
0

>  <r_epik_Ionization_Penalty_Neutral>  (189) 
0.068197

>  <r_epik_State_Penalty>  (189) 
0.0593828

>  <r_epik_Charging_Adjusted_Penalty>  (189) 
0.0593828

>  <i_epik_Tot_Q>  (189) 
0

>  <i_epik_Tot_abs_Q>  (189) 
0

>  <s_lp_Force_Field>  (189) 
OPLS3e

>  <r_lp_Energy>  (189) 
34.3676

>  <b_lp_Chiralities_Consistent>  (189) 
1

>  <s_lp_Variant>  (189) 
49:0-1

>  <s_i_glide_gridfile>  (189) 
pfpi4k_grid

>  <i_i_glide_lignum>  (189) 
33

>  <i_i_glide_rotatable_bonds>  (189) 
1

>  <r_i_docking_score>  (189) 
-2.63037

>  <r_i_glide_ligand_efficiency>  (189) 
-0.125256

>  <r_i_glide_ligand_efficiency_sa>  (189) 
-0.345571

>  <r_i_glide_ligand_efficiency_ln>  (189) 
-0.650354

>  <r_i_glide_gscore>  (189) 
-2.63037

>  <r_i_glide_lipo>  (189) 
-0.103556

>  <r_i_glide_hbond>  (189) 
0

>  <r_i_glide_metal>  (189) 
-0

>  <r_i_glide_rewards>  (189) 
-1.43628

>  <r_i_glide_evdw>  (189) 
-20.7666

>  <r_i_glide_ecoul>  (189) 
-0.814076

>  <r_i_glide_erotb>  (189) 
0.216153

>  <r_i_glide_esite>  (189) 
-0.146246

>  <r_i_glide_emodel>  (189) 
-25.2041

>  <r_i_glide_energy>  (189) 
-21.5807

>  <r_i_glide_einternal>  (189) 
1.20746

>  <r_i_glide_intrahb_reward>  (189) 
-0

>  <i_i_glide_confnum>  (189) 
3

>  <i_i_glide_posenum>  (189) 
29

>  <r_i_glide_eff_state_penalty>  (189) 
0

>  <ligand_id>  (189) 
49

>  <original_smiles>  (189) 
Cc1nnc2c(n1)OC1(CCCC1)NC2C1CCOCC1

>  <smiles>  (189) 
[H]N1C([H])(C2([H])C([H])([H])C([H])([H])OC([H])([H])C2([H])[H])c2nnc(C([H])([H])[H])nc2OC12C([H])([H])C([H])([H])C([H])([H])C2([H])[H]

$$$$
49:1:0
     RDKit          3D

 44 47  0  0  1  0  0  0  0  0999 V2000
    4.9501   -5.7474    1.5232 C   0  0  0  0  0  0  0  0  0  0  0  0
    4.1125   -6.9112    2.0120 C   0  0  0  0  0  0  0  0  0  0  0  0
    2.9085   -7.0788    1.4377 N   0  0  0  0  0  0  0  0  0  0  0  0
    2.1734   -8.1307    1.8214 N   0  0  0  0  0  0  0  0  0  0  0  0
    2.6218   -8.9426    2.8056 C   0  0  0  0  0  0  0  0  0  0  0  0
    3.9102   -8.7336    3.3394 C   0  0  0  0  0  0  0  0  0  0  0  0
    4.6579   -7.6882    2.9493 N   0  0  0  0  0  0  0  0  0  0  0  0
    4.4706   -9.5497    4.2857 O   0  0  0  0  0  0  0  0  0  0  0  0
    3.9474  -10.8372    4.3907 C   0  0  0  0  0  0  0  0  0  0  0  0
    4.2944  -11.7715    3.2119 C   0  0  0  0  0  0  0  0  0  0  0  0
    4.8320  -13.0473    3.8724 C   0  0  0  0  0  0  0  0  0  0  0  0
    4.4335  -12.9896    5.3520 C   0  0  0  0  0  0  0  0  0  0  0  0
    4.3722  -11.5062    5.7024 C   0  0  0  0  0  0  0  0  0  0  0  0
    2.3366  -10.7804    4.4452 N   0  0  0  0  0  0  0  0  0  0  0  0
    1.7177  -10.0899    3.2757 C   0  0  1  0  0  0  0  0  0  0  0  0
    0.2595   -9.6681    3.6261 C   0  0  0  0  0  0  0  0  0  0  0  0
   -0.6386   -9.5205    2.3771 C   0  0  0  0  0  0  0  0  0  0  0  0
   -2.0265   -8.9901    2.7109 C   0  0  0  0  0  0  0  0  0  0  0  0
   -1.9100   -7.7646    3.4220 O   0  0  0  0  0  0  0  0  0  0  0  0
   -1.2670   -7.9397    4.6782 C   0  0  0  0  0  0  0  0  0  0  0  0
    0.1837   -8.3763    4.4703 C   0  0  0  0  0  0  0  0  0  0  0  0
    4.4235   -5.1460    0.7783 H   0  0  0  0  0  0  0  0  0  0  0  0
    5.8697   -6.1234    1.0716 H   0  0  0  0  0  0  0  0  0  0  0  0
    5.2185   -5.1044    2.3630 H   0  0  0  0  0  0  0  0  0  0  0  0
    3.4497  -11.9851    2.5645 H   0  0  0  0  0  0  0  0  0  0  0  0
    5.0528  -11.3121    2.5783 H   0  0  0  0  0  0  0  0  0  0  0  0
    4.4517  -13.9471    3.3855 H   0  0  0  0  0  0  0  0  0  0  0  0
    5.9193  -13.0653    3.7801 H   0  0  0  0  0  0  0  0  0  0  0  0
    3.4565  -13.4439    5.4806 H   0  0  0  0  0  0  0  0  0  0  0  0
    5.1346  -13.5398    5.9826 H   0  0  0  0  0  0  0  0  0  0  0  0
    5.3847  -11.1678    5.9367 H   0  0  0  0  0  0  0  0  0  0  0  0
    3.7381  -11.2552    6.5491 H   0  0  0  0  0  0  0  0  0  0  0  0
    1.9562  -11.7107    4.5485 H   0  0  0  0  0  0  0  0  0  0  0  0
    1.6596  -10.8173    2.4684 H   0  0  0  0  0  0  0  0  0  0  0  0
   -0.1876  -10.4852    4.2031 H   0  0  0  0  0  0  0  0  0  0  0  0
   -0.2214   -8.7949    1.6829 H   0  0  0  0  0  0  0  0  0  0  0  0
   -0.7123  -10.4685    1.8392 H   0  0  0  0  0  0  0  0  0  0  0  0
   -2.5829   -8.8135    1.7938 H   0  0  0  0  0  0  0  0  0  0  0  0
   -2.5846   -9.7273    3.2820 H   0  0  0  0  0  0  0  0  0  0  0  0
   -1.2773   -6.9911    5.2137 H   0  0  0  0  0  0  0  0  0  0  0  0
   -1.8065   -8.6603    5.2785 H   0  0  0  0  0  0  0  0  0  0  0  0
    0.6739   -8.5259    5.4350 H   0  0  0  0  0  0  0  0  0  0  0  0
    0.6930   -7.5452    3.9802 H   0  0  0  0  0  0  0  0  0  0  0  0
    2.0614  -10.2613    5.2670 H   0  0  0  0  0  0  0  0  0  0  0  0
  1  2  1  0
  1 22  1  0
  1 23  1  0
  1 24  1  0
  2  7  2  0
  2  3  1  0
  3  4  2  0
  4  5  1  0
  5 15  1  0
  5  6  2  0
  6  7  1  0
  6  8  1  0
  8  9  1  0
  9 13  1  0
  9 10  1  0
  9 14  1  0
 10 11  1  0
 10 25  1  0
 10 26  1  0
 11 12  1  0
 11 27  1  0
 11 28  1  0
 12 13  1  0
 12 29  1  0
 12 30  1  0
 13 31  1  0
 13 32  1  0
 14 15  1  0
 14 33  1  0
 14 44  1  0
 15 16  1  0
 15 34  1  6
 16 21  1  0
 16 17  1  0
 16 35  1  0
 17 18  1  0
 17 36  1  0
 17 37  1  0
 18 19  1  0
 18 38  1  0
 18 39  1  0
 19 20  1  0
 20 21  1  0
 20 40  1  0
 20 41  1  0
 21 42  1  0
 21 43  1  0
M  CHG  1  14   1
M  END
>  <i_m_ct_stereo_status>  (190) 
1

>  <s_m_source_file>  (190) 
/var/tmp/pbs.5076255.sched01/tmpio9qf6gp/4214r_5_m5.sdf

>  <i_m_source_file_index>  (190) 
34

>  <i_lp_mmshare_version>  (190) 
48012

>  <i_f3d_flags>  (190) 
0

>  <s_epik_input>  (190) 
W0NIMl0xW0NIMl1PW0NIMl1bQ0gyXVtDSF0xW0NASF0oW05IXTIpYyhubmMobjMpW0NIM10pYzNPQzI0W0NIMl1bQ0gyXVtDSDJdW0NIMl00

>  <s_epik_cmdline>  (190) 
J2VwaWtfcHl0aG9uJywgJy1waHQnLCAnMi4wJywgJy1waCcsICc3LjAnLCAnLXRuJywgJzgnLCAnLW1hJywgJzIwMCcsICctaW1hZScsICc8aW5maWxlLm1hZT4nLCAnLW9tYWUnLCAnPG91dGZpbGUubWFlPic=

>  <r_lp_tautomer_probability>  (190) 
1

>  <r_epik_Ionization_Penalty>  (190) 
1.31708

>  <r_epik_Ionization_Penalty_Charging>  (190) 
1.31708

>  <r_epik_Ionization_Penalty_Neutral>  (190) 
6.29817e-07

>  <r_epik_State_Penalty>  (190) 
1.39235

>  <r_epik_Charging_Adjusted_Penalty>  (190) 
2.70943

>  <i_epik_Tot_Q>  (190) 
1

>  <i_epik_Tot_abs_Q>  (190) 
1

>  <s_lp_Force_Field>  (190) 
OPLS3e

>  <r_lp_Energy>  (190) 
38.4735

>  <b_lp_Chiralities_Consistent>  (190) 
1

>  <s_lp_Variant>  (190) 
49:0-2

>  <s_i_glide_gridfile>  (190) 
pfpi4k_grid

>  <i_i_glide_lignum>  (190) 
34

>  <i_i_glide_rotatable_bonds>  (190) 
1

>  <r_i_docking_score>  (190) 
-3.49073

>  <r_i_glide_ligand_efficiency>  (190) 
-0.166225

>  <r_i_glide_ligand_efficiency_sa>  (190) 
-0.458603

>  <r_i_glide_ligand_efficiency_ln>  (190) 
-0.863077

>  <r_i_glide_gscore>  (190) 
-3.49073

>  <r_i_glide_lipo>  (190) 
-0.327604

>  <r_i_glide_hbond>  (190) 
0

>  <r_i_glide_metal>  (190) 
-0

>  <r_i_glide_rewards>  (190) 
-1.46129

>  <r_i_glide_evdw>  (190) 
-19.0577

>  <r_i_glide_ecoul>  (190) 
-6.06081

>  <r_i_glide_erotb>  (190) 
0.214851

>  <r_i_glide_esite>  (190) 
-0.0546868

>  <r_i_glide_emodel>  (190) 
-33.1769

>  <r_i_glide_energy>  (190) 
-25.1185

>  <r_i_glide_einternal>  (190) 
0.0371724

>  <r_i_glide_intrahb_reward>  (190) 
-0

>  <i_i_glide_confnum>  (190) 
4

>  <i_i_glide_posenum>  (190) 
37

>  <r_i_glide_eff_state_penalty>  (190) 
0

>  <ligand_id>  (190) 
49

>  <original_smiles>  (190) 
Cc1nnc2c(n1)OC1(CCCC1)NC2C1CCOCC1

>  <smiles>  (190) 
[H]C([H])([H])c1nnc2c(n1)OC1(C([H])([H])C([H])([H])C([H])([H])C1([H])[H])[N+]([H])([H])C2([H])C1([H])C([H])([H])C([H])([H])OC([H])([H])C1([H])[H]

$$$$
49:1:1
     RDKit          3D

 44 47  0  0  1  0  0  0  0  0999 V2000
    2.5839   -4.0623   -0.6861 C   0  0  0  0  0  0  0  0  0  0  0  0
    2.5859   -5.2491    0.2647 C   0  0  0  0  0  0  0  0  0  0  0  0
    1.4161   -5.8797    0.4806 N   0  0  0  0  0  0  0  0  0  0  0  0
    1.4137   -6.9373    1.3100 N   0  0  0  0  0  0  0  0  0  0  0  0
    2.5684   -7.3074    1.9192 C   0  0  0  0  0  0  0  0  0  0  0  0
    3.7684   -6.6202    1.6221 C   0  0  0  0  0  0  0  0  0  0  0  0
    3.7720   -5.5590    0.8028 N   0  0  0  0  0  0  0  0  0  0  0  0
    4.9939   -6.9772    2.1288 O   0  0  0  0  0  0  0  0  0  0  0  0
    5.1046   -8.2761    2.6173 C   0  0  0  0  0  0  0  0  0  0  0  0
    5.1604   -9.3518    1.5129 C   0  0  0  0  0  0  0  0  0  0  0  0
    6.6295   -9.7898    1.5344 C   0  0  0  0  0  0  0  0  0  0  0  0
    7.3765   -8.8231    2.4722 C   0  0  0  0  0  0  0  0  0  0  0  0
    6.3356   -8.4205    3.5130 C   0  0  0  0  0  0  0  0  0  0  0  0
    3.8555   -8.6478    3.5364 N   0  0  0  0  0  0  0  0  0  0  0  0
    2.5447   -8.5179    2.8568 C   0  0  1  0  0  0  0  0  0  0  0  0
    1.4290   -8.4615    3.9351 C   0  0  0  0  0  0  0  0  0  0  0  0
    1.4599   -7.1655    4.7709 C   0  0  0  0  0  0  0  0  0  0  0  0
    0.4234   -7.1967    5.8982 C   0  0  0  0  0  0  0  0  0  0  0  0
    0.6296   -8.3447    6.7065 O   0  0  0  0  0  0  0  0  0  0  0  0
    0.4195   -9.5596    5.9940 C   0  0  0  0  0  0  0  0  0  0  0  0
    1.4502   -9.6939    4.8681 C   0  0  0  0  0  0  0  0  0  0  0  0
    1.5902   -3.8594   -1.0878 H   0  0  0  0  0  0  0  0  0  0  0  0
    3.2513   -4.2460   -1.5235 H   0  0  0  0  0  0  0  0  0  0  0  0
    2.9456   -3.1694   -0.1810 H   0  0  0  0  0  0  0  0  0  0  0  0
    4.5078  -10.1957    1.7246 H   0  0  0  0  0  0  0  0  0  0  0  0
    4.8698   -8.9257    0.5475 H   0  0  0  0  0  0  0  0  0  0  0  0
    6.7123  -10.8086    1.9224 H   0  0  0  0  0  0  0  0  0  0  0  0
    7.0473   -9.7949    0.5281 H   0  0  0  0  0  0  0  0  0  0  0  0
    8.2652   -9.2666    2.9228 H   0  0  0  0  0  0  0  0  0  0  0  0
    7.7039   -7.9512    1.9074 H   0  0  0  0  0  0  0  0  0  0  0  0
    6.5822   -7.4921    4.0351 H   0  0  0  0  0  0  0  0  0  0  0  0
    6.2092   -9.2182    4.2434 H   0  0  0  0  0  0  0  0  0  0  0  0
    3.9405   -9.5851    3.8964 H   0  0  0  0  0  0  0  0  0  0  0  0
    2.3860   -9.4023    2.2368 H   0  0  0  0  0  0  0  0  0  0  0  0
    0.4655   -8.4861    3.4197 H   0  0  0  0  0  0  0  0  0  0  0  0
    2.4446   -7.0370    5.2178 H   0  0  0  0  0  0  0  0  0  0  0  0
    1.2800   -6.2916    4.1430 H   0  0  0  0  0  0  0  0  0  0  0  0
    0.5401   -6.3117    6.5207 H   0  0  0  0  0  0  0  0  0  0  0  0
   -0.5922   -7.1840    5.5024 H   0  0  0  0  0  0  0  0  0  0  0  0
    0.5228  -10.3936    6.6852 H   0  0  0  0  0  0  0  0  0  0  0  0
   -0.5908   -9.5891    5.5990 H   0  0  0  0  0  0  0  0  0  0  0  0
    1.2683  -10.6104    4.3018 H   0  0  0  0  0  0  0  0  0  0  0  0
    2.4169   -9.8103    5.3527 H   0  0  0  0  0  0  0  0  0  0  0  0
    3.8272   -8.0154    4.3187 H   0  0  0  0  0  0  0  0  0  0  0  0
  1  2  1  0
  1 22  1  0
  1 23  1  0
  1 24  1  0
  2  7  2  0
  2  3  1  0
  3  4  2  0
  4  5  1  0
  5 15  1  0
  5  6  2  0
  6  7  1  0
  6  8  1  0
  8  9  1  0
  9 13  1  0
  9 10  1  0
  9 14  1  0
 10 11  1  0
 10 25  1  0
 10 26  1  0
 11 12  1  0
 11 27  1  0
 11 28  1  0
 12 13  1  0
 12 29  1  0
 12 30  1  0
 13 31  1  0
 13 32  1  0
 14 15  1  0
 14 33  1  0
 14 44  1  0
 15 16  1  0
 15 34  1  6
 16 21  1  0
 16 17  1  0
 16 35  1  0
 17 18  1  0
 17 36  1  0
 17 37  1  0
 18 19  1  0
 18 38  1  0
 18 39  1  0
 19 20  1  0
 20 21  1  0
 20 40  1  0
 20 41  1  0
 21 42  1  0
 21 43  1  0
M  CHG  1  14   1
M  END
>  <i_m_ct_stereo_status>  (191) 
1

>  <s_m_source_file>  (191) 
/var/tmp/pbs.5076255.sched01/tmpio9qf6gp/4214r_5_m5.sdf

>  <i_m_source_file_index>  (191) 
34

>  <i_lp_mmshare_version>  (191) 
48012

>  <i_f3d_flags>  (191) 
0

>  <s_epik_input>  (191) 
W0NIMl0xW0NIMl1PW0NIMl1bQ0gyXVtDSF0xW0NASF0oW05IXTIpYyhubmMobjMpW0NIM10pYzNPQzI0W0NIMl1bQ0gyXVtDSDJdW0NIMl00

>  <s_epik_cmdline>  (191) 
J2VwaWtfcHl0aG9uJywgJy1waHQnLCAnMi4wJywgJy1waCcsICc3LjAnLCAnLXRuJywgJzgnLCAnLW1hJywgJzIwMCcsICctaW1hZScsICc8aW5maWxlLm1hZT4nLCAnLW9tYWUnLCAnPG91dGZpbGUubWFlPic=

>  <r_lp_tautomer_probability>  (191) 
1

>  <r_epik_Ionization_Penalty>  (191) 
1.31708

>  <r_epik_Ionization_Penalty_Charging>  (191) 
1.31708

>  <r_epik_Ionization_Penalty_Neutral>  (191) 
6.29817e-07

>  <r_epik_State_Penalty>  (191) 
1.39235

>  <r_epik_Charging_Adjusted_Penalty>  (191) 
2.70943

>  <i_epik_Tot_Q>  (191) 
1

>  <i_epik_Tot_abs_Q>  (191) 
1

>  <s_lp_Force_Field>  (191) 
OPLS3e

>  <r_lp_Energy>  (191) 
38.4735

>  <b_lp_Chiralities_Consistent>  (191) 
1

>  <s_lp_Variant>  (191) 
49:0-2

>  <s_i_glide_gridfile>  (191) 
pfpi4k_grid

>  <i_i_glide_lignum>  (191) 
34

>  <i_i_glide_rotatable_bonds>  (191) 
1

>  <r_i_docking_score>  (191) 
-3.42522

>  <r_i_glide_ligand_efficiency>  (191) 
-0.163106

>  <r_i_glide_ligand_efficiency_sa>  (191) 
-0.449996

>  <r_i_glide_ligand_efficiency_ln>  (191) 
-0.846878

>  <r_i_glide_gscore>  (191) 
-3.42522

>  <r_i_glide_lipo>  (191) 
-0.101381

>  <r_i_glide_hbond>  (191) 
0

>  <r_i_glide_metal>  (191) 
-0

>  <r_i_glide_rewards>  (191) 
-1.42249

>  <r_i_glide_evdw>  (191) 
-16.7443

>  <r_i_glide_ecoul>  (191) 
-7.15663

>  <r_i_glide_erotb>  (191) 
0.214851

>  <r_i_glide_esite>  (191) 
-0.20549

>  <r_i_glide_emodel>  (191) 
-31.9992

>  <r_i_glide_energy>  (191) 
-23.901

>  <r_i_glide_einternal>  (191) 
0.194139

>  <r_i_glide_intrahb_reward>  (191) 
-0

>  <i_i_glide_confnum>  (191) 
1

>  <i_i_glide_posenum>  (191) 
21

>  <r_i_glide_eff_state_penalty>  (191) 
0

>  <ligand_id>  (191) 
49

>  <original_smiles>  (191) 
Cc1nnc2c(n1)OC1(CCCC1)NC2C1CCOCC1

>  <smiles>  (191) 
[H]C([H])([H])c1nnc2c(n1)OC1(C([H])([H])C([H])([H])C([H])([H])C1([H])[H])[N+]([H])([H])C2([H])C1([H])C([H])([H])C([H])([H])OC([H])([H])C1([H])[H]

$$$$
49:1:2
     RDKit          3D

 44 47  0  0  1  0  0  0  0  0999 V2000
    7.1091   -6.2351    1.7282 C   0  0  0  0  0  0  0  0  0  0  0  0
    5.9131   -7.1410    1.9476 C   0  0  0  0  0  0  0  0  0  0  0  0
    4.9230   -7.1080    1.0384 N   0  0  0  0  0  0  0  0  0  0  0  0
    3.8673   -7.9227    1.2218 N   0  0  0  0  0  0  0  0  0  0  0  0
    3.8278   -8.7177    2.3154 C   0  0  0  0  0  0  0  0  0  0  0  0
    4.9167   -8.7298    3.2139 C   0  0  0  0  0  0  0  0  0  0  0  0
    5.9640   -7.9117    3.0383 N   0  0  0  0  0  0  0  0  0  0  0  0
    4.9835   -9.5506    4.3134 O   0  0  0  0  0  0  0  0  0  0  0  0
    4.1849  -10.6916    4.2883 C   0  0  0  0  0  0  0  0  0  0  0  0
    4.6573  -11.7931    3.3198 C   0  0  0  0  0  0  0  0  0  0  0  0
    4.6575  -13.0739    4.1579 C   0  0  0  0  0  0  0  0  0  0  0  0
    3.8317  -12.7818    5.4169 C   0  0  0  0  0  0  0  0  0  0  0  0
    4.0033  -11.2897    5.6864 C   0  0  0  0  0  0  0  0  0  0  0  0
    2.6981  -10.3212    3.8065 N   0  0  0  0  0  0  0  0  0  0  0  0
    2.6170   -9.6378    2.4851 C   0  0  1  0  0  0  0  0  0  0  0  0
    1.2443   -8.9200    2.3641 C   0  0  0  0  0  0  0  0  0  0  0  0
    1.0944   -7.7132    3.3133 C   0  0  0  0  0  0  0  0  0  0  0  0
   -0.3089   -7.1075    3.2215 C   0  0  0  0  0  0  0  0  0  0  0  0
   -1.2933   -8.0995    3.4690 O   0  0  0  0  0  0  0  0  0  0  0  0
   -1.2916   -9.1395    2.4976 C   0  0  0  0  0  0  0  0  0  0  0  0
    0.0458   -9.8865    2.5384 C   0  0  0  0  0  0  0  0  0  0  0  0
    6.9972   -5.6142    0.8384 H   0  0  0  0  0  0  0  0  0  0  0  0
    8.0156   -6.8330    1.6234 H   0  0  0  0  0  0  0  0  0  0  0  0
    7.2413   -5.5838    2.5924 H   0  0  0  0  0  0  0  0  0  0  0  0
    3.9814  -11.9027    2.4769 H   0  0  0  0  0  0  0  0  0  0  0  0
    5.6476  -11.5632    2.9226 H   0  0  0  0  0  0  0  0  0  0  0  0
    4.2454  -13.9126    3.5949 H   0  0  0  0  0  0  0  0  0  0  0  0
    5.6814  -13.3327    4.4277 H   0  0  0  0  0  0  0  0  0  0  0  0
    2.7861  -13.0187    5.2357 H   0  0  0  0  0  0  0  0  0  0  0  0
    4.1606  -13.3992    6.2574 H   0  0  0  0  0  0  0  0  0  0  0  0
    4.9347  -11.1466    6.2402 H   0  0  0  0  0  0  0  0  0  0  0  0
    3.2032  -10.8291    6.2589 H   0  0  0  0  0  0  0  0  0  0  0  0
    2.1220  -11.1483    3.7970 H   0  0  0  0  0  0  0  0  0  0  0  0
    2.6758  -10.3777    1.6829 H   0  0  0  0  0  0  0  0  0  0  0  0
    1.1804   -8.5303    1.3447 H   0  0  0  0  0  0  0  0  0  0  0  0
    1.2750   -8.0235    4.3436 H   0  0  0  0  0  0  0  0  0  0  0  0
    1.8330   -6.9440    3.0767 H   0  0  0  0  0  0  0  0  0  0  0  0
   -0.4048   -6.3255    3.9735 H   0  0  0  0  0  0  0  0  0  0  0  0
   -0.4805   -6.6510    2.2463 H   0  0  0  0  0  0  0  0  0  0  0  0
   -2.0922   -9.8377    2.7356 H   0  0  0  0  0  0  0  0  0  0  0  0
   -1.4963   -8.7337    1.5061 H   0  0  0  0  0  0  0  0  0  0  0  0
    0.0641  -10.6586    1.7650 H   0  0  0  0  0  0  0  0  0  0  0  0
    0.0906  -10.4072    3.4970 H   0  0  0  0  0  0  0  0  0  0  0  0
    2.3064   -9.6676    4.4697 H   0  0  0  0  0  0  0  0  0  0  0  0
  1  2  1  0
  1 22  1  0
  1 23  1  0
  1 24  1  0
  2  7  2  0
  2  3  1  0
  3  4  2  0
  4  5  1  0
  5 15  1  0
  5  6  2  0
  6  7  1  0
  6  8  1  0
  8  9  1  0
  9 13  1  0
  9 10  1  0
  9 14  1  0
 10 11  1  0
 10 25  1  0
 10 26  1  0
 11 12  1  0
 11 27  1  0
 11 28  1  0
 12 13  1  0
 12 29  1  0
 12 30  1  0
 13 31  1  0
 13 32  1  0
 14 15  1  0
 14 33  1  0
 14 44  1  0
 15 16  1  0
 15 34  1  6
 16 21  1  0
 16 17  1  0
 16 35  1  0
 17 18  1  0
 17 36  1  0
 17 37  1  0
 18 19  1  0
 18 38  1  0
 18 39  1  0
 19 20  1  0
 20 21  1  0
 20 40  1  0
 20 41  1  0
 21 42  1  0
 21 43  1  0
M  CHG  1  14   1
M  END
>  <i_m_ct_stereo_status>  (192) 
1

>  <s_m_source_file>  (192) 
/var/tmp/pbs.5076255.sched01/tmpio9qf6gp/4214r_5_m5.sdf

>  <i_m_source_file_index>  (192) 
34

>  <i_lp_mmshare_version>  (192) 
48012

>  <i_f3d_flags>  (192) 
0

>  <s_epik_input>  (192) 
W0NIMl0xW0NIMl1PW0NIMl1bQ0gyXVtDSF0xW0NASF0oW05IXTIpYyhubmMobjMpW0NIM10pYzNPQzI0W0NIMl1bQ0gyXVtDSDJdW0NIMl00

>  <s_epik_cmdline>  (192) 
J2VwaWtfcHl0aG9uJywgJy1waHQnLCAnMi4wJywgJy1waCcsICc3LjAnLCAnLXRuJywgJzgnLCAnLW1hJywgJzIwMCcsICctaW1hZScsICc8aW5maWxlLm1hZT4nLCAnLW9tYWUnLCAnPG91dGZpbGUubWFlPic=

>  <r_lp_tautomer_probability>  (192) 
1

>  <r_epik_Ionization_Penalty>  (192) 
1.31708

>  <r_epik_Ionization_Penalty_Charging>  (192) 
1.31708

>  <r_epik_Ionization_Penalty_Neutral>  (192) 
6.29817e-07

>  <r_epik_State_Penalty>  (192) 
1.39235

>  <r_epik_Charging_Adjusted_Penalty>  (192) 
2.70943

>  <i_epik_Tot_Q>  (192) 
1

>  <i_epik_Tot_abs_Q>  (192) 
1

>  <s_lp_Force_Field>  (192) 
OPLS3e

>  <r_lp_Energy>  (192) 
38.4735

>  <b_lp_Chiralities_Consistent>  (192) 
1

>  <s_lp_Variant>  (192) 
49:0-2

>  <s_i_glide_gridfile>  (192) 
pfpi4k_grid

>  <i_i_glide_lignum>  (192) 
34

>  <i_i_glide_rotatable_bonds>  (192) 
1

>  <r_i_docking_score>  (192) 
-3.24401

>  <r_i_glide_ligand_efficiency>  (192) 
-0.154477

>  <r_i_glide_ligand_efficiency_sa>  (192) 
-0.426189

>  <r_i_glide_ligand_efficiency_ln>  (192) 
-0.802075

>  <r_i_glide_gscore>  (192) 
-3.24401

>  <r_i_glide_lipo>  (192) 
-0.308915

>  <r_i_glide_hbond>  (192) 
0

>  <r_i_glide_metal>  (192) 
-0

>  <r_i_glide_rewards>  (192) 
-1.49898

>  <r_i_glide_evdw>  (192) 
-19.8071

>  <r_i_glide_ecoul>  (192) 
-4.28449

>  <r_i_glide_erotb>  (192) 
0.214851

>  <r_i_glide_esite>  (192) 
-0.0179363

>  <r_i_glide_emodel>  (192) 
-31.6703

>  <r_i_glide_energy>  (192) 
-24.0916

>  <r_i_glide_einternal>  (192) 
0.152058

>  <r_i_glide_intrahb_reward>  (192) 
-0

>  <i_i_glide_confnum>  (192) 
4

>  <i_i_glide_posenum>  (192) 
12

>  <r_i_glide_eff_state_penalty>  (192) 
0

>  <ligand_id>  (192) 
49

>  <original_smiles>  (192) 
Cc1nnc2c(n1)OC1(CCCC1)NC2C1CCOCC1

>  <smiles>  (192) 
[H]C([H])([H])c1nnc2c(n1)OC1(C([H])([H])C([H])([H])C([H])([H])C1([H])[H])[N+]([H])([H])C2([H])C1([H])C([H])([H])C([H])([H])OC([H])([H])C1([H])[H]

$$$$
51:0:0
     RDKit          3D

 51 55  0  0  1  0  0  0  0  0999 V2000
    4.4684   -8.4543    0.9053 C   0  0  0  0  0  0  0  0  0  0  0  0
    3.7269   -7.3903    1.6933 C   0  0  0  0  0  0  0  0  0  0  0  0
    3.7480   -6.0372    1.5685 C   0  0  0  0  0  0  0  0  0  0  0  0
    4.6620   -5.3298    0.5214 C   0  0  2  0  0  0  0  0  0  0  0  0
    6.1007   -5.0412    0.9583 C   0  0  0  0  0  0  0  0  0  0  0  0
    6.4310   -3.8378    0.1208 C   0  0  2  0  0  0  0  0  0  0  0  0
    7.5055   -2.9537    0.4853 O   0  0  0  0  0  0  0  0  0  0  0  0
    6.2029   -2.4119    0.6072 C   0  0  2  0  0  0  0  0  0  0  0  0
    5.4036   -2.1709    1.8805 C   0  0  1  0  0  0  0  0  0  0  0  0
    5.6544   -0.7837    2.4713 C   0  0  0  0  0  0  0  0  0  0  0  0
    3.9015   -2.3848    1.5793 C   0  0  0  0  0  0  0  0  0  0  0  0
    3.0136   -3.1033    2.2905 C   0  0  0  0  0  0  0  0  0  0  0  0
    3.0993   -4.1137    3.4013 C   0  0  0  0  0  0  0  0  0  0  0  0
    4.3880   -4.1493    4.2458 C   0  0  0  0  0  0  0  0  0  0  0  0
    1.9473   -3.8143    4.3901 C   0  0  0  0  0  0  0  0  0  0  0  0
    2.7873   -5.4372    2.6261 C   0  0  2  0  0  0  0  0  0  0  0  0
    2.4814   -6.6258    3.5712 C   0  0  0  0  0  0  0  0  0  0  0  0
    2.8033   -7.8868    2.7654 C   0  0  0  0  0  0  0  0  0  0  0  0
    3.3252   -2.2103    0.2517 C   0  0  0  0  0  0  0  0  0  0  0  0
    3.3348   -3.2420   -0.6479 C   0  0  0  0  0  0  0  0  0  0  0  0
    4.3782   -4.2587   -0.5864 C   0  0  0  0  0  0  0  0  0  0  0  0
    5.5657   -3.8312   -1.0629 C   0  0  0  0  0  0  0  0  0  0  0  0
    5.8857   -2.9749   -2.2813 C   0  0  0  0  0  0  0  0  0  0  0  0
    4.8761   -9.1998    1.5888 H   0  0  0  0  0  0  0  0  0  0  0  0
    5.3015   -8.0713    0.3326 H   0  0  0  0  0  0  0  0  0  0  0  0
    3.7959   -8.9878    0.2349 H   0  0  0  0  0  0  0  0  0  0  0  0
    4.7807   -6.1295   -0.2048 H   0  0  0  0  0  0  0  0  0  0  0  0
    6.2586   -4.8366    2.0086 H   0  0  0  0  0  0  0  0  0  0  0  0
    6.7720   -5.8489    0.6870 H   0  0  0  0  0  0  0  0  0  0  0  0
    6.0436   -1.5989   -0.1079 H   0  0  0  0  0  0  0  0  0  0  0  0
    5.7539   -2.8810    2.6072 H   0  0  0  0  0  0  0  0  0  0  0  0
    5.1331   -0.6640    3.4244 H   0  0  0  0  0  0  0  0  0  0  0  0
    5.3313    0.0216    1.8107 H   0  0  0  0  0  0  0  0  0  0  0  0
    6.7173   -0.6523    2.6666 H   0  0  0  0  0  0  0  0  0  0  0  0
    2.0045   -3.1154    1.8829 H   0  0  0  0  0  0  0  0  0  0  0  0
    4.2368   -4.7051    5.1696 H   0  0  0  0  0  0  0  0  0  0  0  0
    4.6977   -3.1490    4.5451 H   0  0  0  0  0  0  0  0  0  0  0  0
    5.2100   -4.6487    3.7521 H   0  0  0  0  0  0  0  0  0  0  0  0
    1.9176   -4.5348    5.2090 H   0  0  0  0  0  0  0  0  0  0  0  0
    0.9704   -3.8457    3.9064 H   0  0  0  0  0  0  0  0  0  0  0  0
    2.0613   -2.8305    4.8444 H   0  0  0  0  0  0  0  0  0  0  0  0
    1.8746   -5.2848    2.0442 H   0  0  0  0  0  0  0  0  0  0  0  0
    3.1576   -6.6058    4.4255 H   0  0  0  0  0  0  0  0  0  0  0  0
    1.4628   -6.6257    3.9594 H   0  0  0  0  0  0  0  0  0  0  0  0
    1.9099   -8.3120    2.3066 H   0  0  0  0  0  0  0  0  0  0  0  0
    3.2913   -8.6497    3.3757 H   0  0  0  0  0  0  0  0  0  0  0  0
    2.6474   -1.3803    0.0859 H   0  0  0  0  0  0  0  0  0  0  0  0
    2.7424   -3.1330   -1.5533 H   0  0  0  0  0  0  0  0  0  0  0  0
    6.7222   -2.3017   -2.1083 H   0  0  0  0  0  0  0  0  0  0  0  0
    5.0367   -2.4279   -2.6920 H   0  0  0  0  0  0  0  0  0  0  0  0
    6.2319   -3.6645   -3.0513 H   0  0  0  0  0  0  0  0  0  0  0  0
  1  2  1  0
  1 24  1  0
  1 25  1  0
  1 26  1  0
  2 18  1  0
  2  3  2  0
  3 16  1  0
  3  4  1  0
  4 21  1  0
  4  5  1  0
  4 27  1  6
  5  6  1  0
  5 28  1  0
  5 29  1  0
  6  8  1  0
  6 22  1  0
  6  7  1  6
  7  8  1  0
  8  9  1  0
  8 30  1  6
  9 10  1  0
  9 11  1  0
  9 31  1  1
 10 32  1  0
 10 33  1  0
 10 34  1  0
 11 12  2  3
 11 19  1  0
 12 13  1  0
 12 35  1  0
 13 14  1  0
 13 15  1  0
 13 16  1  0
 14 36  1  0
 14 37  1  0
 14 38  1  0
 15 39  1  0
 15 40  1  0
 15 41  1  0
 16 17  1  0
 16 42  1  6
 17 18  1  0
 17 43  1  0
 17 44  1  0
 18 45  1  0
 18 46  1  0
 19 20  2  3
 19 47  1  0
 20 21  1  0
 20 48  1  0
 21 22  2  0
 22 23  1  0
 23 49  1  0
 23 50  1  0
 23 51  1  0
M  END
>  <i_m_ct_stereo_status>  (193) 
1

>  <s_m_source_file>  (193) 
/var/tmp/pbs.5076255.sched01/tmpio9qf6gp/4214r_5_m5.sdf

>  <i_m_source_file_index>  (193) 
36

>  <i_lp_mmshare_version>  (193) 
48012

>  <i_f3d_flags>  (193) 
0

>  <s_epik_input>  (193) 
W0NIXVwxPVtDSF1cQyg9QzJbQ0gzXSlbQ0BASF0oW0NIMl0zKUMoPUMoW0NIM10pW0NIMl1bQ0gyXTQpW0NAQEhdNEMoW0NIM10pKFtDSDNdKS9bQ0hdPUMvMVxbQ0BASF0oW0NASF0oQzIzNSlPNSlbQ0gzXQ==

>  <s_epik_cmdline>  (193) 
J2VwaWtfcHl0aG9uJywgJy1waHQnLCAnMi4wJywgJy1waCcsICc3LjAnLCAnLXRuJywgJzgnLCAnLW1hJywgJzIwMCcsICctaW1hZScsICc8aW5maWxlLm1hZT4nLCAnLW9tYWUnLCAnPG91dGZpbGUubWFlPic=

>  <r_lp_tautomer_probability>  (193) 
1

>  <r_epik_Ionization_Penalty>  (193) 
1.96219e-12

>  <r_epik_Ionization_Penalty_Charging>  (193) 
0

>  <r_epik_Ionization_Penalty_Neutral>  (193) 
1.96219e-12

>  <r_epik_State_Penalty>  (193) 
-0

>  <r_epik_Charging_Adjusted_Penalty>  (193) 
0

>  <i_epik_Tot_Q>  (193) 
0

>  <i_epik_Tot_abs_Q>  (193) 
0

>  <s_lp_Force_Field>  (193) 
OPLS3e

>  <r_lp_Energy>  (193) 
130.215

>  <b_lp_Chiralities_Consistent>  (193) 
1

>  <s_lp_Variant>  (193) 
51:0-1

>  <s_i_glide_gridfile>  (193) 
pfpi4k_grid

>  <i_i_glide_lignum>  (193) 
36

>  <i_i_glide_rotatable_bonds>  (193) 
0

>  <r_i_docking_score>  (193) 
-3.48672

>  <r_i_glide_ligand_efficiency>  (193) 
-0.151597

>  <r_i_glide_ligand_efficiency_sa>  (193) 
-0.431121

>  <r_i_glide_ligand_efficiency_ln>  (193) 
-0.843122

>  <r_i_glide_gscore>  (193) 
-3.48672

>  <r_i_glide_lipo>  (193) 
-0.812069

>  <r_i_glide_hbond>  (193) 
0

>  <r_i_glide_metal>  (193) 
-0

>  <r_i_glide_rewards>  (193) 
-1.30597

>  <r_i_glide_evdw>  (193) 
-23.9777

>  <r_i_glide_ecoul>  (193) 
-1.13198

>  <r_i_glide_erotb>  (193) 
0

>  <r_i_glide_esite>  (193) 
0

>  <r_i_glide_emodel>  (193) 
-30.0563

>  <r_i_glide_energy>  (193) 
-25.1097

>  <r_i_glide_einternal>  (193) 
0

>  <r_i_glide_intrahb_reward>  (193) 
-0

>  <i_i_glide_confnum>  (193) 
1

>  <i_i_glide_posenum>  (193) 
7

>  <r_i_glide_eff_state_penalty>  (193) 
0

>  <ligand_id>  (193) 
51

>  <original_smiles>  (193) 
CC1=C2C3CC45OC4C(C)C(=CC(C)(C)C2CC1)C=CC3=C5C

>  <smiles>  (193) 
[H]C1=C([H])C2=C([H])C(C([H])([H])[H])(C([H])([H])[H])C3([H])C(=C(C([H])([H])[H])C([H])([H])C3([H])[H])C3([H])C1=C(C([H])([H])[H])C1(OC1([H])C2([H])C([H])([H])[H])C3([H])[H]

$$$$
51:0:1
     RDKit          3D

 51 55  0  0  1  0  0  0  0  0999 V2000
    7.2183   -7.1157    2.1417 C   0  0  0  0  0  0  0  0  0  0  0  0
    6.0893   -6.3451    2.8133 C   0  0  0  0  0  0  0  0  0  0  0  0
    5.3260   -5.3390    2.3355 C   0  0  0  0  0  0  0  0  0  0  0  0
    5.5761   -4.7385    0.9190 C   0  0  2  0  0  0  0  0  0  0  0  0
    6.6323   -3.6267    0.8265 C   0  0  0  0  0  0  0  0  0  0  0  0
    6.1393   -2.8698   -0.3558 C   0  0  2  0  0  0  0  0  0  0  0  0
    6.5590   -1.4785   -0.5608 O   0  0  0  0  0  0  0  0  0  0  0  0
    5.1760   -1.6714   -0.2184 C   0  0  2  0  0  0  0  0  0  0  0  0
    4.5184   -1.3946    1.1131 C   0  0  1  0  0  0  0  0  0  0  0  0
    3.9701    0.0225    1.2036 C   0  0  0  0  0  0  0  0  0  0  0  0
    3.3881   -2.4210    1.3353 C   0  0  0  0  0  0  0  0  0  0  0  0
    3.1198   -3.1520    2.4337 C   0  0  0  0  0  0  0  0  0  0  0  0
    3.8591   -3.4670    3.6992 C   0  0  0  0  0  0  0  0  0  0  0  0
    4.9977   -2.5250    4.1059 C   0  0  0  0  0  0  0  0  0  0  0  0
    2.8371   -3.4297    4.8520 C   0  0  0  0  0  0  0  0  0  0  0  0
    4.2920   -4.9421    3.4158 C   0  0  2  0  0  0  0  0  0  0  0  0
    4.8028   -5.6618    4.6994 C   0  0  0  0  0  0  0  0  0  0  0  0
    5.7179   -6.7931    4.1934 C   0  0  0  0  0  0  0  0  0  0  0  0
    2.7101   -3.0708    0.2358 C   0  0  0  0  0  0  0  0  0  0  0  0
    3.2072   -4.2093   -0.3197 C   0  0  0  0  0  0  0  0  0  0  0  0
    4.6495   -4.4834   -0.3099 C   0  0  0  0  0  0  0  0  0  0  0  0
    5.3261   -3.7176   -1.1995 C   0  0  0  0  0  0  0  0  0  0  0  0
    4.9817   -3.3643   -2.6390 C   0  0  0  0  0  0  0  0  0  0  0  0
    8.0405   -7.2365    2.8500 H   0  0  0  0  0  0  0  0  0  0  0  0
    7.6377   -6.6413    1.2594 H   0  0  0  0  0  0  0  0  0  0  0  0
    6.8778   -8.1162    1.8734 H   0  0  0  0  0  0  0  0  0  0  0  0
    6.0649   -5.5795    0.4294 H   0  0  0  0  0  0  0  0  0  0  0  0
    6.7316   -2.9869    1.6854 H   0  0  0  0  0  0  0  0  0  0  0  0
    7.6125   -4.0266    0.6028 H   0  0  0  0  0  0  0  0  0  0  0  0
    4.5351   -1.3830   -1.0581 H   0  0  0  0  0  0  0  0  0  0  0  0
    5.2730   -1.4875    1.8703 H   0  0  0  0  0  0  0  0  0  0  0  0
    3.5840    0.2451    2.2007 H   0  0  0  0  0  0  0  0  0  0  0  0
    3.1745    0.2107    0.4843 H   0  0  0  0  0  0  0  0  0  0  0  0
    4.7747    0.7158    0.9819 H   0  0  0  0  0  0  0  0  0  0  0  0
    2.2655   -3.8183    2.3469 H   0  0  0  0  0  0  0  0  0  0  0  0
    5.2952   -2.6853    5.1412 H   0  0  0  0  0  0  0  0  0  0  0  0
    4.7105   -1.4777    4.0268 H   0  0  0  0  0  0  0  0  0  0  0  0
    5.8793   -2.6956    3.5171 H   0  0  0  0  0  0  0  0  0  0  0  0
    3.2998   -3.6920    5.8058 H   0  0  0  0  0  0  0  0  0  0  0  0
    2.0142   -4.1273    4.6937 H   0  0  0  0  0  0  0  0  0  0  0  0
    2.4147   -2.4321    4.9702 H   0  0  0  0  0  0  0  0  0  0  0  0
    3.4094   -5.5097    3.1048 H   0  0  0  0  0  0  0  0  0  0  0  0
    5.4224   -4.9821    5.2807 H   0  0  0  0  0  0  0  0  0  0  0  0
    4.0055   -6.0234    5.3400 H   0  0  0  0  0  0  0  0  0  0  0  0
    5.1778   -7.7367    4.1433 H   0  0  0  0  0  0  0  0  0  0  0  0
    6.6003   -6.9095    4.8220 H   0  0  0  0  0  0  0  0  0  0  0  0
    1.7020   -2.7765    0.0185 H   0  0  0  0  0  0  0  0  0  0  0  0
    2.5566   -4.7025   -1.0368 H   0  0  0  0  0  0  0  0  0  0  0  0
    5.2939   -2.3536   -2.9015 H   0  0  0  0  0  0  0  0  0  0  0  0
    3.9459   -3.5248   -2.9218 H   0  0  0  0  0  0  0  0  0  0  0  0
    5.5927   -4.0137   -3.2672 H   0  0  0  0  0  0  0  0  0  0  0  0
  1  2  1  0
  1 24  1  0
  1 25  1  0
  1 26  1  0
  2 18  1  0
  2  3  2  0
  3 16  1  0
  3  4  1  0
  4 21  1  0
  4  5  1  0
  4 27  1  6
  5  6  1  0
  5 28  1  0
  5 29  1  0
  6  8  1  0
  6 22  1  0
  6  7  1  6
  7  8  1  0
  8  9  1  0
  8 30  1  6
  9 10  1  0
  9 11  1  0
  9 31  1  1
 10 32  1  0
 10 33  1  0
 10 34  1  0
 11 12  2  3
 11 19  1  0
 12 13  1  0
 12 35  1  0
 13 14  1  0
 13 15  1  0
 13 16  1  0
 14 36  1  0
 14 37  1  0
 14 38  1  0
 15 39  1  0
 15 40  1  0
 15 41  1  0
 16 17  1  0
 16 42  1  6
 17 18  1  0
 17 43  1  0
 17 44  1  0
 18 45  1  0
 18 46  1  0
 19 20  2  3
 19 47  1  0
 20 21  1  0
 20 48  1  0
 21 22  2  0
 22 23  1  0
 23 49  1  0
 23 50  1  0
 23 51  1  0
M  END
>  <i_m_ct_stereo_status>  (194) 
1

>  <s_m_source_file>  (194) 
/var/tmp/pbs.5076255.sched01/tmpio9qf6gp/4214r_5_m5.sdf

>  <i_m_source_file_index>  (194) 
36

>  <i_lp_mmshare_version>  (194) 
48012

>  <i_f3d_flags>  (194) 
0

>  <s_epik_input>  (194) 
W0NIXVwxPVtDSF1cQyg9QzJbQ0gzXSlbQ0BASF0oW0NIMl0zKUMoPUMoW0NIM10pW0NIMl1bQ0gyXTQpW0NAQEhdNEMoW0NIM10pKFtDSDNdKS9bQ0hdPUMvMVxbQ0BASF0oW0NASF0oQzIzNSlPNSlbQ0gzXQ==

>  <s_epik_cmdline>  (194) 
J2VwaWtfcHl0aG9uJywgJy1waHQnLCAnMi4wJywgJy1waCcsICc3LjAnLCAnLXRuJywgJzgnLCAnLW1hJywgJzIwMCcsICctaW1hZScsICc8aW5maWxlLm1hZT4nLCAnLW9tYWUnLCAnPG91dGZpbGUubWFlPic=

>  <r_lp_tautomer_probability>  (194) 
1

>  <r_epik_Ionization_Penalty>  (194) 
1.96219e-12

>  <r_epik_Ionization_Penalty_Charging>  (194) 
0

>  <r_epik_Ionization_Penalty_Neutral>  (194) 
1.96219e-12

>  <r_epik_State_Penalty>  (194) 
-0

>  <r_epik_Charging_Adjusted_Penalty>  (194) 
0

>  <i_epik_Tot_Q>  (194) 
0

>  <i_epik_Tot_abs_Q>  (194) 
0

>  <s_lp_Force_Field>  (194) 
OPLS3e

>  <r_lp_Energy>  (194) 
130.215

>  <b_lp_Chiralities_Consistent>  (194) 
1

>  <s_lp_Variant>  (194) 
51:0-1

>  <s_i_glide_gridfile>  (194) 
pfpi4k_grid

>  <i_i_glide_lignum>  (194) 
36

>  <i_i_glide_rotatable_bonds>  (194) 
0

>  <r_i_docking_score>  (194) 
-3.29365

>  <r_i_glide_ligand_efficiency>  (194) 
-0.143202

>  <r_i_glide_ligand_efficiency_sa>  (194) 
-0.407248

>  <r_i_glide_ligand_efficiency_ln>  (194) 
-0.796435

>  <r_i_glide_gscore>  (194) 
-3.29365

>  <r_i_glide_lipo>  (194) 
-0.531136

>  <r_i_glide_hbond>  (194) 
-0.123175

>  <r_i_glide_metal>  (194) 
-0

>  <r_i_glide_rewards>  (194) 
-1.30597

>  <r_i_glide_evdw>  (194) 
-19.5261

>  <r_i_glide_ecoul>  (194) 
-2.38041

>  <r_i_glide_erotb>  (194) 
0

>  <r_i_glide_esite>  (194) 
0

>  <r_i_glide_emodel>  (194) 
-26.4045

>  <r_i_glide_energy>  (194) 
-21.9065

>  <r_i_glide_einternal>  (194) 
0

>  <r_i_glide_intrahb_reward>  (194) 
-0

>  <i_i_glide_confnum>  (194) 
1

>  <i_i_glide_posenum>  (194) 
22

>  <r_i_glide_eff_state_penalty>  (194) 
0

>  <ligand_id>  (194) 
51

>  <original_smiles>  (194) 
CC1=C2C3CC45OC4C(C)C(=CC(C)(C)C2CC1)C=CC3=C5C

>  <smiles>  (194) 
[H]C1=C([H])C2=C([H])C(C([H])([H])[H])(C([H])([H])[H])C3([H])C(=C(C([H])([H])[H])C([H])([H])C3([H])[H])C3([H])C1=C(C([H])([H])[H])C1(OC1([H])C2([H])C([H])([H])[H])C3([H])[H]

$$$$
51:0:2
     RDKit          3D

 51 55  0  0  1  0  0  0  0  0999 V2000
    1.2295   -4.4580    5.3903 C   0  0  0  0  0  0  0  0  0  0  0  0
    1.4349   -3.1950    4.5589 C   0  0  0  0  0  0  0  0  0  0  0  0
    2.1666   -3.0027    3.4471 C   0  0  0  0  0  0  0  0  0  0  0  0
    3.0273   -4.1447    2.8178 C   0  0  2  0  0  0  0  0  0  0  0  0
    4.4468   -4.3186    3.3908 C   0  0  0  0  0  0  0  0  0  0  0  0
    5.1380   -4.9235    2.2217 C   0  0  2  0  0  0  0  0  0  0  0  0
    6.6068   -4.8587    2.1184 O   0  0  0  0  0  0  0  0  0  0  0  0
    5.8863   -4.0600    1.1673 C   0  0  2  0  0  0  0  0  0  0  0  0
    5.7054   -2.5652    1.1821 C   0  0  1  0  0  0  0  0  0  0  0  0
    6.8296   -1.8368    0.4394 C   0  0  0  0  0  0  0  0  0  0  0  0
    4.3191   -2.2173    0.5845 C   0  0  0  0  0  0  0  0  0  0  0  0
    3.3980   -1.3756    1.0889 C   0  0  0  0  0  0  0  0  0  0  0  0
    3.1774   -0.6825    2.4077 C   0  0  0  0  0  0  0  0  0  0  0  0
    4.3917   -0.5114    3.3402 C   0  0  0  0  0  0  0  0  0  0  0  0
    2.6692    0.7409    2.0918 C   0  0  0  0  0  0  0  0  0  0  0  0
    2.0028   -1.5293    2.9987 C   0  0  2  0  0  0  0  0  0  0  0  0
    1.3331   -0.8414    4.2207 C   0  0  0  0  0  0  0  0  0  0  0  0
    0.6894   -1.9781    5.0254 C   0  0  0  0  0  0  0  0  0  0  0  0
    3.6199   -3.0854   -0.3602 C   0  0  0  0  0  0  0  0  0  0  0  0
    2.8449   -4.1131    0.0856 C   0  0  0  0  0  0  0  0  0  0  0  0
    3.1158   -4.7470    1.3846 C   0  0  0  0  0  0  0  0  0  0  0  0
    4.1756   -5.5902    1.3622 C   0  0  0  0  0  0  0  0  0  0  0  0
    4.6148   -6.5908    0.3066 C   0  0  0  0  0  0  0  0  0  0  0  0
    1.3109   -4.2107    6.4492 H   0  0  0  0  0  0  0  0  0  0  0  0
    1.9517   -5.2464    5.1993 H   0  0  0  0  0  0  0  0  0  0  0  0
    0.2281   -4.8504    5.2240 H   0  0  0  0  0  0  0  0  0  0  0  0
    2.5014   -5.0124    3.2122 H   0  0  0  0  0  0  0  0  0  0  0  0
    4.9380   -3.4271    3.7397 H   0  0  0  0  0  0  0  0  0  0  0  0
    4.4557   -5.0309    4.2103 H   0  0  0  0  0  0  0  0  0  0  0  0
    6.0336   -4.4444    0.1602 H   0  0  0  0  0  0  0  0  0  0  0  0
    5.7654   -2.2419    2.2057 H   0  0  0  0  0  0  0  0  0  0  0  0
    6.7158   -0.7542    0.5261 H   0  0  0  0  0  0  0  0  0  0  0  0
    6.8590   -2.0903   -0.6205 H   0  0  0  0  0  0  0  0  0  0  0  0
    7.7973   -2.0939    0.8738 H   0  0  0  0  0  0  0  0  0  0  0  0
    2.4873   -1.2942    0.5091 H   0  0  0  0  0  0  0  0  0  0  0  0
    4.1919    0.2352    4.1084 H   0  0  0  0  0  0  0  0  0  0  0  0
    5.2665   -0.1558    2.7979 H   0  0  0  0  0  0  0  0  0  0  0  0
    4.6447   -1.4112    3.8826 H   0  0  0  0  0  0  0  0  0  0  0  0
    2.4499    1.3105    2.9972 H   0  0  0  0  0  0  0  0  0  0  0  0
    1.7588    0.7373    1.4909 H   0  0  0  0  0  0  0  0  0  0  0  0
    3.4182    1.3074    1.5445 H   0  0  0  0  0  0  0  0  0  0  0  0
    1.2164   -1.5985    2.2412 H   0  0  0  0  0  0  0  0  0  0  0  0
    2.0949   -0.3878    4.8505 H   0  0  0  0  0  0  0  0  0  0  0  0
    0.6245   -0.0677    3.9453 H   0  0  0  0  0  0  0  0  0  0  0  0
   -0.3668   -2.0821    4.7860 H   0  0  0  0  0  0  0  0  0  0  0  0
    0.8060   -1.8258    6.0989 H   0  0  0  0  0  0  0  0  0  0  0  0
    3.4999   -2.7480   -1.3838 H   0  0  0  0  0  0  0  0  0  0  0  0
    2.2243   -4.6334   -0.6398 H   0  0  0  0  0  0  0  0  0  0  0  0
    5.6983   -6.6304    0.2083 H   0  0  0  0  0  0  0  0  0  0  0  0
    4.1708   -6.4477   -0.6751 H   0  0  0  0  0  0  0  0  0  0  0  0
    4.3189   -7.5777    0.6673 H   0  0  0  0  0  0  0  0  0  0  0  0
  1  2  1  0
  1 24  1  0
  1 25  1  0
  1 26  1  0
  2 18  1  0
  2  3  2  0
  3 16  1  0
  3  4  1  0
  4 21  1  0
  4  5  1  0
  4 27  1  1
  5  6  1  0
  5 28  1  0
  5 29  1  0
  6  8  1  0
  6 22  1  0
  6  7  1  1
  7  8  1  0
  8  9  1  0
  8 30  1  6
  9 10  1  0
  9 11  1  0
  9 31  1  1
 10 32  1  0
 10 33  1  0
 10 34  1  0
 11 12  2  3
 11 19  1  0
 12 13  1  0
 12 35  1  0
 13 14  1  0
 13 15  1  0
 13 16  1  0
 14 36  1  0
 14 37  1  0
 14 38  1  0
 15 39  1  0
 15 40  1  0
 15 41  1  0
 16 17  1  0
 16 42  1  6
 17 18  1  0
 17 43  1  0
 17 44  1  0
 18 45  1  0
 18 46  1  0
 19 20  2  3
 19 47  1  0
 20 21  1  0
 20 48  1  0
 21 22  2  0
 22 23  1  0
 23 49  1  0
 23 50  1  0
 23 51  1  0
M  END
>  <i_m_ct_stereo_status>  (195) 
1

>  <s_m_source_file>  (195) 
/var/tmp/pbs.5076255.sched01/tmpio9qf6gp/4214r_5_m5.sdf

>  <i_m_source_file_index>  (195) 
36

>  <i_lp_mmshare_version>  (195) 
48012

>  <i_f3d_flags>  (195) 
0

>  <s_epik_input>  (195) 
W0NIXVwxPVtDSF1cQyg9QzJbQ0gzXSlbQ0BASF0oW0NIMl0zKUMoPUMoW0NIM10pW0NIMl1bQ0gyXTQpW0NAQEhdNEMoW0NIM10pKFtDSDNdKS9bQ0hdPUMvMVxbQ0BASF0oW0NASF0oQzIzNSlPNSlbQ0gzXQ==

>  <s_epik_cmdline>  (195) 
J2VwaWtfcHl0aG9uJywgJy1waHQnLCAnMi4wJywgJy1waCcsICc3LjAnLCAnLXRuJywgJzgnLCAnLW1hJywgJzIwMCcsICctaW1hZScsICc8aW5maWxlLm1hZT4nLCAnLW9tYWUnLCAnPG91dGZpbGUubWFlPic=

>  <r_lp_tautomer_probability>  (195) 
1

>  <r_epik_Ionization_Penalty>  (195) 
1.96219e-12

>  <r_epik_Ionization_Penalty_Charging>  (195) 
0

>  <r_epik_Ionization_Penalty_Neutral>  (195) 
1.96219e-12

>  <r_epik_State_Penalty>  (195) 
-0

>  <r_epik_Charging_Adjusted_Penalty>  (195) 
0

>  <i_epik_Tot_Q>  (195) 
0

>  <i_epik_Tot_abs_Q>  (195) 
0

>  <s_lp_Force_Field>  (195) 
OPLS3e

>  <r_lp_Energy>  (195) 
130.215

>  <b_lp_Chiralities_Consistent>  (195) 
1

>  <s_lp_Variant>  (195) 
51:0-1

>  <s_i_glide_gridfile>  (195) 
pfpi4k_grid

>  <i_i_glide_lignum>  (195) 
36

>  <i_i_glide_rotatable_bonds>  (195) 
0

>  <r_i_docking_score>  (195) 
-2.9986

>  <r_i_glide_ligand_efficiency>  (195) 
-0.130374

>  <r_i_glide_ligand_efficiency_sa>  (195) 
-0.370767

>  <r_i_glide_ligand_efficiency_ln>  (195) 
-0.72509

>  <r_i_glide_gscore>  (195) 
-2.9986

>  <r_i_glide_lipo>  (195) 
-0.452238

>  <r_i_glide_hbond>  (195) 
0

>  <r_i_glide_metal>  (195) 
-0

>  <r_i_glide_rewards>  (195) 
-1.30597

>  <r_i_glide_evdw>  (195) 
-22.1424

>  <r_i_glide_ecoul>  (195) 
-0.88848

>  <r_i_glide_erotb>  (195) 
0

>  <r_i_glide_esite>  (195) 
0

>  <r_i_glide_emodel>  (195) 
-27.1816

>  <r_i_glide_energy>  (195) 
-23.0309

>  <r_i_glide_einternal>  (195) 
0

>  <r_i_glide_intrahb_reward>  (195) 
-0

>  <i_i_glide_confnum>  (195) 
1

>  <i_i_glide_posenum>  (195) 
2

>  <r_i_glide_eff_state_penalty>  (195) 
0

>  <ligand_id>  (195) 
51

>  <original_smiles>  (195) 
CC1=C2C3CC45OC4C(C)C(=CC(C)(C)C2CC1)C=CC3=C5C

>  <smiles>  (195) 
[H]C1=C([H])C2=C([H])C(C([H])([H])[H])(C([H])([H])[H])C3([H])C(=C(C([H])([H])[H])C([H])([H])C3([H])[H])C3([H])C1=C(C([H])([H])[H])C1(OC1([H])C2([H])C([H])([H])[H])C3([H])[H]

$$$$
51:2:0
     RDKit          3D

 51 55  0  0  1  0  0  0  0  0999 V2000
    3.3814   -5.8109    3.0176 C   0  0  0  0  0  0  0  0  0  0  0  0
    3.5133   -4.3021    3.1189 C   0  0  0  0  0  0  0  0  0  0  0  0
    4.2251   -3.4650    2.3404 C   0  0  0  0  0  0  0  0  0  0  0  0
    5.3122   -3.9676    1.3674 C   0  0  1  0  0  0  0  0  0  0  0  0
    4.7981   -4.8106    0.1624 C   0  0  0  0  0  0  0  0  0  0  0  0
    5.4090   -4.0502   -0.9762 C   0  0  1  0  0  0  0  0  0  0  0  0
    5.1279   -4.0731   -2.4123 O   0  0  0  0  0  0  0  0  0  0  0  0
    4.4099   -3.0946   -1.6324 C   0  0  2  0  0  0  0  0  0  0  0  0
    4.6839   -1.5932   -1.6908 C   0  0  1  0  0  0  0  0  0  0  0  0
    3.7925   -0.8547   -2.6874 C   0  0  0  0  0  0  0  0  0  0  0  0
    4.5911   -1.0695   -0.2499 C   0  0  0  0  0  0  0  0  0  0  0  0
    3.4443   -1.2556    0.4365 C   0  0  0  0  0  0  0  0  0  0  0  0
    3.1435   -1.1136    1.9329 C   0  0  0  0  0  0  0  0  0  0  0  0
    3.2779    0.3527    2.3665 C   0  0  0  0  0  0  0  0  0  0  0  0
    1.6471   -1.4591    2.0902 C   0  0  0  0  0  0  0  0  0  0  0  0
    4.0737   -2.0281    2.8201 C   0  0  1  0  0  0  0  0  0  0  0  0
    3.4864   -2.2259    4.2545 C   0  0  0  0  0  0  0  0  0  0  0  0
    2.7795   -3.6051    4.2202 C   0  0  0  0  0  0  0  0  0  0  0  0
    5.7973   -0.7127    0.4792 C   0  0  0  0  0  0  0  0  0  0  0  0
    6.5990   -1.6436    1.0444 C   0  0  0  0  0  0  0  0  0  0  0  0
    6.4038   -3.0615    0.7479 C   0  0  0  0  0  0  0  0  0  0  0  0
    6.6093   -3.3860   -0.5317 C   0  0  0  0  0  0  0  0  0  0  0  0
    7.7152   -2.9300   -1.4762 C   0  0  0  0  0  0  0  0  0  0  0  0
    3.5385   -6.2678    3.9964 H   0  0  0  0  0  0  0  0  0  0  0  0
    4.0766   -6.2689    2.3202 H   0  0  0  0  0  0  0  0  0  0  0  0
    2.3684   -6.0716    2.7035 H   0  0  0  0  0  0  0  0  0  0  0  0
    5.9271   -4.6316    1.9792 H   0  0  0  0  0  0  0  0  0  0  0  0
    5.2226   -5.8123    0.1643 H   0  0  0  0  0  0  0  0  0  0  0  0
    3.7159   -4.8682    0.0885 H   0  0  0  0  0  0  0  0  0  0  0  0
    3.3503   -3.3516   -1.5332 H   0  0  0  0  0  0  0  0  0  0  0  0
    5.7041   -1.4172   -2.0274 H   0  0  0  0  0  0  0  0  0  0  0  0
    4.0304    0.2095   -2.7167 H   0  0  0  0  0  0  0  0  0  0  0  0
    2.7376   -0.9539   -2.4302 H   0  0  0  0  0  0  0  0  0  0  0  0
    3.9321   -1.2511   -3.6912 H   0  0  0  0  0  0  0  0  0  0  0  0
    2.6146   -1.6234   -0.1342 H   0  0  0  0  0  0  0  0  0  0  0  0
    2.9021    0.5125    3.3779 H   0  0  0  0  0  0  0  0  0  0  0  0
    2.7251    1.0265    1.7079 H   0  0  0  0  0  0  0  0  0  0  0  0
    4.3171    0.6573    2.3671 H   0  0  0  0  0  0  0  0  0  0  0  0
    1.2646   -1.2973    3.0967 H   0  0  0  0  0  0  0  0  0  0  0  0
    1.4435   -2.4941    1.8176 H   0  0  0  0  0  0  0  0  0  0  0  0
    1.0306   -0.8320    1.4446 H   0  0  0  0  0  0  0  0  0  0  0  0
    5.0471   -1.5735    2.9634 H   0  0  0  0  0  0  0  0  0  0  0  0
    4.3361   -2.3251    4.9321 H   0  0  0  0  0  0  0  0  0  0  0  0
    2.8731   -1.4185    4.6373 H   0  0  0  0  0  0  0  0  0  0  0  0
    1.7242   -3.5174    3.9717 H   0  0  0  0  0  0  0  0  0  0  0  0
    2.8865   -4.1373    5.1634 H   0  0  0  0  0  0  0  0  0  0  0  0
    6.0044    0.3284    0.6636 H   0  0  0  0  0  0  0  0  0  0  0  0
    7.4178   -1.2866    1.6418 H   0  0  0  0  0  0  0  0  0  0  0  0
    7.3300   -2.8265   -2.4906 H   0  0  0  0  0  0  0  0  0  0  0  0
    8.4645   -3.7229   -1.5416 H   0  0  0  0  0  0  0  0  0  0  0  0
    8.2356   -2.0298   -1.1754 H   0  0  0  0  0  0  0  0  0  0  0  0
  1  2  1  0
  1 24  1  0
  1 25  1  0
  1 26  1  0
  2 18  1  0
  2  3  2  0
  3 16  1  0
  3  4  1  0
  4 21  1  0
  4  5  1  0
  4 27  1  1
  5  6  1  0
  5 28  1  0
  5 29  1  0
  6  8  1  0
  6 22  1  0
  6  7  1  6
  7  8  1  0
  8  9  1  0
  8 30  1  1
  9 10  1  0
  9 11  1  0
  9 31  1  6
 10 32  1  0
 10 33  1  0
 10 34  1  0
 11 12  2  3
 11 19  1  0
 12 13  1  0
 12 35  1  0
 13 14  1  0
 13 15  1  0
 13 16  1  0
 14 36  1  0
 14 37  1  0
 14 38  1  0
 15 39  1  0
 15 40  1  0
 15 41  1  0
 16 17  1  0
 16 42  1  1
 17 18  1  0
 17 43  1  0
 17 44  1  0
 18 45  1  0
 18 46  1  0
 19 20  2  3
 19 47  1  0
 20 21  1  0
 20 48  1  0
 21 22  2  0
 22 23  1  0
 23 49  1  0
 23 50  1  0
 23 51  1  0
M  END
>  <i_m_ct_stereo_status>  (196) 
1

>  <s_m_source_file>  (196) 
/var/tmp/pbs.5076255.sched01/tmpio9qf6gp/4214r_5_m5.sdf

>  <i_m_source_file_index>  (196) 
38

>  <i_lp_mmshare_version>  (196) 
48012

>  <i_f3d_flags>  (196) 
3

>  <s_epik_input>  (196) 
W0NIXVwxPVtDSF1cQyg9QzJbQ0gzXSlbQ0BASF0oW0NIMl0zKUMoPUMoW0NIM10pW0NIMl1bQ0gyXTQpW0NAQEhdNEMoW0NIM10pKFtDSDNdKS9bQ0hdPUMvMVxbQ0BASF0oW0NASF0oQzIzNSlPNSlbQ0gzXQ==

>  <s_epik_cmdline>  (196) 
J2VwaWtfcHl0aG9uJywgJy1waHQnLCAnMi4wJywgJy1waCcsICc3LjAnLCAnLXRuJywgJzgnLCAnLW1hJywgJzIwMCcsICctaW1hZScsICc8aW5maWxlLm1hZT4nLCAnLW9tYWUnLCAnPG91dGZpbGUubWFlPic=

>  <r_lp_tautomer_probability>  (196) 
1

>  <r_epik_Ionization_Penalty>  (196) 
1.96219e-12

>  <r_epik_Ionization_Penalty_Charging>  (196) 
0

>  <r_epik_Ionization_Penalty_Neutral>  (196) 
1.96219e-12

>  <r_epik_State_Penalty>  (196) 
-0

>  <r_epik_Charging_Adjusted_Penalty>  (196) 
0

>  <i_epik_Tot_Q>  (196) 
0

>  <i_epik_Tot_abs_Q>  (196) 
0

>  <s_lp_Force_Field>  (196) 
OPLS3e

>  <r_lp_Energy>  (196) 
83.3104

>  <b_lp_Chiralities_Consistent>  (196) 
0

>  <s_lp_Variant>  (196) 
51:0-3

>  <s_i_glide_gridfile>  (196) 
pfpi4k_grid

>  <i_i_glide_lignum>  (196) 
38

>  <i_i_glide_rotatable_bonds>  (196) 
0

>  <r_i_docking_score>  (196) 
-3.20174

>  <r_i_glide_ligand_efficiency>  (196) 
-0.139206

>  <r_i_glide_ligand_efficiency_sa>  (196) 
-0.395884

>  <r_i_glide_ligand_efficiency_ln>  (196) 
-0.77421

>  <r_i_glide_gscore>  (196) 
-3.20174

>  <r_i_glide_lipo>  (196) 
-0.564357

>  <r_i_glide_hbond>  (196) 
0

>  <r_i_glide_metal>  (196) 
-0

>  <r_i_glide_rewards>  (196) 
-1.30597

>  <r_i_glide_evdw>  (196) 
-25.1638

>  <r_i_glide_ecoul>  (196) 
-0.488143

>  <r_i_glide_erotb>  (196) 
0

>  <r_i_glide_esite>  (196) 
0

>  <r_i_glide_emodel>  (196) 
-30.0302

>  <r_i_glide_energy>  (196) 
-25.6519

>  <r_i_glide_einternal>  (196) 
0

>  <r_i_glide_intrahb_reward>  (196) 
-0

>  <i_i_glide_confnum>  (196) 
1

>  <i_i_glide_posenum>  (196) 
1

>  <r_i_glide_eff_state_penalty>  (196) 
0

>  <ligand_id>  (196) 
51

>  <original_smiles>  (196) 
CC1=C2C3CC45OC4C(C)C(=CC(C)(C)C2CC1)C=CC3=C5C

>  <smiles>  (196) 
[H]C1=C([H])C2=C([H])C(C([H])([H])[H])(C([H])([H])[H])C3([H])C(=C(C([H])([H])[H])C([H])([H])C3([H])[H])C3([H])C1=C(C([H])([H])[H])C1(OC1([H])C2([H])C([H])([H])[H])C3([H])[H]

$$$$
51:2:1
     RDKit          3D

 51 55  0  0  1  0  0  0  0  0999 V2000
    2.7480    0.1451    2.6674 C   0  0  0  0  0  0  0  0  0  0  0  0
    3.6473   -0.8762    1.9978 C   0  0  0  0  0  0  0  0  0  0  0  0
    3.9168   -2.1414    2.3700 C   0  0  0  0  0  0  0  0  0  0  0  0
    3.5303   -2.7147    3.7520 C   0  0  1  0  0  0  0  0  0  0  0  0
    2.0058   -2.8311    4.0328 C   0  0  0  0  0  0  0  0  0  0  0  0
    1.9039   -4.2772    4.4408 C   0  0  1  0  0  0  0  0  0  0  0  0
    0.7534   -5.1441    4.5490 O   0  0  0  0  0  0  0  0  0  0  0  0
    1.4315   -5.1494    3.2847 C   0  0  2  0  0  0  0  0  0  0  0  0
    2.3239   -6.2993    2.7612 C   0  0  1  0  0  0  0  0  0  0  0  0
    1.5538   -7.2832    1.8646 C   0  0  0  0  0  0  0  0  0  0  0  0
    3.5462   -5.6596    2.0774 C   0  0  0  0  0  0  0  0  0  0  0  0
    3.3292   -4.8200    1.0412 C   0  0  0  0  0  0  0  0  0  0  0  0
    4.2746   -3.8241    0.3676 C   0  0  0  0  0  0  0  0  0  0  0  0
    5.4072   -4.5830   -0.3497 C   0  0  0  0  0  0  0  0  0  0  0  0
    3.4343   -3.1309   -0.7394 C   0  0  0  0  0  0  0  0  0  0  0  0
    4.8983   -2.7821    1.3790 C   0  0  1  0  0  0  0  0  0  0  0  0
    5.4909   -1.5375    0.6720 C   0  0  0  0  0  0  0  0  0  0  0  0
    4.4112   -0.4543    0.7781 C   0  0  0  0  0  0  0  0  0  0  0  0
    4.8537   -5.6795    2.7305 C   0  0  0  0  0  0  0  0  0  0  0  0
    5.1739   -4.8374    3.7435 C   0  0  0  0  0  0  0  0  0  0  0  0
    4.1210   -4.0239    4.3215 C   0  0  0  0  0  0  0  0  0  0  0  0
    3.1825   -4.6829    5.0227 C   0  0  0  0  0  0  0  0  0  0  0  0
    3.2901   -5.9275    5.8981 C   0  0  0  0  0  0  0  0  0  0  0  0
    3.2716    1.0925    2.7943 H   0  0  0  0  0  0  0  0  0  0  0  0
    2.3831   -0.1731    3.6415 H   0  0  0  0  0  0  0  0  0  0  0  0
    1.8849    0.3363    2.0295 H   0  0  0  0  0  0  0  0  0  0  0  0
    3.9256   -1.9696    4.4410 H   0  0  0  0  0  0  0  0  0  0  0  0
    1.7119   -2.2068    4.8761 H   0  0  0  0  0  0  0  0  0  0  0  0
    1.3798   -2.5887    3.1743 H   0  0  0  0  0  0  0  0  0  0  0  0
    0.8661   -4.6599    2.5019 H   0  0  0  0  0  0  0  0  0  0  0  0
    2.6954   -6.8937    3.5934 H   0  0  0  0  0  0  0  0  0  0  0  0
    2.1942   -8.1009    1.5325 H   0  0  0  0  0  0  0  0  0  0  0  0
    1.1385   -6.8091    0.9775 H   0  0  0  0  0  0  0  0  0  0  0  0
    0.7299   -7.7329    2.4191 H   0  0  0  0  0  0  0  0  0  0  0  0
    2.3220   -4.7726    0.6668 H   0  0  0  0  0  0  0  0  0  0  0  0
    5.9938   -3.9139   -0.9814 H   0  0  0  0  0  0  0  0  0  0  0  0
    5.0083   -5.3643   -1.0002 H   0  0  0  0  0  0  0  0  0  0  0  0
    6.0992   -5.0526    0.3484 H   0  0  0  0  0  0  0  0  0  0  0  0
    4.0242   -2.4728   -1.3768 H   0  0  0  0  0  0  0  0  0  0  0  0
    2.6160   -2.5382   -0.3241 H   0  0  0  0  0  0  0  0  0  0  0  0
    2.9859   -3.8617   -1.4144 H   0  0  0  0  0  0  0  0  0  0  0  0
    5.7225   -3.2301    1.9296 H   0  0  0  0  0  0  0  0  0  0  0  0
    6.3463   -1.2011    1.2591 H   0  0  0  0  0  0  0  0  0  0  0  0
    5.8584   -1.7007   -0.3411 H   0  0  0  0  0  0  0  0  0  0  0  0
    3.7464   -0.4371   -0.0817 H   0  0  0  0  0  0  0  0  0  0  0  0
    4.8408    0.5404    0.9003 H   0  0  0  0  0  0  0  0  0  0  0  0
    5.6187   -6.3329    2.3337 H   0  0  0  0  0  0  0  0  0  0  0  0
    6.1704   -4.8533    4.1622 H   0  0  0  0  0  0  0  0  0  0  0  0
    2.4471   -6.6080    5.7715 H   0  0  0  0  0  0  0  0  0  0  0  0
    3.2444   -5.5861    6.9305 H   0  0  0  0  0  0  0  0  0  0  0  0
    4.2217   -6.4810    5.7743 H   0  0  0  0  0  0  0  0  0  0  0  0
  1  2  1  0
  1 24  1  0
  1 25  1  0
  1 26  1  0
  2 18  1  0
  2  3  2  0
  3 16  1  0
  3  4  1  0
  4 21  1  0
  4  5  1  0
  4 27  1  1
  5  6  1  0
  5 28  1  0
  5 29  1  0
  6  8  1  0
  6 22  1  0
  6  7  1  1
  7  8  1  0
  8  9  1  0
  8 30  1  6
  9 10  1  0
  9 11  1  0
  9 31  1  1
 10 32  1  0
 10 33  1  0
 10 34  1  0
 11 12  2  3
 11 19  1  0
 12 13  1  0
 12 35  1  0
 13 14  1  0
 13 15  1  0
 13 16  1  0
 14 36  1  0
 14 37  1  0
 14 38  1  0
 15 39  1  0
 15 40  1  0
 15 41  1  0
 16 17  1  0
 16 42  1  1
 17 18  1  0
 17 43  1  0
 17 44  1  0
 18 45  1  0
 18 46  1  0
 19 20  2  3
 19 47  1  0
 20 21  1  0
 20 48  1  0
 21 22  2  0
 22 23  1  0
 23 49  1  0
 23 50  1  0
 23 51  1  0
M  END
>  <i_m_ct_stereo_status>  (197) 
1

>  <s_m_source_file>  (197) 
/var/tmp/pbs.5076255.sched01/tmpio9qf6gp/4214r_5_m5.sdf

>  <i_m_source_file_index>  (197) 
38

>  <i_lp_mmshare_version>  (197) 
48012

>  <i_f3d_flags>  (197) 
3

>  <s_epik_input>  (197) 
W0NIXVwxPVtDSF1cQyg9QzJbQ0gzXSlbQ0BASF0oW0NIMl0zKUMoPUMoW0NIM10pW0NIMl1bQ0gyXTQpW0NAQEhdNEMoW0NIM10pKFtDSDNdKS9bQ0hdPUMvMVxbQ0BASF0oW0NASF0oQzIzNSlPNSlbQ0gzXQ==

>  <s_epik_cmdline>  (197) 
J2VwaWtfcHl0aG9uJywgJy1waHQnLCAnMi4wJywgJy1waCcsICc3LjAnLCAnLXRuJywgJzgnLCAnLW1hJywgJzIwMCcsICctaW1hZScsICc8aW5maWxlLm1hZT4nLCAnLW9tYWUnLCAnPG91dGZpbGUubWFlPic=

>  <r_lp_tautomer_probability>  (197) 
1

>  <r_epik_Ionization_Penalty>  (197) 
1.96219e-12

>  <r_epik_Ionization_Penalty_Charging>  (197) 
0

>  <r_epik_Ionization_Penalty_Neutral>  (197) 
1.96219e-12

>  <r_epik_State_Penalty>  (197) 
-0

>  <r_epik_Charging_Adjusted_Penalty>  (197) 
0

>  <i_epik_Tot_Q>  (197) 
0

>  <i_epik_Tot_abs_Q>  (197) 
0

>  <s_lp_Force_Field>  (197) 
OPLS3e

>  <r_lp_Energy>  (197) 
83.3104

>  <b_lp_Chiralities_Consistent>  (197) 
0

>  <s_lp_Variant>  (197) 
51:0-3

>  <s_i_glide_gridfile>  (197) 
pfpi4k_grid

>  <i_i_glide_lignum>  (197) 
38

>  <i_i_glide_rotatable_bonds>  (197) 
0

>  <r_i_docking_score>  (197) 
-2.74333

>  <r_i_glide_ligand_efficiency>  (197) 
-0.119275

>  <r_i_glide_ligand_efficiency_sa>  (197) 
-0.339203

>  <r_i_glide_ligand_efficiency_ln>  (197) 
-0.663362

>  <r_i_glide_gscore>  (197) 
-2.74333

>  <r_i_glide_lipo>  (197) 
-0.343318

>  <r_i_glide_hbond>  (197) 
0

>  <r_i_glide_metal>  (197) 
-0

>  <r_i_glide_rewards>  (197) 
-1.30597

>  <r_i_glide_evdw>  (197) 
-20.7885

>  <r_i_glide_ecoul>  (197) 
-0.364093

>  <r_i_glide_erotb>  (197) 
0

>  <r_i_glide_esite>  (197) 
0

>  <r_i_glide_emodel>  (197) 
-25.0851

>  <r_i_glide_energy>  (197) 
-21.1526

>  <r_i_glide_einternal>  (197) 
0

>  <r_i_glide_intrahb_reward>  (197) 
-0

>  <i_i_glide_confnum>  (197) 
2

>  <i_i_glide_posenum>  (197) 
14

>  <r_i_glide_eff_state_penalty>  (197) 
0

>  <ligand_id>  (197) 
51

>  <original_smiles>  (197) 
CC1=C2C3CC45OC4C(C)C(=CC(C)(C)C2CC1)C=CC3=C5C

>  <smiles>  (197) 
[H]C1=C([H])C2=C([H])C(C([H])([H])[H])(C([H])([H])[H])C3([H])C(=C(C([H])([H])[H])C([H])([H])C3([H])[H])C3([H])C1=C(C([H])([H])[H])C1(OC1([H])C2([H])C([H])([H])[H])C3([H])[H]

$$$$
51:3:0
     RDKit          3D

 51 55  0  0  1  0  0  0  0  0999 V2000
    3.3814   -5.8109    3.0176 C   0  0  0  0  0  0  0  0  0  0  0  0
    3.5133   -4.3021    3.1189 C   0  0  0  0  0  0  0  0  0  0  0  0
    4.2251   -3.4650    2.3404 C   0  0  0  0  0  0  0  0  0  0  0  0
    5.3122   -3.9676    1.3674 C   0  0  1  0  0  0  0  0  0  0  0  0
    4.7981   -4.8106    0.1624 C   0  0  0  0  0  0  0  0  0  0  0  0
    5.4090   -4.0502   -0.9762 C   0  0  1  0  0  0  0  0  0  0  0  0
    5.1279   -4.0731   -2.4123 O   0  0  0  0  0  0  0  0  0  0  0  0
    4.4099   -3.0946   -1.6324 C   0  0  2  0  0  0  0  0  0  0  0  0
    4.6839   -1.5932   -1.6908 C   0  0  1  0  0  0  0  0  0  0  0  0
    3.7925   -0.8547   -2.6874 C   0  0  0  0  0  0  0  0  0  0  0  0
    4.5911   -1.0695   -0.2499 C   0  0  0  0  0  0  0  0  0  0  0  0
    3.4443   -1.2556    0.4365 C   0  0  0  0  0  0  0  0  0  0  0  0
    3.1435   -1.1136    1.9329 C   0  0  0  0  0  0  0  0  0  0  0  0
    3.2779    0.3527    2.3665 C   0  0  0  0  0  0  0  0  0  0  0  0
    1.6471   -1.4591    2.0902 C   0  0  0  0  0  0  0  0  0  0  0  0
    4.0737   -2.0281    2.8201 C   0  0  1  0  0  0  0  0  0  0  0  0
    3.4864   -2.2259    4.2545 C   0  0  0  0  0  0  0  0  0  0  0  0
    2.7795   -3.6051    4.2202 C   0  0  0  0  0  0  0  0  0  0  0  0
    5.7973   -0.7127    0.4792 C   0  0  0  0  0  0  0  0  0  0  0  0
    6.5990   -1.6436    1.0444 C   0  0  0  0  0  0  0  0  0  0  0  0
    6.4038   -3.0615    0.7479 C   0  0  0  0  0  0  0  0  0  0  0  0
    6.6093   -3.3860   -0.5317 C   0  0  0  0  0  0  0  0  0  0  0  0
    7.7152   -2.9300   -1.4762 C   0  0  0  0  0  0  0  0  0  0  0  0
    3.5385   -6.2678    3.9964 H   0  0  0  0  0  0  0  0  0  0  0  0
    4.0766   -6.2689    2.3202 H   0  0  0  0  0  0  0  0  0  0  0  0
    2.3684   -6.0716    2.7035 H   0  0  0  0  0  0  0  0  0  0  0  0
    5.9271   -4.6316    1.9792 H   0  0  0  0  0  0  0  0  0  0  0  0
    5.2226   -5.8123    0.1643 H   0  0  0  0  0  0  0  0  0  0  0  0
    3.7159   -4.8682    0.0885 H   0  0  0  0  0  0  0  0  0  0  0  0
    3.3503   -3.3516   -1.5332 H   0  0  0  0  0  0  0  0  0  0  0  0
    5.7041   -1.4172   -2.0274 H   0  0  0  0  0  0  0  0  0  0  0  0
    4.0304    0.2095   -2.7167 H   0  0  0  0  0  0  0  0  0  0  0  0
    2.7376   -0.9539   -2.4302 H   0  0  0  0  0  0  0  0  0  0  0  0
    3.9321   -1.2511   -3.6912 H   0  0  0  0  0  0  0  0  0  0  0  0
    2.6146   -1.6234   -0.1342 H   0  0  0  0  0  0  0  0  0  0  0  0
    2.9021    0.5125    3.3779 H   0  0  0  0  0  0  0  0  0  0  0  0
    2.7251    1.0265    1.7079 H   0  0  0  0  0  0  0  0  0  0  0  0
    4.3171    0.6573    2.3671 H   0  0  0  0  0  0  0  0  0  0  0  0
    1.2646   -1.2973    3.0967 H   0  0  0  0  0  0  0  0  0  0  0  0
    1.4435   -2.4941    1.8176 H   0  0  0  0  0  0  0  0  0  0  0  0
    1.0306   -0.8320    1.4446 H   0  0  0  0  0  0  0  0  0  0  0  0
    5.0471   -1.5735    2.9634 H   0  0  0  0  0  0  0  0  0  0  0  0
    4.3361   -2.3251    4.9321 H   0  0  0  0  0  0  0  0  0  0  0  0
    2.8731   -1.4185    4.6373 H   0  0  0  0  0  0  0  0  0  0  0  0
    1.7242   -3.5174    3.9717 H   0  0  0  0  0  0  0  0  0  0  0  0
    2.8865   -4.1373    5.1634 H   0  0  0  0  0  0  0  0  0  0  0  0
    6.0044    0.3284    0.6636 H   0  0  0  0  0  0  0  0  0  0  0  0
    7.4178   -1.2866    1.6418 H   0  0  0  0  0  0  0  0  0  0  0  0
    7.3300   -2.8265   -2.4906 H   0  0  0  0  0  0  0  0  0  0  0  0
    8.4645   -3.7229   -1.5416 H   0  0  0  0  0  0  0  0  0  0  0  0
    8.2356   -2.0298   -1.1754 H   0  0  0  0  0  0  0  0  0  0  0  0
  1  2  1  0
  1 24  1  0
  1 25  1  0
  1 26  1  0
  2 18  1  0
  2  3  2  0
  3 16  1  0
  3  4  1  0
  4 21  1  0
  4  5  1  0
  4 27  1  1
  5  6  1  0
  5 28  1  0
  5 29  1  0
  6  8  1  0
  6 22  1  0
  6  7  1  6
  7  8  1  0
  8  9  1  0
  8 30  1  1
  9 10  1  0
  9 11  1  0
  9 31  1  6
 10 32  1  0
 10 33  1  0
 10 34  1  0
 11 12  2  3
 11 19  1  0
 12 13  1  0
 12 35  1  0
 13 14  1  0
 13 15  1  0
 13 16  1  0
 14 36  1  0
 14 37  1  0
 14 38  1  0
 15 39  1  0
 15 40  1  0
 15 41  1  0
 16 17  1  0
 16 42  1  1
 17 18  1  0
 17 43  1  0
 17 44  1  0
 18 45  1  0
 18 46  1  0
 19 20  2  3
 19 47  1  0
 20 21  1  0
 20 48  1  0
 21 22  2  0
 22 23  1  0
 23 49  1  0
 23 50  1  0
 23 51  1  0
M  END
>  <i_m_ct_stereo_status>  (198) 
1

>  <s_m_source_file>  (198) 
/var/tmp/pbs.5076255.sched01/tmpio9qf6gp/4214r_5_m5.sdf

>  <i_m_source_file_index>  (198) 
39

>  <i_lp_mmshare_version>  (198) 
48012

>  <i_f3d_flags>  (198) 
3

>  <s_epik_input>  (198) 
W0NIXVwxPVtDSF1cQyg9QzJbQ0gzXSlbQ0BASF0oW0NIMl0zKUMoPUMoW0NIM10pW0NIMl1bQ0gyXTQpW0NAQEhdNEMoW0NIM10pKFtDSDNdKS9bQ0hdPUMvMVxbQ0BASF0oW0NASF0oQzIzNSlPNSlbQ0gzXQ==

>  <s_epik_cmdline>  (198) 
J2VwaWtfcHl0aG9uJywgJy1waHQnLCAnMi4wJywgJy1waCcsICc3LjAnLCAnLXRuJywgJzgnLCAnLW1hJywgJzIwMCcsICctaW1hZScsICc8aW5maWxlLm1hZT4nLCAnLW9tYWUnLCAnPG91dGZpbGUubWFlPic=

>  <r_lp_tautomer_probability>  (198) 
1

>  <r_epik_Ionization_Penalty>  (198) 
1.96219e-12

>  <r_epik_Ionization_Penalty_Charging>  (198) 
0

>  <r_epik_Ionization_Penalty_Neutral>  (198) 
1.96219e-12

>  <r_epik_State_Penalty>  (198) 
-0

>  <r_epik_Charging_Adjusted_Penalty>  (198) 
0

>  <i_epik_Tot_Q>  (198) 
0

>  <i_epik_Tot_abs_Q>  (198) 
0

>  <s_lp_Force_Field>  (198) 
OPLS3e

>  <r_lp_Energy>  (198) 
83.3104

>  <b_lp_Chiralities_Consistent>  (198) 
0

>  <s_lp_Variant>  (198) 
51:0-4

>  <s_i_glide_gridfile>  (198) 
pfpi4k_grid

>  <i_i_glide_lignum>  (198) 
39

>  <i_i_glide_rotatable_bonds>  (198) 
0

>  <r_i_docking_score>  (198) 
-3.20174

>  <r_i_glide_ligand_efficiency>  (198) 
-0.139206

>  <r_i_glide_ligand_efficiency_sa>  (198) 
-0.395884

>  <r_i_glide_ligand_efficiency_ln>  (198) 
-0.77421

>  <r_i_glide_gscore>  (198) 
-3.20174

>  <r_i_glide_lipo>  (198) 
-0.564357

>  <r_i_glide_hbond>  (198) 
0

>  <r_i_glide_metal>  (198) 
-0

>  <r_i_glide_rewards>  (198) 
-1.30597

>  <r_i_glide_evdw>  (198) 
-25.1638

>  <r_i_glide_ecoul>  (198) 
-0.488143

>  <r_i_glide_erotb>  (198) 
0

>  <r_i_glide_esite>  (198) 
0

>  <r_i_glide_emodel>  (198) 
-30.0302

>  <r_i_glide_energy>  (198) 
-25.6519

>  <r_i_glide_einternal>  (198) 
0

>  <r_i_glide_intrahb_reward>  (198) 
-0

>  <i_i_glide_confnum>  (198) 
1

>  <i_i_glide_posenum>  (198) 
1

>  <r_i_glide_eff_state_penalty>  (198) 
0

>  <ligand_id>  (198) 
51

>  <original_smiles>  (198) 
CC1=C2C3CC45OC4C(C)C(=CC(C)(C)C2CC1)C=CC3=C5C

>  <smiles>  (198) 
[H]C1=C([H])C2=C([H])C(C([H])([H])[H])(C([H])([H])[H])C3([H])C(=C(C([H])([H])[H])C([H])([H])C3([H])[H])C3([H])C1=C(C([H])([H])[H])C1(OC1([H])C2([H])C([H])([H])[H])C3([H])[H]

$$$$
51:3:1
     RDKit          3D

 51 55  0  0  1  0  0  0  0  0999 V2000
    2.7480    0.1451    2.6674 C   0  0  0  0  0  0  0  0  0  0  0  0
    3.6473   -0.8762    1.9978 C   0  0  0  0  0  0  0  0  0  0  0  0
    3.9168   -2.1414    2.3700 C   0  0  0  0  0  0  0  0  0  0  0  0
    3.5303   -2.7147    3.7520 C   0  0  1  0  0  0  0  0  0  0  0  0
    2.0058   -2.8311    4.0328 C   0  0  0  0  0  0  0  0  0  0  0  0
    1.9039   -4.2772    4.4408 C   0  0  1  0  0  0  0  0  0  0  0  0
    0.7534   -5.1441    4.5490 O   0  0  0  0  0  0  0  0  0  0  0  0
    1.4315   -5.1494    3.2847 C   0  0  2  0  0  0  0  0  0  0  0  0
    2.3239   -6.2993    2.7612 C   0  0  1  0  0  0  0  0  0  0  0  0
    1.5538   -7.2832    1.8646 C   0  0  0  0  0  0  0  0  0  0  0  0
    3.5462   -5.6596    2.0774 C   0  0  0  0  0  0  0  0  0  0  0  0
    3.3292   -4.8200    1.0412 C   0  0  0  0  0  0  0  0  0  0  0  0
    4.2746   -3.8241    0.3676 C   0  0  0  0  0  0  0  0  0  0  0  0
    5.4072   -4.5830   -0.3497 C   0  0  0  0  0  0  0  0  0  0  0  0
    3.4343   -3.1309   -0.7394 C   0  0  0  0  0  0  0  0  0  0  0  0
    4.8983   -2.7821    1.3790 C   0  0  1  0  0  0  0  0  0  0  0  0
    5.4909   -1.5375    0.6720 C   0  0  0  0  0  0  0  0  0  0  0  0
    4.4112   -0.4543    0.7781 C   0  0  0  0  0  0  0  0  0  0  0  0
    4.8537   -5.6795    2.7305 C   0  0  0  0  0  0  0  0  0  0  0  0
    5.1739   -4.8374    3.7435 C   0  0  0  0  0  0  0  0  0  0  0  0
    4.1210   -4.0239    4.3215 C   0  0  0  0  0  0  0  0  0  0  0  0
    3.1825   -4.6829    5.0227 C   0  0  0  0  0  0  0  0  0  0  0  0
    3.2901   -5.9275    5.8981 C   0  0  0  0  0  0  0  0  0  0  0  0
    3.2716    1.0925    2.7943 H   0  0  0  0  0  0  0  0  0  0  0  0
    2.3831   -0.1731    3.6415 H   0  0  0  0  0  0  0  0  0  0  0  0
    1.8849    0.3363    2.0295 H   0  0  0  0  0  0  0  0  0  0  0  0
    3.9256   -1.9696    4.4410 H   0  0  0  0  0  0  0  0  0  0  0  0
    1.7119   -2.2068    4.8761 H   0  0  0  0  0  0  0  0  0  0  0  0
    1.3798   -2.5887    3.1743 H   0  0  0  0  0  0  0  0  0  0  0  0
    0.8661   -4.6599    2.5019 H   0  0  0  0  0  0  0  0  0  0  0  0
    2.6954   -6.8937    3.5934 H   0  0  0  0  0  0  0  0  0  0  0  0
    2.1942   -8.1009    1.5325 H   0  0  0  0  0  0  0  0  0  0  0  0
    1.1385   -6.8091    0.9775 H   0  0  0  0  0  0  0  0  0  0  0  0
    0.7299   -7.7329    2.4191 H   0  0  0  0  0  0  0  0  0  0  0  0
    2.3220   -4.7726    0.6668 H   0  0  0  0  0  0  0  0  0  0  0  0
    5.9938   -3.9139   -0.9814 H   0  0  0  0  0  0  0  0  0  0  0  0
    5.0083   -5.3643   -1.0002 H   0  0  0  0  0  0  0  0  0  0  0  0
    6.0992   -5.0526    0.3484 H   0  0  0  0  0  0  0  0  0  0  0  0
    4.0242   -2.4728   -1.3768 H   0  0  0  0  0  0  0  0  0  0  0  0
    2.6160   -2.5382   -0.3241 H   0  0  0  0  0  0  0  0  0  0  0  0
    2.9859   -3.8617   -1.4144 H   0  0  0  0  0  0  0  0  0  0  0  0
    5.7225   -3.2301    1.9296 H   0  0  0  0  0  0  0  0  0  0  0  0
    6.3463   -1.2011    1.2591 H   0  0  0  0  0  0  0  0  0  0  0  0
    5.8584   -1.7007   -0.3411 H   0  0  0  0  0  0  0  0  0  0  0  0
    3.7464   -0.4371   -0.0817 H   0  0  0  0  0  0  0  0  0  0  0  0
    4.8408    0.5404    0.9003 H   0  0  0  0  0  0  0  0  0  0  0  0
    5.6187   -6.3329    2.3337 H   0  0  0  0  0  0  0  0  0  0  0  0
    6.1704   -4.8533    4.1622 H   0  0  0  0  0  0  0  0  0  0  0  0
    2.4471   -6.6080    5.7715 H   0  0  0  0  0  0  0  0  0  0  0  0
    3.2444   -5.5861    6.9305 H   0  0  0  0  0  0  0  0  0  0  0  0
    4.2217   -6.4810    5.7743 H   0  0  0  0  0  0  0  0  0  0  0  0
  1  2  1  0
  1 24  1  0
  1 25  1  0
  1 26  1  0
  2 18  1  0
  2  3  2  0
  3 16  1  0
  3  4  1  0
  4 21  1  0
  4  5  1  0
  4 27  1  1
  5  6  1  0
  5 28  1  0
  5 29  1  0
  6  8  1  0
  6 22  1  0
  6  7  1  1
  7  8  1  0
  8  9  1  0
  8 30  1  6
  9 10  1  0
  9 11  1  0
  9 31  1  1
 10 32  1  0
 10 33  1  0
 10 34  1  0
 11 12  2  3
 11 19  1  0
 12 13  1  0
 12 35  1  0
 13 14  1  0
 13 15  1  0
 13 16  1  0
 14 36  1  0
 14 37  1  0
 14 38  1  0
 15 39  1  0
 15 40  1  0
 15 41  1  0
 16 17  1  0
 16 42  1  1
 17 18  1  0
 17 43  1  0
 17 44  1  0
 18 45  1  0
 18 46  1  0
 19 20  2  3
 19 47  1  0
 20 21  1  0
 20 48  1  0
 21 22  2  0
 22 23  1  0
 23 49  1  0
 23 50  1  0
 23 51  1  0
M  END
>  <i_m_ct_stereo_status>  (199) 
1

>  <s_m_source_file>  (199) 
/var/tmp/pbs.5076255.sched01/tmpio9qf6gp/4214r_5_m5.sdf

>  <i_m_source_file_index>  (199) 
39

>  <i_lp_mmshare_version>  (199) 
48012

>  <i_f3d_flags>  (199) 
3

>  <s_epik_input>  (199) 
W0NIXVwxPVtDSF1cQyg9QzJbQ0gzXSlbQ0BASF0oW0NIMl0zKUMoPUMoW0NIM10pW0NIMl1bQ0gyXTQpW0NAQEhdNEMoW0NIM10pKFtDSDNdKS9bQ0hdPUMvMVxbQ0BASF0oW0NASF0oQzIzNSlPNSlbQ0gzXQ==

>  <s_epik_cmdline>  (199) 
J2VwaWtfcHl0aG9uJywgJy1waHQnLCAnMi4wJywgJy1waCcsICc3LjAnLCAnLXRuJywgJzgnLCAnLW1hJywgJzIwMCcsICctaW1hZScsICc8aW5maWxlLm1hZT4nLCAnLW9tYWUnLCAnPG91dGZpbGUubWFlPic=

>  <r_lp_tautomer_probability>  (199) 
1

>  <r_epik_Ionization_Penalty>  (199) 
1.96219e-12

>  <r_epik_Ionization_Penalty_Charging>  (199) 
0

>  <r_epik_Ionization_Penalty_Neutral>  (199) 
1.96219e-12

>  <r_epik_State_Penalty>  (199) 
-0

>  <r_epik_Charging_Adjusted_Penalty>  (199) 
0

>  <i_epik_Tot_Q>  (199) 
0

>  <i_epik_Tot_abs_Q>  (199) 
0

>  <s_lp_Force_Field>  (199) 
OPLS3e

>  <r_lp_Energy>  (199) 
83.3104

>  <b_lp_Chiralities_Consistent>  (199) 
0

>  <s_lp_Variant>  (199) 
51:0-4

>  <s_i_glide_gridfile>  (199) 
pfpi4k_grid

>  <i_i_glide_lignum>  (199) 
39

>  <i_i_glide_rotatable_bonds>  (199) 
0

>  <r_i_docking_score>  (199) 
-2.74333

>  <r_i_glide_ligand_efficiency>  (199) 
-0.119275

>  <r_i_glide_ligand_efficiency_sa>  (199) 
-0.339203

>  <r_i_glide_ligand_efficiency_ln>  (199) 
-0.663362

>  <r_i_glide_gscore>  (199) 
-2.74333

>  <r_i_glide_lipo>  (199) 
-0.343318

>  <r_i_glide_hbond>  (199) 
0

>  <r_i_glide_metal>  (199) 
-0

>  <r_i_glide_rewards>  (199) 
-1.30597

>  <r_i_glide_evdw>  (199) 
-20.7885

>  <r_i_glide_ecoul>  (199) 
-0.364093

>  <r_i_glide_erotb>  (199) 
0

>  <r_i_glide_esite>  (199) 
0

>  <r_i_glide_emodel>  (199) 
-25.0851

>  <r_i_glide_energy>  (199) 
-21.1526

>  <r_i_glide_einternal>  (199) 
0

>  <r_i_glide_intrahb_reward>  (199) 
-0

>  <i_i_glide_confnum>  (199) 
2

>  <i_i_glide_posenum>  (199) 
14

>  <r_i_glide_eff_state_penalty>  (199) 
0

>  <ligand_id>  (199) 
51

>  <original_smiles>  (199) 
CC1=C2C3CC45OC4C(C)C(=CC(C)(C)C2CC1)C=CC3=C5C

>  <smiles>  (199) 
[H]C1=C([H])C2=C([H])C(C([H])([H])[H])(C([H])([H])[H])C3([H])C(=C(C([H])([H])[H])C([H])([H])C3([H])[H])C3([H])C1=C(C([H])([H])[H])C1(OC1([H])C2([H])C([H])([H])[H])C3([H])[H]

$$$$
51:4:0
     RDKit          3D

 51 55  0  0  1  0  0  0  0  0999 V2000
    1.3750    0.4385    1.6925 C   0  0  0  0  0  0  0  0  0  0  0  0
    1.8635   -0.6413    2.6304 C   0  0  0  0  0  0  0  0  0  0  0  0
    2.9569   -1.4010    2.5123 C   0  0  0  0  0  0  0  0  0  0  0  0
    3.9018   -1.4145    1.3095 C   0  0  2  0  0  0  0  0  0  0  0  0
    5.2812   -0.7387    1.1576 C   0  0  0  0  0  0  0  0  0  0  0  0
    5.7690   -1.7028    0.0835 C   0  0  1  0  0  0  0  0  0  0  0  0
    7.0584   -2.2815   -0.2156 O   0  0  0  0  0  0  0  0  0  0  0  0
    6.2973   -2.9919    0.7711 C   0  0  2  0  0  0  0  0  0  0  0  0
    5.5787   -4.3771    0.5753 C   0  0  1  0  0  0  0  0  0  0  0  0
    6.4456   -5.5829    0.9598 C   0  0  0  0  0  0  0  0  0  0  0  0
    4.0882   -4.5372    1.0691 C   0  0  0  0  0  0  0  0  0  0  0  0
    3.4799   -4.3640    2.2899 C   0  0  0  0  0  0  0  0  0  0  0  0
    3.8486   -3.7461    3.6437 C   0  0  0  0  0  0  0  0  0  0  0  0
    3.3547   -4.6928    4.7649 C   0  0  0  0  0  0  0  0  0  0  0  0
    5.3535   -3.5762    3.9129 C   0  0  0  0  0  0  0  0  0  0  0  0
    3.1494   -2.3101    3.7634 C   0  0  2  0  0  0  0  0  0  0  0  0
    1.7193   -2.2802    4.3601 C   0  0  0  0  0  0  0  0  0  0  0  0
    1.0968   -0.9508    3.8865 C   0  0  0  0  0  0  0  0  0  0  0  0
    3.0471   -4.4041    0.0617 C   0  0  0  0  0  0  0  0  0  0  0  0
    2.6748   -3.1624   -0.3408 C   0  0  0  0  0  0  0  0  0  0  0  0
    3.5560   -2.0303   -0.0661 C   0  0  0  0  0  0  0  0  0  0  0  0
    4.6525   -1.9400   -0.8370 C   0  0  0  0  0  0  0  0  0  0  0  0
    4.8956   -2.3951   -2.2698 C   0  0  0  0  0  0  0  0  0  0  0  0
    0.3675    0.2038    1.3496 H   0  0  0  0  0  0  0  0  0  0  0  0
    2.0176    0.5247    0.8202 H   0  0  0  0  0  0  0  0  0  0  0  0
    1.3511    1.4058    2.1927 H   0  0  0  0  0  0  0  0  0  0  0  0
    4.3488   -2.2233    1.8072 H   0  0  0  0  0  0  0  0  0  0  0  0
    5.1869    0.2635    0.7425 H   0  0  0  0  0  0  0  0  0  0  0  0
    5.9162   -0.7260    2.0439 H   0  0  0  0  0  0  0  0  0  0  0  0
    6.7957   -2.9174    1.7268 H   0  0  0  0  0  0  0  0  0  0  0  0
    5.4870   -4.4916   -0.5087 H   0  0  0  0  0  0  0  0  0  0  0  0
    6.0603   -6.4933    0.4954 H   0  0  0  0  0  0  0  0  0  0  0  0
    6.4769   -5.7691    2.0301 H   0  0  0  0  0  0  0  0  0  0  0  0
    7.4671   -5.4485    0.6114 H   0  0  0  0  0  0  0  0  0  0  0  0
    2.4003   -4.4595    2.2771 H   0  0  0  0  0  0  0  0  0  0  0  0
    3.4835   -4.2445    5.7512 H   0  0  0  0  0  0  0  0  0  0  0  0
    3.9070   -5.6333    4.7629 H   0  0  0  0  0  0  0  0  0  0  0  0
    2.2989   -4.9444    4.6632 H   0  0  0  0  0  0  0  0  0  0  0  0
    5.5505   -3.4809    4.9811 H   0  0  0  0  0  0  0  0  0  0  0  0
    5.7488   -2.6627    3.4841 H   0  0  0  0  0  0  0  0  0  0  0  0
    5.9332   -4.4276    3.5784 H   0  0  0  0  0  0  0  0  0  0  0  0
    3.7679   -1.7090    4.4377 H   0  0  0  0  0  0  0  0  0  0  0  0
    1.1326   -3.0901    3.9241 H   0  0  0  0  0  0  0  0  0  0  0  0
    1.6978   -2.4015    5.4452 H   0  0  0  0  0  0  0  0  0  0  0  0
    1.2585   -0.1505    4.6107 H   0  0  0  0  0  0  0  0  0  0  0  0
    0.0299   -1.0403    3.6772 H   0  0  0  0  0  0  0  0  0  0  0  0
    2.4711   -5.2685   -0.2421 H   0  0  0  0  0  0  0  0  0  0  0  0
    1.8512   -3.0469   -1.0334 H   0  0  0  0  0  0  0  0  0  0  0  0
    5.8081   -2.9860   -2.3806 H   0  0  0  0  0  0  0  0  0  0  0  0
    5.0225   -1.4895   -2.8599 H   0  0  0  0  0  0  0  0  0  0  0  0
    4.0582   -2.9407   -2.7002 H   0  0  0  0  0  0  0  0  0  0  0  0
  1  2  1  0
  1 24  1  0
  1 25  1  0
  1 26  1  0
  2 18  1  0
  2  3  2  0
  3 16  1  0
  3  4  1  0
  4 21  1  0
  4  5  1  0
  4 27  1  1
  5  6  1  0
  5 28  1  0
  5 29  1  0
  6  8  1  0
  6 22  1  0
  6  7  1  6
  7  8  1  0
  8  9  1  0
  8 30  1  1
  9 10  1  0
  9 11  1  0
  9 31  1  6
 10 32  1  0
 10 33  1  0
 10 34  1  0
 11 12  2  3
 11 19  1  0
 12 13  1  0
 12 35  1  0
 13 14  1  0
 13 15  1  0
 13 16  1  0
 14 36  1  0
 14 37  1  0
 14 38  1  0
 15 39  1  0
 15 40  1  0
 15 41  1  0
 16 17  1  0
 16 42  1  1
 17 18  1  0
 17 43  1  0
 17 44  1  0
 18 45  1  0
 18 46  1  0
 19 20  2  3
 19 47  1  0
 20 21  1  0
 20 48  1  0
 21 22  2  0
 22 23  1  0
 23 49  1  0
 23 50  1  0
 23 51  1  0
M  END
>  <i_m_ct_stereo_status>  (200) 
1

>  <s_m_source_file>  (200) 
/var/tmp/pbs.5076255.sched01/tmpio9qf6gp/4214r_5_m5.sdf

>  <i_m_source_file_index>  (200) 
40

>  <i_lp_mmshare_version>  (200) 
48012

>  <i_f3d_flags>  (200) 
0

>  <s_epik_input>  (200) 
W0NIXVwxPVtDSF1cQyg9QzJbQ0gzXSlbQ0BASF0oW0NIMl0zKUMoPUMoW0NIM10pW0NIMl1bQ0gyXTQpW0NAQEhdNEMoW0NIM10pKFtDSDNdKS9bQ0hdPUMvMVxbQ0BASF0oW0NASF0oQzIzNSlPNSlbQ0gzXQ==

>  <s_epik_cmdline>  (200) 
J2VwaWtfcHl0aG9uJywgJy1waHQnLCAnMi4wJywgJy1waCcsICc3LjAnLCAnLXRuJywgJzgnLCAnLW1hJywgJzIwMCcsICctaW1hZScsICc8aW5maWxlLm1hZT4nLCAnLW9tYWUnLCAnPG91dGZpbGUubWFlPic=

>  <r_lp_tautomer_probability>  (200) 
1

>  <r_epik_Ionization_Penalty>  (200) 
1.96219e-12

>  <r_epik_Ionization_Penalty_Charging>  (200) 
0

>  <r_epik_Ionization_Penalty_Neutral>  (200) 
1.96219e-12

>  <r_epik_State_Penalty>  (200) 
-0

>  <r_epik_Charging_Adjusted_Penalty>  (200) 
0

>  <i_epik_Tot_Q>  (200) 
0

>  <i_epik_Tot_abs_Q>  (200) 
0

>  <s_lp_Force_Field>  (200) 
OPLS3e

>  <r_lp_Energy>  (200) 
135.854

>  <b_lp_Chiralities_Consistent>  (200) 
1

>  <s_lp_Variant>  (200) 
51:0-5

>  <s_i_glide_gridfile>  (200) 
pfpi4k_grid

>  <i_i_glide_lignum>  (200) 
40

>  <i_i_glide_rotatable_bonds>  (200) 
0

>  <r_i_docking_score>  (200) 
-3.17477

>  <r_i_glide_ligand_efficiency>  (200) 
-0.138033

>  <r_i_glide_ligand_efficiency_sa>  (200) 
-0.392548

>  <r_i_glide_ligand_efficiency_ln>  (200) 
-0.767687

>  <r_i_glide_gscore>  (200) 
-3.17477

>  <r_i_glide_lipo>  (200) 
-0.525218

>  <r_i_glide_hbond>  (200) 
-0.0414764

>  <r_i_glide_metal>  (200) 
-0

>  <r_i_glide_rewards>  (200) 
-1.30597

>  <r_i_glide_evdw>  (200) 
-23.256

>  <r_i_glide_ecoul>  (200) 
-0.928654

>  <r_i_glide_erotb>  (200) 
0

>  <r_i_glide_esite>  (200) 
0

>  <r_i_glide_emodel>  (200) 
-28.7324

>  <r_i_glide_energy>  (200) 
-24.1846

>  <r_i_glide_einternal>  (200) 
0

>  <r_i_glide_intrahb_reward>  (200) 
-0

>  <i_i_glide_confnum>  (200) 
2

>  <i_i_glide_posenum>  (200) 
26

>  <r_i_glide_eff_state_penalty>  (200) 
0

>  <ligand_id>  (200) 
51

>  <original_smiles>  (200) 
CC1=C2C3CC45OC4C(C)C(=CC(C)(C)C2CC1)C=CC3=C5C

>  <smiles>  (200) 
[H]C1=C([H])C2=C([H])C(C([H])([H])[H])(C([H])([H])[H])C3([H])C(=C(C([H])([H])[H])C([H])([H])C3([H])[H])C3([H])C1=C(C([H])([H])[H])C1(OC1([H])C2([H])C([H])([H])[H])C3([H])[H]

$$$$
51:4:1
     RDKit          3D

 51 55  0  0  1  0  0  0  0  0999 V2000
    2.9406    0.2390    1.5453 C   0  0  0  0  0  0  0  0  0  0  0  0
    2.1675   -0.5413    2.5846 C   0  0  0  0  0  0  0  0  0  0  0  0
    1.0960   -0.1426    3.2756 C   0  0  0  0  0  0  0  0  0  0  0  0
    0.4893    1.2554    3.2348 C   0  0  2  0  0  0  0  0  0  0  0  0
   -0.7760    1.7389    2.4962 C   0  0  0  0  0  0  0  0  0  0  0  0
   -1.0249    2.9210    3.4271 C   0  0  1  0  0  0  0  0  0  0  0  0
   -2.2197    3.5445    3.9561 O   0  0  0  0  0  0  0  0  0  0  0  0
   -1.7691    2.4022    4.6863 C   0  0  2  0  0  0  0  0  0  0  0  0
   -1.0979    2.4296    6.1070 C   0  0  1  0  0  0  0  0  0  0  0  0
   -2.0951    2.2984    7.2668 C   0  0  0  0  0  0  0  0  0  0  0  0
    0.2145    1.5866    6.3413 C   0  0  0  0  0  0  0  0  0  0  0  0
    0.4984    0.2483    6.2043 C   0  0  0  0  0  0  0  0  0  0  0  0
   -0.1747   -0.9765    5.5694 C   0  0  0  0  0  0  0  0  0  0  0  0
   -0.0176   -2.1762    6.5379 C   0  0  0  0  0  0  0  0  0  0  0  0
   -1.6916   -0.8571    5.3092 C   0  0  0  0  0  0  0  0  0  0  0  0
    0.5476   -1.2936    4.1755 C   0  0  2  0  0  0  0  0  0  0  0  0
    1.7803   -2.2333    4.2181 C   0  0  0  0  0  0  0  0  0  0  0  0
    2.5707   -1.9476    2.9239 C   0  0  0  0  0  0  0  0  0  0  0  0
    1.4847    2.3001    6.2538 C   0  0  0  0  0  0  0  0  0  0  0  0
    2.0142    2.5652    5.0288 C   0  0  0  0  0  0  0  0  0  0  0  0
    1.1432    2.5095    3.8580 C   0  0  0  0  0  0  0  0  0  0  0  0
    0.2785    3.5298    3.7225 C   0  0  0  0  0  0  0  0  0  0  0  0
    0.3830    4.9820    4.1637 C   0  0  0  0  0  0  0  0  0  0  0  0
    3.9890    0.3116    1.8283 H   0  0  0  0  0  0  0  0  0  0  0  0
    2.5406    1.2438    1.4195 H   0  0  0  0  0  0  0  0  0  0  0  0
    2.8743   -0.2675    0.5832 H   0  0  0  0  0  0  0  0  0  0  0  0
   -0.1052    0.9024    4.0218 H   0  0  0  0  0  0  0  0  0  0  0  0
   -0.5236    2.0949    1.5001 H   0  0  0  0  0  0  0  0  0  0  0  0
   -1.6126    1.0386    2.4465 H   0  0  0  0  0  0  0  0  0  0  0  0
   -2.4851    1.5991    4.5717 H   0  0  0  0  0  0  0  0  0  0  0  0
   -0.7425    3.4574    6.2218 H   0  0  0  0  0  0  0  0  0  0  0  0
   -1.6531    2.6668    8.1956 H   0  0  0  0  0  0  0  0  0  0  0  0
   -2.4067    1.2762    7.4543 H   0  0  0  0  0  0  0  0  0  0  0  0
   -2.9862    2.8924    7.0740 H   0  0  0  0  0  0  0  0  0  0  0  0
    1.5416   -0.0068    6.3531 H   0  0  0  0  0  0  0  0  0  0  0  0
   -0.3700   -3.1040    6.0849 H   0  0  0  0  0  0  0  0  0  0  0  0
   -0.5802   -2.0253    7.4581 H   0  0  0  0  0  0  0  0  0  0  0  0
    1.0212   -2.3408    6.8276 H   0  0  0  0  0  0  0  0  0  0  0  0
   -2.1437   -1.8446    5.2315 H   0  0  0  0  0  0  0  0  0  0  0  0
   -1.9141   -0.3716    4.3659 H   0  0  0  0  0  0  0  0  0  0  0  0
   -2.2221   -0.3504    6.1026 H   0  0  0  0  0  0  0  0  0  0  0  0
   -0.1887   -1.7995    3.5474 H   0  0  0  0  0  0  0  0  0  0  0  0
    2.4196   -1.9493    5.0563 H   0  0  0  0  0  0  0  0  0  0  0  0
    1.5231   -3.2881    4.3399 H   0  0  0  0  0  0  0  0  0  0  0  0
    2.2706   -2.6141    2.1129 H   0  0  0  0  0  0  0  0  0  0  0  0
    3.6500   -2.0139    3.0679 H   0  0  0  0  0  0  0  0  0  0  0  0
    2.0806    2.4482    7.1456 H   0  0  0  0  0  0  0  0  0  0  0  0
    2.9958    3.0099    4.9439 H   0  0  0  0  0  0  0  0  0  0  0  0
   -0.4954    5.3251    4.7131 H   0  0  0  0  0  0  0  0  0  0  0  0
    0.4360    5.5708    3.2484 H   0  0  0  0  0  0  0  0  0  0  0  0
    1.2794    5.2029    4.7405 H   0  0  0  0  0  0  0  0  0  0  0  0
  1  2  1  0
  1 24  1  0
  1 25  1  0
  1 26  1  0
  2 18  1  0
  2  3  2  0
  3 16  1  0
  3  4  1  0
  4 21  1  0
  4  5  1  0
  4 27  1  1
  5  6  1  0
  5 28  1  0
  5 29  1  0
  6  8  1  0
  6 22  1  0
  6  7  1  6
  7  8  1  0
  8  9  1  0
  8 30  1  6
  9 10  1  0
  9 11  1  0
  9 31  1  1
 10 32  1  0
 10 33  1  0
 10 34  1  0
 11 12  2  3
 11 19  1  0
 12 13  1  0
 12 35  1  0
 13 14  1  0
 13 15  1  0
 13 16  1  0
 14 36  1  0
 14 37  1  0
 14 38  1  0
 15 39  1  0
 15 40  1  0
 15 41  1  0
 16 17  1  0
 16 42  1  6
 17 18  1  0
 17 43  1  0
 17 44  1  0
 18 45  1  0
 18 46  1  0
 19 20  2  3
 19 47  1  0
 20 21  1  0
 20 48  1  0
 21 22  2  0
 22 23  1  0
 23 49  1  0
 23 50  1  0
 23 51  1  0
M  END
>  <i_m_ct_stereo_status>  (201) 
1

>  <s_m_source_file>  (201) 
/var/tmp/pbs.5076255.sched01/tmpio9qf6gp/4214r_5_m5.sdf

>  <i_m_source_file_index>  (201) 
40

>  <i_lp_mmshare_version>  (201) 
48012

>  <i_f3d_flags>  (201) 
0

>  <s_epik_input>  (201) 
W0NIXVwxPVtDSF1cQyg9QzJbQ0gzXSlbQ0BASF0oW0NIMl0zKUMoPUMoW0NIM10pW0NIMl1bQ0gyXTQpW0NAQEhdNEMoW0NIM10pKFtDSDNdKS9bQ0hdPUMvMVxbQ0BASF0oW0NASF0oQzIzNSlPNSlbQ0gzXQ==

>  <s_epik_cmdline>  (201) 
J2VwaWtfcHl0aG9uJywgJy1waHQnLCAnMi4wJywgJy1waCcsICc3LjAnLCAnLXRuJywgJzgnLCAnLW1hJywgJzIwMCcsICctaW1hZScsICc8aW5maWxlLm1hZT4nLCAnLW9tYWUnLCAnPG91dGZpbGUubWFlPic=

>  <r_lp_tautomer_probability>  (201) 
1

>  <r_epik_Ionization_Penalty>  (201) 
1.96219e-12

>  <r_epik_Ionization_Penalty_Charging>  (201) 
0

>  <r_epik_Ionization_Penalty_Neutral>  (201) 
1.96219e-12

>  <r_epik_State_Penalty>  (201) 
-0

>  <r_epik_Charging_Adjusted_Penalty>  (201) 
0

>  <i_epik_Tot_Q>  (201) 
0

>  <i_epik_Tot_abs_Q>  (201) 
0

>  <s_lp_Force_Field>  (201) 
OPLS3e

>  <r_lp_Energy>  (201) 
135.854

>  <b_lp_Chiralities_Consistent>  (201) 
1

>  <s_lp_Variant>  (201) 
51:0-5

>  <s_i_glide_gridfile>  (201) 
pfpi4k_grid

>  <i_i_glide_lignum>  (201) 
40

>  <i_i_glide_rotatable_bonds>  (201) 
0

>  <r_i_docking_score>  (201) 
-2.71566

>  <r_i_glide_ligand_efficiency>  (201) 
-0.118072

>  <r_i_glide_ligand_efficiency_sa>  (201) 
-0.335781

>  <r_i_glide_ligand_efficiency_ln>  (201) 
-0.656671

>  <r_i_glide_gscore>  (201) 
-2.71566

>  <r_i_glide_lipo>  (201) 
-0.0246217

>  <r_i_glide_hbond>  (201) 
0

>  <r_i_glide_metal>  (201) 
-0

>  <r_i_glide_rewards>  (201) 
-1.30597

>  <r_i_glide_evdw>  (201) 
-24.8741

>  <r_i_glide_ecoul>  (201) 
-0.942391

>  <r_i_glide_erotb>  (201) 
0

>  <r_i_glide_esite>  (201) 
0

>  <r_i_glide_emodel>  (201) 
-29.6582

>  <r_i_glide_energy>  (201) 
-25.8165

>  <r_i_glide_einternal>  (201) 
0

>  <r_i_glide_intrahb_reward>  (201) 
-0

>  <i_i_glide_confnum>  (201) 
2

>  <i_i_glide_posenum>  (201) 
21

>  <r_i_glide_eff_state_penalty>  (201) 
0

>  <ligand_id>  (201) 
51

>  <original_smiles>  (201) 
CC1=C2C3CC45OC4C(C)C(=CC(C)(C)C2CC1)C=CC3=C5C

>  <smiles>  (201) 
[H]C1=C([H])C2=C([H])C(C([H])([H])[H])(C([H])([H])[H])C3([H])C(=C(C([H])([H])[H])C([H])([H])C3([H])[H])C3([H])C1=C(C([H])([H])[H])C1(OC1([H])C2([H])C([H])([H])[H])C3([H])[H]

$$$$
51:4:2
     RDKit          3D

 51 55  0  0  1  0  0  0  0  0999 V2000
   -2.3830    2.5286    6.9193 C   0  0  0  0  0  0  0  0  0  0  0  0
   -1.4775    2.6224    5.7093 C   0  0  0  0  0  0  0  0  0  0  0  0
   -0.8372    1.6286    5.0891 C   0  0  0  0  0  0  0  0  0  0  0  0
   -0.8045    0.1797    5.5632 C   0  0  2  0  0  0  0  0  0  0  0  0
   -1.5986   -1.0254    5.0223 C   0  0  0  0  0  0  0  0  0  0  0  0
   -0.5769   -2.0592    5.4839 C   0  0  1  0  0  0  0  0  0  0  0  0
   -0.1103   -3.3062    4.9310 O   0  0  0  0  0  0  0  0  0  0  0  0
    0.5665   -2.1461    4.4358 C   0  0  2  0  0  0  0  0  0  0  0  0
    2.0298   -1.7106    4.7949 C   0  0  1  0  0  0  0  0  0  0  0  0
    3.0911   -2.2484    3.8277 C   0  0  0  0  0  0  0  0  0  0  0  0
    2.2916   -0.2094    5.1997 C   0  0  0  0  0  0  0  0  0  0  0  0
    2.0574    0.9816    4.5550 C   0  0  0  0  0  0  0  0  0  0  0  0
    1.2684    1.4514    3.3247 C   0  0  0  0  0  0  0  0  0  0  0  0
    2.1481    2.4585    2.5442 C   0  0  0  0  0  0  0  0  0  0  0  0
    0.9076    0.3624    2.2933 C   0  0  0  0  0  0  0  0  0  0  0  0
   -0.0905    2.1431    3.8189 C   0  0  2  0  0  0  0  0  0  0  0  0
   -0.0277    3.6628    4.1229 C   0  0  0  0  0  0  0  0  0  0  0  0
   -1.2262    3.9492    5.0533 C   0  0  0  0  0  0  0  0  0  0  0  0
    2.3722    0.0885    6.6247 C   0  0  0  0  0  0  0  0  0  0  0  0
    1.2222    0.2227    7.3401 C   0  0  0  0  0  0  0  0  0  0  0  0
   -0.0127   -0.3249    6.7906 C   0  0  0  0  0  0  0  0  0  0  0  0
   -0.1265   -1.6649    6.8219 C   0  0  0  0  0  0  0  0  0  0  0  0
    0.4444   -2.6869    7.7953 C   0  0  0  0  0  0  0  0  0  0  0  0
   -2.0071    3.1695    7.7147 H   0  0  0  0  0  0  0  0  0  0  0  0
   -2.4530    1.5113    7.2975 H   0  0  0  0  0  0  0  0  0  0  0  0
   -3.3864    2.8615    6.6552 H   0  0  0  0  0  0  0  0  0  0  0  0
   -0.1062    0.0671    4.7892 H   0  0  0  0  0  0  0  0  0  0  0  0
   -2.5379   -1.1605    5.5568 H   0  0  0  0  0  0  0  0  0  0  0  0
   -1.7667   -1.0333    3.9494 H   0  0  0  0  0  0  0  0  0  0  0  0
    0.3379   -2.0248    3.3859 H   0  0  0  0  0  0  0  0  0  0  0  0
    2.2626   -2.2519    5.7173 H   0  0  0  0  0  0  0  0  0  0  0  0
    4.0808   -2.2249    4.2893 H   0  0  0  0  0  0  0  0  0  0  0  0
    3.1611   -1.6794    2.9041 H   0  0  0  0  0  0  0  0  0  0  0  0
    2.8807   -3.2851    3.5680 H   0  0  0  0  0  0  0  0  0  0  0  0
    2.2723    1.8644    5.1473 H   0  0  0  0  0  0  0  0  0  0  0  0
    1.5919    2.9211    1.7278 H   0  0  0  0  0  0  0  0  0  0  0  0
    3.0152    1.9714    2.1013 H   0  0  0  0  0  0  0  0  0  0  0  0
    2.5189    3.2693    3.1703 H   0  0  0  0  0  0  0  0  0  0  0  0
    0.6815    0.8064    1.3232 H   0  0  0  0  0  0  0  0  0  0  0  0
    0.0041   -0.1727    2.5594 H   0  0  0  0  0  0  0  0  0  0  0  0
    1.7161   -0.3366    2.1149 H   0  0  0  0  0  0  0  0  0  0  0  0
   -0.8154    2.0300    3.0102 H   0  0  0  0  0  0  0  0  0  0  0  0
    0.8815    3.8777    4.6865 H   0  0  0  0  0  0  0  0  0  0  0  0
   -0.0182    4.2884    3.2296 H   0  0  0  0  0  0  0  0  0  0  0  0
   -2.1112    4.2375    4.4849 H   0  0  0  0  0  0  0  0  0  0  0  0
   -0.9989    4.7115    5.8005 H   0  0  0  0  0  0  0  0  0  0  0  0
    3.3184    0.3835    7.0605 H   0  0  0  0  0  0  0  0  0  0  0  0
    1.2570    0.5350    8.3736 H   0  0  0  0  0  0  0  0  0  0  0  0
    0.9490   -3.5158    7.2945 H   0  0  0  0  0  0  0  0  0  0  0  0
   -0.4033   -3.1158    8.3254 H   0  0  0  0  0  0  0  0  0  0  0  0
    1.1102   -2.2553    8.5409 H   0  0  0  0  0  0  0  0  0  0  0  0
  1  2  1  0
  1 24  1  0
  1 25  1  0
  1 26  1  0
  2 18  1  0
  2  3  2  0
  3 16  1  0
  3  4  1  0
  4 21  1  0
  4  5  1  0
  4 27  1  6
  5  6  1  0
  5 28  1  0
  5 29  1  0
  6  8  1  0
  6 22  1  0
  6  7  1  1
  7  8  1  0
  8  9  1  0
  8 30  1  6
  9 10  1  0
  9 11  1  0
  9 31  1  1
 10 32  1  0
 10 33  1  0
 10 34  1  0
 11 12  2  3
 11 19  1  0
 12 13  1  0
 12 35  1  0
 13 14  1  0
 13 15  1  0
 13 16  1  0
 14 36  1  0
 14 37  1  0
 14 38  1  0
 15 39  1  0
 15 40  1  0
 15 41  1  0
 16 17  1  0
 16 42  1  6
 17 18  1  0
 17 43  1  0
 17 44  1  0
 18 45  1  0
 18 46  1  0
 19 20  2  3
 19 47  1  0
 20 21  1  0
 20 48  1  0
 21 22  2  0
 22 23  1  0
 23 49  1  0
 23 50  1  0
 23 51  1  0
M  END
>  <i_m_ct_stereo_status>  (202) 
1

>  <s_m_source_file>  (202) 
/var/tmp/pbs.5076255.sched01/tmpio9qf6gp/4214r_5_m5.sdf

>  <i_m_source_file_index>  (202) 
40

>  <i_lp_mmshare_version>  (202) 
48012

>  <i_f3d_flags>  (202) 
0

>  <s_epik_input>  (202) 
W0NIXVwxPVtDSF1cQyg9QzJbQ0gzXSlbQ0BASF0oW0NIMl0zKUMoPUMoW0NIM10pW0NIMl1bQ0gyXTQpW0NAQEhdNEMoW0NIM10pKFtDSDNdKS9bQ0hdPUMvMVxbQ0BASF0oW0NASF0oQzIzNSlPNSlbQ0gzXQ==

>  <s_epik_cmdline>  (202) 
J2VwaWtfcHl0aG9uJywgJy1waHQnLCAnMi4wJywgJy1waCcsICc3LjAnLCAnLXRuJywgJzgnLCAnLW1hJywgJzIwMCcsICctaW1hZScsICc8aW5maWxlLm1hZT4nLCAnLW9tYWUnLCAnPG91dGZpbGUubWFlPic=

>  <r_lp_tautomer_probability>  (202) 
1

>  <r_epik_Ionization_Penalty>  (202) 
1.96219e-12

>  <r_epik_Ionization_Penalty_Charging>  (202) 
0

>  <r_epik_Ionization_Penalty_Neutral>  (202) 
1.96219e-12

>  <r_epik_State_Penalty>  (202) 
-0

>  <r_epik_Charging_Adjusted_Penalty>  (202) 
0

>  <i_epik_Tot_Q>  (202) 
0

>  <i_epik_Tot_abs_Q>  (202) 
0

>  <s_lp_Force_Field>  (202) 
OPLS3e

>  <r_lp_Energy>  (202) 
135.854

>  <b_lp_Chiralities_Consistent>  (202) 
1

>  <s_lp_Variant>  (202) 
51:0-5

>  <s_i_glide_gridfile>  (202) 
pfpi4k_grid

>  <i_i_glide_lignum>  (202) 
40

>  <i_i_glide_rotatable_bonds>  (202) 
0

>  <r_i_docking_score>  (202) 
-2.52611

>  <r_i_glide_ligand_efficiency>  (202) 
-0.109831

>  <r_i_glide_ligand_efficiency_sa>  (202) 
-0.312344

>  <r_i_glide_ligand_efficiency_ln>  (202) 
-0.610836

>  <r_i_glide_gscore>  (202) 
-2.52611

>  <r_i_glide_lipo>  (202) 
-0.165256

>  <r_i_glide_hbond>  (202) 
0

>  <r_i_glide_metal>  (202) 
-0

>  <r_i_glide_rewards>  (202) 
-1.30597

>  <r_i_glide_evdw>  (202) 
-21.5504

>  <r_i_glide_ecoul>  (202) 
0.150951

>  <r_i_glide_erotb>  (202) 
0

>  <r_i_glide_esite>  (202) 
0

>  <r_i_glide_emodel>  (202) 
-24.9643

>  <r_i_glide_energy>  (202) 
-21.3995

>  <r_i_glide_einternal>  (202) 
0

>  <r_i_glide_intrahb_reward>  (202) 
-0

>  <i_i_glide_confnum>  (202) 
1

>  <i_i_glide_posenum>  (202) 
3

>  <r_i_glide_eff_state_penalty>  (202) 
0

>  <ligand_id>  (202) 
51

>  <original_smiles>  (202) 
CC1=C2C3CC45OC4C(C)C(=CC(C)(C)C2CC1)C=CC3=C5C

>  <smiles>  (202) 
[H]C1=C([H])C2=C([H])C(C([H])([H])[H])(C([H])([H])[H])C3([H])C(=C(C([H])([H])[H])C([H])([H])C3([H])[H])C3([H])C1=C(C([H])([H])[H])C1(OC1([H])C2([H])C([H])([H])[H])C3([H])[H]

$$$$
52:0:0
     RDKit          3D

 27 29  0  0  1  0  0  0  0  0999 V2000
    4.0089   -2.7455   -3.7812 C   0  0  0  0  0  0  0  0  0  0  0  0
    4.4858   -2.4541   -2.5632 C   0  0  0  0  0  0  0  0  0  0  0  0
    4.1869   -1.1403   -1.7793 C   0  0  0  0  0  0  0  0  0  0  0  0
    4.5234   -1.7551   -0.4425 C   0  0  2  0  0  0  0  0  0  0  0  0
    5.9363   -2.3300   -0.8457 C   0  0  0  0  0  0  0  0  0  0  0  0
    5.4223   -3.3834   -1.7248 C   0  0  1  0  0  0  0  0  0  0  0  0
    4.8661   -4.3835   -0.6002 C   0  0  0  0  0  0  0  0  0  0  0  0
    4.0745   -3.7233    0.6295 C   0  0  2  0  0  0  0  0  0  0  0  0
    3.3045   -2.7087   -0.1232 C   0  0  0  0  0  0  0  0  0  0  0  0
    4.7452   -2.7223    1.6281 C   0  0  0  0  0  0  0  0  0  0  0  0
    5.0774   -2.9419    2.9079 C   0  0  0  0  0  0  0  0  0  0  0  0
    4.7890   -1.3701    0.9802 C   0  0  0  0  0  0  0  0  0  0  0  0
    5.0539   -0.2555    1.4291 O   0  0  0  0  0  0  0  0  0  0  0  0
    4.2555   -3.6842   -4.2556 H   0  0  0  0  0  0  0  0  0  0  0  0
    3.3592   -2.0584   -4.3018 H   0  0  0  0  0  0  0  0  0  0  0  0
    4.8576   -0.3262   -2.0543 H   0  0  0  0  0  0  0  0  0  0  0  0
    3.1525   -0.8130   -1.8816 H   0  0  0  0  0  0  0  0  0  0  0  0
    6.5528   -1.6126   -1.3879 H   0  0  0  0  0  0  0  0  0  0  0  0
    6.5920   -2.7319   -0.0653 H   0  0  0  0  0  0  0  0  0  0  0  0
    6.1921   -3.8416   -2.3436 H   0  0  0  0  0  0  0  0  0  0  0  0
    4.2110   -5.0948   -1.1015 H   0  0  0  0  0  0  0  0  0  0  0  0
    5.6874   -4.9811   -0.2033 H   0  0  0  0  0  0  0  0  0  0  0  0
    3.4413   -4.4421    1.1487 H   0  0  0  0  0  0  0  0  0  0  0  0
    2.5333   -2.2320    0.4967 H   0  0  0  0  0  0  0  0  0  0  0  0
    2.7484   -3.1357   -0.9603 H   0  0  0  0  0  0  0  0  0  0  0  0
    4.9639   -3.9134    3.3611 H   0  0  0  0  0  0  0  0  0  0  0  0
    5.4689   -2.1457    3.5207 H   0  0  0  0  0  0  0  0  0  0  0  0
  1  2  2  0
  1 14  1  0
  1 15  1  0
  2  6  1  0
  2  3  1  0
  4  3  1  6
  3 16  1  0
  3 17  1  0
  4  9  1  0
  4 12  1  0
  4  5  1  0
  5  6  1  0
  5 18  1  0
  5 19  1  0
  6  7  1  0
  6 20  1  6
  7  8  1  0
  7 21  1  0
  7 22  1  0
  8  9  1  0
  8 10  1  0
  8 23  1  1
  9 24  1  0
  9 25  1  0
 10 11  2  0
 10 12  1  0
 11 26  1  0
 11 27  1  0
 12 13  2  0
M  END
>  <i_m_ct_stereo_status>  (203) 
1

>  <s_m_source_file>  (203) 
/var/tmp/pbs.5076255.sched01/tmpio9qf6gp/4214r_5_m5.sdf

>  <i_m_source_file_index>  (203) 
42

>  <i_lp_mmshare_version>  (203) 
48012

>  <i_f3d_flags>  (203) 
0

>  <s_epik_input>  (203) 
W0NAQF0xMjNbQ0gyXUMoPVtDSDJdKVtDQEBIXShbQ0gyXTEpW0NIMl1bQ0BIXShbQ0gyXTIpQyg9W0NIMl0pQzM9Tw==

>  <s_epik_cmdline>  (203) 
J2VwaWtfcHl0aG9uJywgJy1waHQnLCAnMi4wJywgJy1waCcsICc3LjAnLCAnLXRuJywgJzgnLCAnLW1hJywgJzIwMCcsICctaW1hZScsICc8aW5maWxlLm1hZT4nLCAnLW9tYWUnLCAnPG91dGZpbGUubWFlPic=

>  <r_lp_tautomer_probability>  (203) 
1

>  <r_epik_Ionization_Penalty>  (203) 
0

>  <r_epik_Ionization_Penalty_Charging>  (203) 
0

>  <r_epik_Ionization_Penalty_Neutral>  (203) 
0

>  <r_epik_State_Penalty>  (203) 
-0

>  <r_epik_Charging_Adjusted_Penalty>  (203) 
0

>  <i_epik_Tot_Q>  (203) 
0

>  <i_epik_Tot_abs_Q>  (203) 
0

>  <s_lp_Force_Field>  (203) 
OPLS3e

>  <r_lp_Energy>  (203) 
99.881

>  <b_lp_Chiralities_Consistent>  (203) 
1

>  <s_lp_Variant>  (203) 
52:0-1

>  <s_i_glide_gridfile>  (203) 
pfpi4k_grid

>  <i_i_glide_lignum>  (203) 
42

>  <i_i_glide_rotatable_bonds>  (203) 
0

>  <r_i_docking_score>  (203) 
-3.87711

>  <r_i_glide_ligand_efficiency>  (203) 
-0.298239

>  <r_i_glide_ligand_efficiency_sa>  (203) 
-0.70126

>  <r_i_glide_ligand_efficiency_ln>  (203) 
-1.08756

>  <r_i_glide_gscore>  (203) 
-3.87711

>  <r_i_glide_lipo>  (203) 
-0.498114

>  <r_i_glide_hbond>  (203) 
-0.0911994

>  <r_i_glide_metal>  (203) 
-0

>  <r_i_glide_rewards>  (203) 
-2.27252

>  <r_i_glide_evdw>  (203) 
-19.6881

>  <r_i_glide_ecoul>  (203) 
-0.205795

>  <r_i_glide_erotb>  (203) 
0

>  <r_i_glide_esite>  (203) 
0

>  <r_i_glide_emodel>  (203) 
-24.7371

>  <r_i_glide_energy>  (203) 
-19.8939

>  <r_i_glide_einternal>  (203) 
0

>  <r_i_glide_intrahb_reward>  (203) 
-0

>  <i_i_glide_confnum>  (203) 
1

>  <i_i_glide_posenum>  (203) 
28

>  <r_i_glide_eff_state_penalty>  (203) 
0

>  <ligand_id>  (203) 
52

>  <original_smiles>  (203) 
C=C1CC23CC1CC(C2)C(=C)C3=O

>  <smiles>  (203) 
[H]C([H])=C1C(=O)C23C([H])([H])C(=C([H])[H])C([H])(C([H])([H])C1([H])C2([H])[H])C3([H])[H]

$$$$
52:0:1
     RDKit          3D

 27 29  0  0  1  0  0  0  0  0999 V2000
    3.6312   -0.9514   -3.8163 C   0  0  0  0  0  0  0  0  0  0  0  0
    3.6437   -1.6179   -2.6533 C   0  0  0  0  0  0  0  0  0  0  0  0
    2.8030   -2.8931   -2.3422 C   0  0  0  0  0  0  0  0  0  0  0  0
    3.6964   -3.3192   -1.2062 C   0  0  2  0  0  0  0  0  0  0  0  0
    3.6941   -1.9522   -0.4201 C   0  0  0  0  0  0  0  0  0  0  0  0
    4.4962   -1.2185   -1.4033 C   0  0  1  0  0  0  0  0  0  0  0  0
    5.9232   -1.8747   -1.0850 C   0  0  0  0  0  0  0  0  0  0  0  0
    5.9458   -3.4555   -0.8432 C   0  0  2  0  0  0  0  0  0  0  0  0
    5.0058   -3.8554   -1.9127 C   0  0  0  0  0  0  0  0  0  0  0  0
    5.1804   -4.1575    0.3296 C   0  0  0  0  0  0  0  0  0  0  0  0
    5.7001   -4.7264    1.4264 C   0  0  0  0  0  0  0  0  0  0  0  0
    3.7364   -4.2766   -0.0555 C   0  0  0  0  0  0  0  0  0  0  0  0
    2.7962   -4.8951    0.4511 O   0  0  0  0  0  0  0  0  0  0  0  0
    4.2371   -0.0695   -3.9538 H   0  0  0  0  0  0  0  0  0  0  0  0
    3.0079   -1.2783   -4.6354 H   0  0  0  0  0  0  0  0  0  0  0  0
    1.7925   -2.6561   -2.0108 H   0  0  0  0  0  0  0  0  0  0  0  0
    2.7505   -3.5921   -3.1797 H   0  0  0  0  0  0  0  0  0  0  0  0
    2.6950   -1.5316   -0.2982 H   0  0  0  0  0  0  0  0  0  0  0  0
    4.1296   -1.9059    0.5843 H   0  0  0  0  0  0  0  0  0  0  0  0
    4.4936   -0.1451   -1.2359 H   0  0  0  0  0  0  0  0  0  0  0  0
    6.5829   -1.6534   -1.9225 H   0  0  0  0  0  0  0  0  0  0  0  0
    6.3571   -1.3926   -0.2072 H   0  0  0  0  0  0  0  0  0  0  0  0
    6.9475   -3.8599   -0.9798 H   0  0  0  0  0  0  0  0  0  0  0  0
    5.0063   -4.9373   -2.0696 H   0  0  0  0  0  0  0  0  0  0  0  0
    5.2688   -3.4418   -2.8928 H   0  0  0  0  0  0  0  0  0  0  0  0
    6.7574   -4.6887    1.6308 H   0  0  0  0  0  0  0  0  0  0  0  0
    5.0713   -5.2472    2.1307 H   0  0  0  0  0  0  0  0  0  0  0  0
  1  2  2  0
  1 14  1  0
  1 15  1  0
  2  6  1  0
  2  3  1  0
  4  3  1  6
  3 16  1  0
  3 17  1  0
  4  9  1  0
  4 12  1  0
  4  5  1  0
  5  6  1  0
  5 18  1  0
  5 19  1  0
  6  7  1  0
  6 20  1  1
  7  8  1  0
  7 21  1  0
  7 22  1  0
  8  9  1  0
  8 10  1  0
  8 23  1  6
  9 24  1  0
  9 25  1  0
 10 11  2  0
 10 12  1  0
 11 26  1  0
 11 27  1  0
 12 13  2  0
M  END
>  <i_m_ct_stereo_status>  (204) 
1

>  <s_m_source_file>  (204) 
/var/tmp/pbs.5076255.sched01/tmpio9qf6gp/4214r_5_m5.sdf

>  <i_m_source_file_index>  (204) 
42

>  <i_lp_mmshare_version>  (204) 
48012

>  <i_f3d_flags>  (204) 
0

>  <s_epik_input>  (204) 
W0NAQF0xMjNbQ0gyXUMoPVtDSDJdKVtDQEBIXShbQ0gyXTEpW0NIMl1bQ0BIXShbQ0gyXTIpQyg9W0NIMl0pQzM9Tw==

>  <s_epik_cmdline>  (204) 
J2VwaWtfcHl0aG9uJywgJy1waHQnLCAnMi4wJywgJy1waCcsICc3LjAnLCAnLXRuJywgJzgnLCAnLW1hJywgJzIwMCcsICctaW1hZScsICc8aW5maWxlLm1hZT4nLCAnLW9tYWUnLCAnPG91dGZpbGUubWFlPic=

>  <r_lp_tautomer_probability>  (204) 
1

>  <r_epik_Ionization_Penalty>  (204) 
0

>  <r_epik_Ionization_Penalty_Charging>  (204) 
0

>  <r_epik_Ionization_Penalty_Neutral>  (204) 
0

>  <r_epik_State_Penalty>  (204) 
-0

>  <r_epik_Charging_Adjusted_Penalty>  (204) 
0

>  <i_epik_Tot_Q>  (204) 
0

>  <i_epik_Tot_abs_Q>  (204) 
0

>  <s_lp_Force_Field>  (204) 
OPLS3e

>  <r_lp_Energy>  (204) 
99.881

>  <b_lp_Chiralities_Consistent>  (204) 
1

>  <s_lp_Variant>  (204) 
52:0-1

>  <s_i_glide_gridfile>  (204) 
pfpi4k_grid

>  <i_i_glide_lignum>  (204) 
42

>  <i_i_glide_rotatable_bonds>  (204) 
0

>  <r_i_docking_score>  (204) 
-3.76727

>  <r_i_glide_ligand_efficiency>  (204) 
-0.28979

>  <r_i_glide_ligand_efficiency_sa>  (204) 
-0.681394

>  <r_i_glide_ligand_efficiency_ln>  (204) 
-1.05675

>  <r_i_glide_gscore>  (204) 
-3.76727

>  <r_i_glide_lipo>  (204) 
-0.430577

>  <r_i_glide_hbond>  (204) 
0

>  <r_i_glide_metal>  (204) 
-0

>  <r_i_glide_rewards>  (204) 
-2.2211

>  <r_i_glide_evdw>  (204) 
-19.6977

>  <r_i_glide_ecoul>  (204) 
-0.773589

>  <r_i_glide_erotb>  (204) 
0

>  <r_i_glide_esite>  (204) 
-0.0146752

>  <r_i_glide_emodel>  (204) 
-25.1672

>  <r_i_glide_energy>  (204) 
-20.4712

>  <r_i_glide_einternal>  (204) 
0

>  <r_i_glide_intrahb_reward>  (204) 
-0

>  <i_i_glide_confnum>  (204) 
1

>  <i_i_glide_posenum>  (204) 
32

>  <r_i_glide_eff_state_penalty>  (204) 
0

>  <ligand_id>  (204) 
52

>  <original_smiles>  (204) 
C=C1CC23CC1CC(C2)C(=C)C3=O

>  <smiles>  (204) 
[H]C([H])=C1C(=O)C23C([H])([H])C(=C([H])[H])C([H])(C([H])([H])C1([H])C2([H])[H])C3([H])[H]

$$$$
52:0:2
     RDKit          3D

 27 29  0  0  1  0  0  0  0  0999 V2000
    5.3564   -3.8716    1.7921 C   0  0  0  0  0  0  0  0  0  0  0  0
    4.9177   -3.6952    0.5374 C   0  0  0  0  0  0  0  0  0  0  0  0
    3.4230   -3.7154    0.0959 C   0  0  0  0  0  0  0  0  0  0  0  0
    3.6898   -2.9480   -1.1697 C   0  0  2  0  0  0  0  0  0  0  0  0
    4.8623   -3.8563   -1.7062 C   0  0  0  0  0  0  0  0  0  0  0  0
    5.8425   -3.4488   -0.6973 C   0  0  1  0  0  0  0  0  0  0  0  0
    6.1635   -1.9804   -1.2497 C   0  0  0  0  0  0  0  0  0  0  0  0
    4.9091   -1.1144   -1.7599 C   0  0  2  0  0  0  0  0  0  0  0  0
    3.9520   -1.4658   -0.6870 C   0  0  0  0  0  0  0  0  0  0  0  0
    4.0020   -1.5421   -2.9600 C   0  0  0  0  0  0  0  0  0  0  0  0
    3.9277   -0.9899   -4.1782 C   0  0  0  0  0  0  0  0  0  0  0  0
    3.0363   -2.5715   -2.4651 C   0  0  0  0  0  0  0  0  0  0  0  0
    2.0395   -3.0587   -2.9834 O   0  0  0  0  0  0  0  0  0  0  0  0
    6.4108   -3.8406    2.0167 H   0  0  0  0  0  0  0  0  0  0  0  0
    4.6635   -4.0414    2.6012 H   0  0  0  0  0  0  0  0  0  0  0  0
    3.0616   -4.7283   -0.0927 H   0  0  0  0  0  0  0  0  0  0  0  0
    2.7600   -3.2155    0.8048 H   0  0  0  0  0  0  0  0  0  0  0  0
    4.6390   -4.9237   -1.6426 H   0  0  0  0  0  0  0  0  0  0  0  0
    5.2331   -3.7078   -2.7260 H   0  0  0  0  0  0  0  0  0  0  0  0
    6.7256   -4.0858   -0.6765 H   0  0  0  0  0  0  0  0  0  0  0  0
    6.6732   -1.4395   -0.4511 H   0  0  0  0  0  0  0  0  0  0  0  0
    6.8768   -2.0683   -2.0693 H   0  0  0  0  0  0  0  0  0  0  0  0
    5.1261   -0.0501   -1.8116 H   0  0  0  0  0  0  0  0  0  0  0  0
    3.0516   -0.8423   -0.7100 H   0  0  0  0  0  0  0  0  0  0  0  0
    4.3623   -1.3102    0.3151 H   0  0  0  0  0  0  0  0  0  0  0  0
    4.5894   -0.1927   -4.4757 H   0  0  0  0  0  0  0  0  0  0  0  0
    3.1889   -1.3200   -4.8886 H   0  0  0  0  0  0  0  0  0  0  0  0
  1  2  2  0
  1 14  1  0
  1 15  1  0
  2  6  1  0
  2  3  1  0
  4  3  1  1
  3 16  1  0
  3 17  1  0
  4  9  1  0
  4 12  1  0
  4  5  1  0
  5  6  1  0
  5 18  1  0
  5 19  1  0
  6  7  1  0
  6 20  1  1
  7  8  1  0
  7 21  1  0
  7 22  1  0
  8  9  1  0
  8 10  1  0
  8 23  1  6
  9 24  1  0
  9 25  1  0
 10 11  2  0
 10 12  1  0
 11 26  1  0
 11 27  1  0
 12 13  2  0
M  END
>  <i_m_ct_stereo_status>  (205) 
1

>  <s_m_source_file>  (205) 
/var/tmp/pbs.5076255.sched01/tmpio9qf6gp/4214r_5_m5.sdf

>  <i_m_source_file_index>  (205) 
42

>  <i_lp_mmshare_version>  (205) 
48012

>  <i_f3d_flags>  (205) 
0

>  <s_epik_input>  (205) 
W0NAQF0xMjNbQ0gyXUMoPVtDSDJdKVtDQEBIXShbQ0gyXTEpW0NIMl1bQ0BIXShbQ0gyXTIpQyg9W0NIMl0pQzM9Tw==

>  <s_epik_cmdline>  (205) 
J2VwaWtfcHl0aG9uJywgJy1waHQnLCAnMi4wJywgJy1waCcsICc3LjAnLCAnLXRuJywgJzgnLCAnLW1hJywgJzIwMCcsICctaW1hZScsICc8aW5maWxlLm1hZT4nLCAnLW9tYWUnLCAnPG91dGZpbGUubWFlPic=

>  <r_lp_tautomer_probability>  (205) 
1

>  <r_epik_Ionization_Penalty>  (205) 
0

>  <r_epik_Ionization_Penalty_Charging>  (205) 
0

>  <r_epik_Ionization_Penalty_Neutral>  (205) 
0

>  <r_epik_State_Penalty>  (205) 
-0

>  <r_epik_Charging_Adjusted_Penalty>  (205) 
0

>  <i_epik_Tot_Q>  (205) 
0

>  <i_epik_Tot_abs_Q>  (205) 
0

>  <s_lp_Force_Field>  (205) 
OPLS3e

>  <r_lp_Energy>  (205) 
99.881

>  <b_lp_Chiralities_Consistent>  (205) 
1

>  <s_lp_Variant>  (205) 
52:0-1

>  <s_i_glide_gridfile>  (205) 
pfpi4k_grid

>  <i_i_glide_lignum>  (205) 
42

>  <i_i_glide_rotatable_bonds>  (205) 
0

>  <r_i_docking_score>  (205) 
-3.35066

>  <r_i_glide_ligand_efficiency>  (205) 
-0.257743

>  <r_i_glide_ligand_efficiency_sa>  (205) 
-0.60604

>  <r_i_glide_ligand_efficiency_ln>  (205) 
-0.93989

>  <r_i_glide_gscore>  (205) 
-3.35066

>  <r_i_glide_lipo>  (205) 
-0.25054

>  <r_i_glide_hbond>  (205) 
0

>  <r_i_glide_metal>  (205) 
-0

>  <r_i_glide_rewards>  (205) 
-2.2211

>  <r_i_glide_evdw>  (205) 
-20.6759

>  <r_i_glide_ecoul>  (205) 
1.30916

>  <r_i_glide_erotb>  (205) 
0

>  <r_i_glide_esite>  (205) 
-0.0415996

>  <r_i_glide_emodel>  (205) 
-23.5328

>  <r_i_glide_energy>  (205) 
-19.3668

>  <r_i_glide_einternal>  (205) 
0

>  <r_i_glide_intrahb_reward>  (205) 
-0

>  <i_i_glide_confnum>  (205) 
1

>  <i_i_glide_posenum>  (205) 
5

>  <r_i_glide_eff_state_penalty>  (205) 
0

>  <ligand_id>  (205) 
52

>  <original_smiles>  (205) 
C=C1CC23CC1CC(C2)C(=C)C3=O

>  <smiles>  (205) 
[H]C([H])=C1C(=O)C23C([H])([H])C(=C([H])[H])C([H])(C([H])([H])C1([H])C2([H])[H])C3([H])[H]

$$$$
53:0:0
     RDKit          3D

 19 20  0  0  1  0  0  0  0  0999 V2000
   -2.1368   -8.4933    2.9840 C   0  0  0  0  0  0  0  0  0  0  0  0
   -0.6915   -8.2811    2.5999 C   0  0  0  0  0  0  0  0  0  0  0  0
    0.2783   -9.2775    2.8816 C   0  0  0  0  0  0  0  0  0  0  0  0
    1.5789   -9.0468    2.4931 C   0  0  0  0  0  0  0  0  0  0  0  0
    2.7010  -10.0356    2.7456 C   0  0  0  0  0  0  0  0  0  0  0  0
    1.8544   -7.8704    1.8604 N   0  0  0  0  0  0  0  0  0  0  0  0
    3.0471   -7.4000    1.4044 N   0  0  0  0  0  0  0  0  0  0  0  0
    2.7017   -6.2260    0.8864 C   0  0  0  0  0  0  0  0  0  0  0  0
    1.3820   -5.8898    0.9728 N   0  0  0  0  0  0  0  0  0  0  0  0
    0.8436   -6.9301    1.6056 C   0  0  0  0  0  0  0  0  0  0  0  0
   -0.4305   -7.1279    1.9899 N   0  0  0  0  0  0  0  0  0  0  0  0
   -2.2713   -9.4566    3.4744 H   0  0  0  0  0  0  0  0  0  0  0  0
   -2.7540   -8.4786    2.0847 H   0  0  0  0  0  0  0  0  0  0  0  0
   -2.4692   -7.7068    3.6651 H   0  0  0  0  0  0  0  0  0  0  0  0
    0.0053  -10.1990    3.3898 H   0  0  0  0  0  0  0  0  0  0  0  0
    2.3332  -10.9269    3.2545 H   0  0  0  0  0  0  0  0  0  0  0  0
    3.4744   -9.5837    3.3683 H   0  0  0  0  0  0  0  0  0  0  0  0
    3.1545  -10.3453    1.8032 H   0  0  0  0  0  0  0  0  0  0  0  0
    3.4302   -5.5826    0.4134 H   0  0  0  0  0  0  0  0  0  0  0  0
  1  2  1  0
  1 12  1  0
  1 13  1  0
  1 14  1  0
  2 11  2  0
  2  3  1  0
  3  4  2  0
  3 15  1  0
  4  5  1  0
  4  6  1  0
  5 16  1  0
  5 17  1  0
  5 18  1  0
  6 10  1  0
  6  7  1  0
  7  8  2  0
  8  9  1  0
  8 19  1  0
  9 10  2  0
 10 11  1  0
M  END
>  <i_m_ct_stereo_status>  (206) 
1

>  <s_m_source_file>  (206) 
/var/tmp/pbs.5076255.sched01/tmptehp0e0j/84lnm28v0z.sdf

>  <i_m_source_file_index>  (206) 
1

>  <i_lp_mmshare_version>  (206) 
48012

>  <i_f3d_flags>  (206) 
0

>  <s_epik_input>  (206) 
W0NIM11jMVtjSF1jKFtDSDNdKW5jKG4xMiluW2NIXW4y

>  <s_epik_cmdline>  (206) 
J2VwaWtfcHl0aG9uJywgJy1waHQnLCAnMi4wJywgJy1waCcsICc3LjAnLCAnLXRuJywgJzgnLCAnLW1hJywgJzIwMCcsICctaW1hZScsICc8aW5maWxlLm1hZT4nLCAnLW9tYWUnLCAnPG91dGZpbGUubWFlPic=

>  <r_lp_tautomer_probability>  (206) 
1

>  <r_epik_Ionization_Penalty>  (206) 
1.36108e-06

>  <r_epik_Ionization_Penalty_Charging>  (206) 
0

>  <r_epik_Ionization_Penalty_Neutral>  (206) 
1.36108e-06

>  <r_epik_State_Penalty>  (206) 
-0

>  <r_epik_Charging_Adjusted_Penalty>  (206) 
0

>  <i_epik_Tot_Q>  (206) 
0

>  <i_epik_Tot_abs_Q>  (206) 
0

>  <s_lp_Force_Field>  (206) 
OPLS3e

>  <r_lp_Energy>  (206) 
11.5976

>  <b_lp_Chiralities_Consistent>  (206) 
1

>  <s_lp_Variant>  (206) 
53:0-1

>  <s_i_glide_gridfile>  (206) 
pfpi4k_grid

>  <i_i_glide_lignum>  (206) 
1

>  <i_i_glide_rotatable_bonds>  (206) 
0

>  <r_i_docking_score>  (206) 
-4.2413

>  <r_i_glide_ligand_efficiency>  (206) 
-0.385572

>  <r_i_glide_ligand_efficiency_sa>  (206) 
-0.857505

>  <r_i_glide_ligand_efficiency_ln>  (206) 
-1.24821

>  <r_i_glide_gscore>  (206) 
-4.2413

>  <r_i_glide_lipo>  (206) 
-0.0264087

>  <r_i_glide_hbond>  (206) 
-0.234814

>  <r_i_glide_metal>  (206) 
-0

>  <r_i_glide_rewards>  (206) 
-2.25

>  <r_i_glide_evdw>  (206) 
-15.6393

>  <r_i_glide_ecoul>  (206) 
-5.57934

>  <r_i_glide_erotb>  (206) 
0

>  <r_i_glide_esite>  (206) 
-0.11121

>  <r_i_glide_emodel>  (206) 
-28.0702

>  <r_i_glide_energy>  (206) 
-21.2186

>  <r_i_glide_einternal>  (206) 
0

>  <r_i_glide_intrahb_reward>  (206) 
-0

>  <i_i_glide_confnum>  (206) 
1

>  <i_i_glide_posenum>  (206) 
8

>  <r_i_glide_eff_state_penalty>  (206) 
0

>  <ligand_id>  (206) 
53

>  <original_smiles>  (206) 
Cc1cc(C)n2ncnc2n1

>  <smiles>  (206) 
[H]c1nc2nc(C([H])([H])[H])c([H])c(C([H])([H])[H])n2n1

$$$$
53:0:1
     RDKit          3D

 19 20  0  0  1  0  0  0  0  0999 V2000
    0.5593   -5.8920    7.1940 C   0  0  0  0  0  0  0  0  0  0  0  0
    0.3535   -6.8819    6.0660 C   0  0  0  0  0  0  0  0  0  0  0  0
    0.8227   -8.2150    6.1847 C   0  0  0  0  0  0  0  0  0  0  0  0
    0.6049   -9.0780    5.1306 C   0  0  0  0  0  0  0  0  0  0  0  0
    1.0673  -10.5206    5.1398 C   0  0  0  0  0  0  0  0  0  0  0  0
   -0.0497   -8.5943    4.0383 N   0  0  0  0  0  0  0  0  0  0  0  0
   -0.3685   -9.2338    2.8820 N   0  0  0  0  0  0  0  0  0  0  0  0
   -0.9848   -8.2777    2.2011 C   0  0  0  0  0  0  0  0  0  0  0  0
   -1.0792   -7.0603    2.8101 N   0  0  0  0  0  0  0  0  0  0  0  0
   -0.4910   -7.2625    3.9862 C   0  0  0  0  0  0  0  0  0  0  0  0
   -0.2892   -6.4057    5.0044 N   0  0  0  0  0  0  0  0  0  0  0  0
    1.0866   -6.3531    8.0288 H   0  0  0  0  0  0  0  0  0  0  0  0
   -0.4029   -5.5261    7.5565 H   0  0  0  0  0  0  0  0  0  0  0  0
    1.1468   -5.0398    6.8481 H   0  0  0  0  0  0  0  0  0  0  0  0
    1.3402   -8.5613    7.0724 H   0  0  0  0  0  0  0  0  0  0  0  0
    1.5784  -10.7501    6.0734 H   0  0  0  0  0  0  0  0  0  0  0  0
    1.7610  -10.7106    4.3195 H   0  0  0  0  0  0  0  0  0  0  0  0
    0.2163  -11.1959    5.0358 H   0  0  0  0  0  0  0  0  0  0  0  0
   -1.3741   -8.4664    1.2137 H   0  0  0  0  0  0  0  0  0  0  0  0
  1  2  1  0
  1 12  1  0
  1 13  1  0
  1 14  1  0
  2 11  2  0
  2  3  1  0
  3  4  2  0
  3 15  1  0
  4  5  1  0
  4  6  1  0
  5 16  1  0
  5 17  1  0
  5 18  1  0
  6 10  1  0
  6  7  1  0
  7  8  2  0
  8  9  1  0
  8 19  1  0
  9 10  2  0
 10 11  1  0
M  END
>  <i_m_ct_stereo_status>  (207) 
1

>  <s_m_source_file>  (207) 
/var/tmp/pbs.5076255.sched01/tmptehp0e0j/84lnm28v0z.sdf

>  <i_m_source_file_index>  (207) 
1

>  <i_lp_mmshare_version>  (207) 
48012

>  <i_f3d_flags>  (207) 
0

>  <s_epik_input>  (207) 
W0NIM11jMVtjSF1jKFtDSDNdKW5jKG4xMiluW2NIXW4y

>  <s_epik_cmdline>  (207) 
J2VwaWtfcHl0aG9uJywgJy1waHQnLCAnMi4wJywgJy1waCcsICc3LjAnLCAnLXRuJywgJzgnLCAnLW1hJywgJzIwMCcsICctaW1hZScsICc8aW5maWxlLm1hZT4nLCAnLW9tYWUnLCAnPG91dGZpbGUubWFlPic=

>  <r_lp_tautomer_probability>  (207) 
1

>  <r_epik_Ionization_Penalty>  (207) 
1.36108e-06

>  <r_epik_Ionization_Penalty_Charging>  (207) 
0

>  <r_epik_Ionization_Penalty_Neutral>  (207) 
1.36108e-06

>  <r_epik_State_Penalty>  (207) 
-0

>  <r_epik_Charging_Adjusted_Penalty>  (207) 
0

>  <i_epik_Tot_Q>  (207) 
0

>  <i_epik_Tot_abs_Q>  (207) 
0

>  <s_lp_Force_Field>  (207) 
OPLS3e

>  <r_lp_Energy>  (207) 
11.5976

>  <b_lp_Chiralities_Consistent>  (207) 
1

>  <s_lp_Variant>  (207) 
53:0-1

>  <s_i_glide_gridfile>  (207) 
pfpi4k_grid

>  <i_i_glide_lignum>  (207) 
1

>  <i_i_glide_rotatable_bonds>  (207) 
0

>  <r_i_docking_score>  (207) 
-3.77506

>  <r_i_glide_ligand_efficiency>  (207) 
-0.343187

>  <r_i_glide_ligand_efficiency_sa>  (207) 
-0.763241

>  <r_i_glide_ligand_efficiency_ln>  (207) 
-1.111

>  <r_i_glide_gscore>  (207) 
-3.77506

>  <r_i_glide_lipo>  (207) 
0

>  <r_i_glide_hbond>  (207) 
-0.16

>  <r_i_glide_metal>  (207) 
-0

>  <r_i_glide_rewards>  (207) 
-2.25

>  <r_i_glide_evdw>  (207) 
-14.0655

>  <r_i_glide_ecoul>  (207) 
-3.44047

>  <r_i_glide_erotb>  (207) 
0

>  <r_i_glide_esite>  (207) 
-0.145713

>  <r_i_glide_emodel>  (207) 
-23.6058

>  <r_i_glide_energy>  (207) 
-17.506

>  <r_i_glide_einternal>  (207) 
0

>  <r_i_glide_intrahb_reward>  (207) 
-0

>  <i_i_glide_confnum>  (207) 
1

>  <i_i_glide_posenum>  (207) 
2

>  <r_i_glide_eff_state_penalty>  (207) 
0

>  <ligand_id>  (207) 
53

>  <original_smiles>  (207) 
Cc1cc(C)n2ncnc2n1

>  <smiles>  (207) 
[H]c1nc2nc(C([H])([H])[H])c([H])c(C([H])([H])[H])n2n1

$$$$
53:0:2
     RDKit          3D

 19 20  0  0  1  0  0  0  0  0999 V2000
   -2.0810    3.4622    3.3836 C   0  0  0  0  0  0  0  0  0  0  0  0
   -1.3904    2.1363    3.6171 C   0  0  0  0  0  0  0  0  0  0  0  0
   -0.3946    1.6734    2.7215 C   0  0  0  0  0  0  0  0  0  0  0  0
    0.2063    0.4612    2.9773 C   0  0  0  0  0  0  0  0  0  0  0  0
    1.2846   -0.1284    2.0831 C   0  0  0  0  0  0  0  0  0  0  0  0
   -0.2040   -0.2269    4.0852 N   0  0  0  0  0  0  0  0  0  0  0  0
    0.2203   -1.4351    4.5513 N   0  0  0  0  0  0  0  0  0  0  0  0
   -0.5137   -1.5848    5.6454 C   0  0  0  0  0  0  0  0  0  0  0  0
   -1.3950   -0.5824    5.9261 N   0  0  0  0  0  0  0  0  0  0  0  0
   -1.1968    0.2889    4.9364 C   0  0  0  0  0  0  0  0  0  0  0  0
   -1.7823    1.4782    4.7052 N   0  0  0  0  0  0  0  0  0  0  0  0
   -1.7120    3.9555    2.4847 H   0  0  0  0  0  0  0  0  0  0  0  0
   -1.9136    4.1308    4.2275 H   0  0  0  0  0  0  0  0  0  0  0  0
   -3.1545    3.3146    3.2694 H   0  0  0  0  0  0  0  0  0  0  0  0
   -0.1132    2.2625    1.8517 H   0  0  0  0  0  0  0  0  0  0  0  0
    1.5037    0.5274    1.2407 H   0  0  0  0  0  0  0  0  0  0  0  0
    0.9715   -1.0913    1.6814 H   0  0  0  0  0  0  0  0  0  0  0  0
    2.2066   -0.2772    2.6436 H   0  0  0  0  0  0  0  0  0  0  0  0
   -0.4168   -2.4607    6.2716 H   0  0  0  0  0  0  0  0  0  0  0  0
  1  2  1  0
  1 12  1  0
  1 13  1  0
  1 14  1  0
  2 11  2  0
  2  3  1  0
  3  4  2  0
  3 15  1  0
  4  5  1  0
  4  6  1  0
  5 16  1  0
  5 17  1  0
  5 18  1  0
  6 10  1  0
  6  7  1  0
  7  8  2  0
  8  9  1  0
  8 19  1  0
  9 10  2  0
 10 11  1  0
M  END
>  <i_m_ct_stereo_status>  (208) 
1

>  <s_m_source_file>  (208) 
/var/tmp/pbs.5076255.sched01/tmptehp0e0j/84lnm28v0z.sdf

>  <i_m_source_file_index>  (208) 
1

>  <i_lp_mmshare_version>  (208) 
48012

>  <i_f3d_flags>  (208) 
0

>  <s_epik_input>  (208) 
W0NIM11jMVtjSF1jKFtDSDNdKW5jKG4xMiluW2NIXW4y

>  <s_epik_cmdline>  (208) 
J2VwaWtfcHl0aG9uJywgJy1waHQnLCAnMi4wJywgJy1waCcsICc3LjAnLCAnLXRuJywgJzgnLCAnLW1hJywgJzIwMCcsICctaW1hZScsICc8aW5maWxlLm1hZT4nLCAnLW9tYWUnLCAnPG91dGZpbGUubWFlPic=

>  <r_lp_tautomer_probability>  (208) 
1

>  <r_epik_Ionization_Penalty>  (208) 
1.36108e-06

>  <r_epik_Ionization_Penalty_Charging>  (208) 
0

>  <r_epik_Ionization_Penalty_Neutral>  (208) 
1.36108e-06

>  <r_epik_State_Penalty>  (208) 
-0

>  <r_epik_Charging_Adjusted_Penalty>  (208) 
0

>  <i_epik_Tot_Q>  (208) 
0

>  <i_epik_Tot_abs_Q>  (208) 
0

>  <s_lp_Force_Field>  (208) 
OPLS3e

>  <r_lp_Energy>  (208) 
11.5976

>  <b_lp_Chiralities_Consistent>  (208) 
1

>  <s_lp_Variant>  (208) 
53:0-1

>  <s_i_glide_gridfile>  (208) 
pfpi4k_grid

>  <i_i_glide_lignum>  (208) 
1

>  <i_i_glide_rotatable_bonds>  (208) 
0

>  <r_i_docking_score>  (208) 
-3.5656

>  <r_i_glide_ligand_efficiency>  (208) 
-0.324145

>  <r_i_glide_ligand_efficiency_sa>  (208) 
-0.720892

>  <r_i_glide_ligand_efficiency_ln>  (208) 
-1.04935

>  <r_i_glide_gscore>  (208) 
-3.5656

>  <r_i_glide_lipo>  (208) 
0

>  <r_i_glide_hbond>  (208) 
-0.0557129

>  <r_i_glide_metal>  (208) 
-0

>  <r_i_glide_rewards>  (208) 
-2.25

>  <r_i_glide_evdw>  (208) 
-14.612

>  <r_i_glide_ecoul>  (208) 
-2.97568

>  <r_i_glide_erotb>  (208) 
0

>  <r_i_glide_esite>  (208) 
-0.0829294

>  <r_i_glide_emodel>  (208) 
-23.3483

>  <r_i_glide_energy>  (208) 
-17.5877

>  <r_i_glide_einternal>  (208) 
0

>  <r_i_glide_intrahb_reward>  (208) 
-0

>  <i_i_glide_confnum>  (208) 
2

>  <i_i_glide_posenum>  (208) 
3

>  <r_i_glide_eff_state_penalty>  (208) 
0

>  <ligand_id>  (208) 
53

>  <original_smiles>  (208) 
Cc1cc(C)n2ncnc2n1

>  <smiles>  (208) 
[H]c1nc2nc(C([H])([H])[H])c([H])c(C([H])([H])[H])n2n1

$$$$
55:0:0
     RDKit          3D

 12 13  0  0  1  0  0  0  0  0999 V2000
   -8.0255   -4.2424   -5.3825 C   0  0  0  0  0  0  0  0  0  0  0  0
   -8.6249   -5.0553   -6.3612 C   0  0  0  0  0  0  0  0  0  0  0  0
   -8.1026   -6.2348   -6.7652 N   0  0  0  0  0  0  0  0  0  0  0  0
   -6.9562   -6.6722   -6.1973 C   0  0  0  0  0  0  0  0  0  0  0  0
   -6.3311   -7.8210   -6.4914 N   0  0  0  0  0  0  0  0  0  0  0  0
   -4.9675   -7.8605   -5.5066 S   0  0  0  0  0  0  0  0  0  0  0  0
   -5.1463   -6.3902   -4.7221 N   0  0  0  0  0  0  0  0  0  0  0  0
   -6.2906   -5.9102   -5.2149 C   0  0  0  0  0  0  0  0  0  0  0  0
   -6.8225   -4.6774   -4.7952 C   0  0  0  0  0  0  0  0  0  0  0  0
   -8.4736   -3.2988   -5.1017 H   0  0  0  0  0  0  0  0  0  0  0  0
   -9.5453   -4.7508   -6.8368 H   0  0  0  0  0  0  0  0  0  0  0  0
   -6.3235   -4.0772   -4.0488 H   0  0  0  0  0  0  0  0  0  0  0  0
  1  9  2  0
  1  2  1  0
  1 10  1  0
  2  3  2  0
  2 11  1  0
  3  4  1  0
  4  8  1  0
  4  5  2  0
  5  6  1  0
  6  7  1  0
  7  8  2  0
  8  9  1  0
  9 12  1  0
M  END
>  <i_m_ct_stereo_status>  (209) 
1

>  <s_m_source_file>  (209) 
/var/tmp/pbs.5076255.sched01/tmptehp0e0j/84lnm28v0z.sdf

>  <i_m_source_file_index>  (209) 
3

>  <i_lp_mmshare_version>  (209) 
48012

>  <i_f3d_flags>  (209) 
0

>  <s_epik_input>  (209) 
bjFbY0hdW2NIXVtjSF1jKGMxMiluc24y

>  <s_epik_cmdline>  (209) 
J2VwaWtfcHl0aG9uJywgJy1waHQnLCAnMi4wJywgJy1waCcsICc3LjAnLCAnLXRuJywgJzgnLCAnLW1hJywgJzIwMCcsICctaW1hZScsICc8aW5maWxlLm1hZT4nLCAnLW9tYWUnLCAnPG91dGZpbGUubWFlPic=

>  <r_lp_tautomer_probability>  (209) 
1

>  <r_epik_Ionization_Penalty>  (209) 
1.02883e-08

>  <r_epik_Ionization_Penalty_Charging>  (209) 
0

>  <r_epik_Ionization_Penalty_Neutral>  (209) 
1.02883e-08

>  <r_epik_State_Penalty>  (209) 
-0

>  <r_epik_Charging_Adjusted_Penalty>  (209) 
0

>  <i_epik_Tot_Q>  (209) 
0

>  <i_epik_Tot_abs_Q>  (209) 
0

>  <s_lp_Force_Field>  (209) 
OPLS3e

>  <r_lp_Energy>  (209) 
11.1044

>  <b_lp_Chiralities_Consistent>  (209) 
1

>  <s_lp_Variant>  (209) 
55:0-1

>  <s_i_glide_gridfile>  (209) 
pfpi4k_grid

>  <i_i_glide_lignum>  (209) 
3

>  <i_i_glide_rotatable_bonds>  (209) 
0

>  <r_i_docking_score>  (209) 
-6.90747

>  <r_i_glide_ligand_efficiency>  (209) 
-0.767497

>  <r_i_glide_ligand_efficiency_sa>  (209) 
-1.59646

>  <r_i_glide_ligand_efficiency_ln>  (209) 
-2.16046

>  <r_i_glide_gscore>  (209) 
-6.90747

>  <r_i_glide_lipo>  (209) 
-1.58649

>  <r_i_glide_hbond>  (209) 
-0.255829

>  <r_i_glide_metal>  (209) 
-0

>  <r_i_glide_rewards>  (209) 
-3.77101

>  <r_i_glide_evdw>  (209) 
-21.2329

>  <r_i_glide_ecoul>  (209) 
-1.55

>  <r_i_glide_erotb>  (209) 
0

>  <r_i_glide_esite>  (209) 
0

>  <r_i_glide_emodel>  (209) 
-32.4941

>  <r_i_glide_energy>  (209) 
-22.7829

>  <r_i_glide_einternal>  (209) 
0

>  <r_i_glide_intrahb_reward>  (209) 
-0

>  <i_i_glide_confnum>  (209) 
2

>  <i_i_glide_posenum>  (209) 
11

>  <r_i_glide_eff_state_penalty>  (209) 
0

>  <ligand_id>  (209) 
55

>  <original_smiles>  (209) 
c1cnc2nsnc2c1

>  <smiles>  (209) 
[H]c1nc2nsnc2c([H])c1[H]

$$$$
55:0:1
     RDKit          3D

 12 13  0  0  1  0  0  0  0  0999 V2000
   -0.4703   -9.3708    2.8792 C   0  0  0  0  0  0  0  0  0  0  0  0
   -1.1772   -8.1902    2.5849 C   0  0  0  0  0  0  0  0  0  0  0  0
   -0.5933   -7.0726    2.0934 N   0  0  0  0  0  0  0  0  0  0  0  0
    0.7378   -7.0935    1.8559 C   0  0  0  0  0  0  0  0  0  0  0  0
    1.4369   -6.0678    1.3561 N   0  0  0  0  0  0  0  0  0  0  0  0
    3.0307   -6.6063    1.2814 S   0  0  0  0  0  0  0  0  0  0  0  0
    2.8291   -8.1628    1.8732 N   0  0  0  0  0  0  0  0  0  0  0  0
    1.5202   -8.2332    2.1270 C   0  0  0  0  0  0  0  0  0  0  0  0
    0.9177   -9.3944    2.6490 C   0  0  0  0  0  0  0  0  0  0  0  0
   -0.9791  -10.2372    3.2804 H   0  0  0  0  0  0  0  0  0  0  0  0
   -2.2427   -8.1376    2.7551 H   0  0  0  0  0  0  0  0  0  0  0  0
    1.4983  -10.2800    2.8645 H   0  0  0  0  0  0  0  0  0  0  0  0
  1  9  2  0
  1  2  1  0
  1 10  1  0
  2  3  2  0
  2 11  1  0
  3  4  1  0
  4  8  1  0
  4  5  2  0
  5  6  1  0
  6  7  1  0
  7  8  2  0
  8  9  1  0
  9 12  1  0
M  END
>  <i_m_ct_stereo_status>  (210) 
1

>  <s_m_source_file>  (210) 
/var/tmp/pbs.5076255.sched01/tmptehp0e0j/84lnm28v0z.sdf

>  <i_m_source_file_index>  (210) 
3

>  <i_lp_mmshare_version>  (210) 
48012

>  <i_f3d_flags>  (210) 
0

>  <s_epik_input>  (210) 
bjFbY0hdW2NIXVtjSF1jKGMxMiluc24y

>  <s_epik_cmdline>  (210) 
J2VwaWtfcHl0aG9uJywgJy1waHQnLCAnMi4wJywgJy1waCcsICc3LjAnLCAnLXRuJywgJzgnLCAnLW1hJywgJzIwMCcsICctaW1hZScsICc8aW5maWxlLm1hZT4nLCAnLW9tYWUnLCAnPG91dGZpbGUubWFlPic=

>  <r_lp_tautomer_probability>  (210) 
1

>  <r_epik_Ionization_Penalty>  (210) 
1.02883e-08

>  <r_epik_Ionization_Penalty_Charging>  (210) 
0

>  <r_epik_Ionization_Penalty_Neutral>  (210) 
1.02883e-08

>  <r_epik_State_Penalty>  (210) 
-0

>  <r_epik_Charging_Adjusted_Penalty>  (210) 
0

>  <i_epik_Tot_Q>  (210) 
0

>  <i_epik_Tot_abs_Q>  (210) 
0

>  <s_lp_Force_Field>  (210) 
OPLS3e

>  <r_lp_Energy>  (210) 
11.1044

>  <b_lp_Chiralities_Consistent>  (210) 
1

>  <s_lp_Variant>  (210) 
55:0-1

>  <s_i_glide_gridfile>  (210) 
pfpi4k_grid

>  <i_i_glide_lignum>  (210) 
3

>  <i_i_glide_rotatable_bonds>  (210) 
0

>  <r_i_docking_score>  (210) 
-3.94127

>  <r_i_glide_ligand_efficiency>  (210) 
-0.437919

>  <r_i_glide_ligand_efficiency_sa>  (210) 
-0.910908

>  <r_i_glide_ligand_efficiency_ln>  (210) 
-1.23272

>  <r_i_glide_gscore>  (210) 
-3.94127

>  <r_i_glide_lipo>  (210) 
-0.064327

>  <r_i_glide_hbond>  (210) 
-0.234406

>  <r_i_glide_metal>  (210) 
-0

>  <r_i_glide_rewards>  (210) 
-2.25

>  <r_i_glide_evdw>  (210) 
-15.0993

>  <r_i_glide_ecoul>  (210) 
-3.81529

>  <r_i_glide_erotb>  (210) 
0

>  <r_i_glide_esite>  (210) 
-0.0652796

>  <r_i_glide_emodel>  (210) 
-24.4558

>  <r_i_glide_energy>  (210) 
-18.9146

>  <r_i_glide_einternal>  (210) 
0

>  <r_i_glide_intrahb_reward>  (210) 
-0

>  <i_i_glide_confnum>  (210) 
1

>  <i_i_glide_posenum>  (210) 
3

>  <r_i_glide_eff_state_penalty>  (210) 
0

>  <ligand_id>  (210) 
55

>  <original_smiles>  (210) 
c1cnc2nsnc2c1

>  <smiles>  (210) 
[H]c1nc2nsnc2c([H])c1[H]

$$$$
55:0:2
     RDKit          3D

 12 13  0  0  1  0  0  0  0  0999 V2000
    3.0648   -7.3239    1.6158 C   0  0  0  0  0  0  0  0  0  0  0  0
    2.2265   -6.2469    1.2704 C   0  0  0  0  0  0  0  0  0  0  0  0
    0.8846   -6.2641    1.4431 N   0  0  0  0  0  0  0  0  0  0  0  0
    0.3181   -7.3641    1.9875 C   0  0  0  0  0  0  0  0  0  0  0  0
   -0.9875   -7.4985    2.2429 N   0  0  0  0  0  0  0  0  0  0  0  0
   -1.1579   -9.0482    2.8794 S   0  0  0  0  0  0  0  0  0  0  0  0
    0.4456   -9.5342    2.8795 N   0  0  0  0  0  0  0  0  0  0  0  0
    1.0833   -8.4841    2.3565 C   0  0  0  0  0  0  0  0  0  0  0  0
    2.4778   -8.4791    2.1662 C   0  0  0  0  0  0  0  0  0  0  0  0
    4.1312   -7.2713    1.4481 H   0  0  0  0  0  0  0  0  0  0  0  0
    2.6409   -5.3475    0.8394 H   0  0  0  0  0  0  0  0  0  0  0  0
    3.0820   -9.3338    2.4381 H   0  0  0  0  0  0  0  0  0  0  0  0
  1  9  2  0
  1  2  1  0
  1 10  1  0
  2  3  2  0
  2 11  1  0
  3  4  1  0
  4  8  1  0
  4  5  2  0
  5  6  1  0
  6  7  1  0
  7  8  2  0
  8  9  1  0
  9 12  1  0
M  END
>  <i_m_ct_stereo_status>  (211) 
1

>  <s_m_source_file>  (211) 
/var/tmp/pbs.5076255.sched01/tmptehp0e0j/84lnm28v0z.sdf

>  <i_m_source_file_index>  (211) 
3

>  <i_lp_mmshare_version>  (211) 
48012

>  <i_f3d_flags>  (211) 
0

>  <s_epik_input>  (211) 
bjFbY0hdW2NIXVtjSF1jKGMxMiluc24y

>  <s_epik_cmdline>  (211) 
J2VwaWtfcHl0aG9uJywgJy1waHQnLCAnMi4wJywgJy1waCcsICc3LjAnLCAnLXRuJywgJzgnLCAnLW1hJywgJzIwMCcsICctaW1hZScsICc8aW5maWxlLm1hZT4nLCAnLW9tYWUnLCAnPG91dGZpbGUubWFlPic=

>  <r_lp_tautomer_probability>  (211) 
1

>  <r_epik_Ionization_Penalty>  (211) 
1.02883e-08

>  <r_epik_Ionization_Penalty_Charging>  (211) 
0

>  <r_epik_Ionization_Penalty_Neutral>  (211) 
1.02883e-08

>  <r_epik_State_Penalty>  (211) 
-0

>  <r_epik_Charging_Adjusted_Penalty>  (211) 
0

>  <i_epik_Tot_Q>  (211) 
0

>  <i_epik_Tot_abs_Q>  (211) 
0

>  <s_lp_Force_Field>  (211) 
OPLS3e

>  <r_lp_Energy>  (211) 
11.1044

>  <b_lp_Chiralities_Consistent>  (211) 
1

>  <s_lp_Variant>  (211) 
55:0-1

>  <s_i_glide_gridfile>  (211) 
pfpi4k_grid

>  <i_i_glide_lignum>  (211) 
3

>  <i_i_glide_rotatable_bonds>  (211) 
0

>  <r_i_docking_score>  (211) 
-3.87879

>  <r_i_glide_ligand_efficiency>  (211) 
-0.430976

>  <r_i_glide_ligand_efficiency_sa>  (211) 
-0.896467

>  <r_i_glide_ligand_efficiency_ln>  (211) 
-1.21317

>  <r_i_glide_gscore>  (211) 
-3.87879

>  <r_i_glide_lipo>  (211) 
-0.0500827

>  <r_i_glide_hbond>  (211) 
-0.187944

>  <r_i_glide_metal>  (211) 
-0

>  <r_i_glide_rewards>  (211) 
-2.25

>  <r_i_glide_evdw>  (211) 
-15.7889

>  <r_i_glide_ecoul>  (211) 
-3.56448

>  <r_i_glide_erotb>  (211) 
0

>  <r_i_glide_esite>  (211) 
-0.066641

>  <r_i_glide_emodel>  (211) 
-24.8062

>  <r_i_glide_energy>  (211) 
-19.3534

>  <r_i_glide_einternal>  (211) 
0

>  <r_i_glide_intrahb_reward>  (211) 
-0

>  <i_i_glide_confnum>  (211) 
1

>  <i_i_glide_posenum>  (211) 
2

>  <r_i_glide_eff_state_penalty>  (211) 
0

>  <ligand_id>  (211) 
55

>  <original_smiles>  (211) 
c1cnc2nsnc2c1

>  <smiles>  (211) 
[H]c1nc2nsnc2c([H])c1[H]

$$$$
56:0:0
     RDKit          3D

 22 24  0  0  1  0  0  0  0  0999 V2000
    7.0086   -1.4553    1.0798 F   0  0  0  0  0  0  0  0  0  0  0  0
    5.7779   -1.4783    1.5930 C   0  0  0  0  0  0  0  0  0  0  0  0
    5.8036   -2.1956    2.7136 F   0  0  0  0  0  0  0  0  0  0  0  0
    5.4150   -0.2417    1.9172 F   0  0  0  0  0  0  0  0  0  0  0  0
    4.8124   -2.0336    0.5549 C   0  0  0  0  0  0  0  0  0  0  0  0
    4.7674   -1.3732   -0.6305 N   0  0  0  0  0  0  0  0  0  0  0  0
    3.9274   -1.8043   -1.6066 C   0  0  0  0  0  0  0  0  0  0  0  0
    3.8766   -1.1126   -2.8346 C   0  0  0  0  0  0  0  0  0  0  0  0
    3.0323   -1.5334   -3.8700 C   0  0  0  0  0  0  0  0  0  0  0  0
    2.2247   -2.6571   -3.6648 C   0  0  0  0  0  0  0  0  0  0  0  0
    2.2621   -3.3419   -2.4391 C   0  0  0  0  0  0  0  0  0  0  0  0
    3.1104   -2.9542   -1.3759 C   0  0  0  0  0  0  0  0  0  0  0  0
    3.1862   -3.6149   -0.1500 N   0  0  0  0  0  0  0  0  0  0  0  0
    2.4668   -4.7040    0.1669 N   0  0  0  0  0  0  0  0  0  0  0  0
    2.9371   -4.9025    1.4008 C   0  0  0  0  0  0  0  0  0  0  0  0
    3.8736   -3.9949    1.8444 N   0  0  0  0  0  0  0  0  0  0  0  0
    4.0087   -3.1783    0.7976 C   0  0  0  0  0  0  0  0  0  0  0  0
    4.4921   -0.2389   -2.9769 H   0  0  0  0  0  0  0  0  0  0  0  0
    2.9919   -0.9913   -4.8031 H   0  0  0  0  0  0  0  0  0  0  0  0
    1.5569   -3.0019   -4.4410 H   0  0  0  0  0  0  0  0  0  0  0  0
    1.6267   -4.2063   -2.3167 H   0  0  0  0  0  0  0  0  0  0  0  0
    2.5837   -5.7156    2.0168 H   0  0  0  0  0  0  0  0  0  0  0  0
  1  2  1  0
  2  3  1  0
  2  4  1  0
  2  5  1  0
  5 17  1  0
  5  6  2  0
  6  7  1  0
  7 12  2  0
  7  8  1  0
  8  9  2  0
  8 18  1  0
  9 10  1  0
  9 19  1  0
 10 11  2  0
 10 20  1  0
 11 12  1  0
 11 21  1  0
 12 13  1  0
 13 17  1  0
 13 14  1  0
 14 15  2  0
 15 16  1  0
 15 22  1  0
 16 17  2  0
M  END
>  <i_m_ct_stereo_status>  (212) 
1

>  <s_m_source_file>  (212) 
/var/tmp/pbs.5076255.sched01/tmptehp0e0j/84lnm28v0z.sdf

>  <i_m_source_file_index>  (212) 
4

>  <i_lp_mmshare_version>  (212) 
48012

>  <i_f3d_flags>  (212) 
0

>  <s_epik_input>  (212) 
RkMoRikoRiljKG4xKWMobltjSF1uMiluMmMoYzEzKVtjSF1bY0hdW2NIXVtjSF0z

>  <s_epik_cmdline>  (212) 
J2VwaWtfcHl0aG9uJywgJy1waHQnLCAnMi4wJywgJy1waCcsICc3LjAnLCAnLXRuJywgJzgnLCAnLW1hJywgJzIwMCcsICctaW1hZScsICc8aW5maWxlLm1hZT4nLCAnLW9tYWUnLCAnPG91dGZpbGUubWFlPic=

>  <r_lp_tautomer_probability>  (212) 
1

>  <r_epik_Ionization_Penalty>  (212) 
1.10198e-09

>  <r_epik_Ionization_Penalty_Charging>  (212) 
0

>  <r_epik_Ionization_Penalty_Neutral>  (212) 
1.10198e-09

>  <r_epik_State_Penalty>  (212) 
-0

>  <r_epik_Charging_Adjusted_Penalty>  (212) 
0

>  <i_epik_Tot_Q>  (212) 
0

>  <i_epik_Tot_abs_Q>  (212) 
0

>  <s_lp_Force_Field>  (212) 
OPLS3e

>  <r_lp_Energy>  (212) 
24.2964

>  <b_lp_Chiralities_Consistent>  (212) 
1

>  <s_lp_Variant>  (212) 
56:0-1

>  <s_i_glide_gridfile>  (212) 
pfpi4k_grid

>  <i_i_glide_lignum>  (212) 
4

>  <i_i_glide_rotatable_bonds>  (212) 
1

>  <r_i_docking_score>  (212) 
-4.06018

>  <r_i_glide_ligand_efficiency>  (212) 
-0.238834

>  <r_i_glide_ligand_efficiency_sa>  (212) 
-0.614109

>  <r_i_glide_ligand_efficiency_ln>  (212) 
-1.05921

>  <r_i_glide_gscore>  (212) 
-4.06018

>  <r_i_glide_lipo>  (212) 
-0.795641

>  <r_i_glide_hbond>  (212) 
0

>  <r_i_glide_metal>  (212) 
-0

>  <r_i_glide_rewards>  (212) 
-1.96048

>  <r_i_glide_evdw>  (212) 
-19.5249

>  <r_i_glide_ecoul>  (212) 
-2.04368

>  <r_i_glide_erotb>  (212) 
0

>  <r_i_glide_esite>  (212) 
-0.0212596

>  <r_i_glide_emodel>  (212) 
-27.2045

>  <r_i_glide_energy>  (212) 
-21.5686

>  <r_i_glide_einternal>  (212) 
0.00258263

>  <r_i_glide_intrahb_reward>  (212) 
-0

>  <i_i_glide_confnum>  (212) 
1

>  <i_i_glide_posenum>  (212) 
21

>  <r_i_glide_eff_state_penalty>  (212) 
0

>  <ligand_id>  (212) 
56

>  <original_smiles>  (212) 
FC(F)(F)c1nc2ccccc2n2ncnc12

>  <smiles>  (212) 
[H]c1nc2c(C(F)(F)F)nc3c([H])c([H])c([H])c([H])c3n2n1

$$$$
56:0:1
     RDKit          3D

 22 24  0  0  1  0  0  0  0  0999 V2000
    8.6469   -4.4152   -0.3858 F   0  0  0  0  0  0  0  0  0  0  0  0
    7.9128   -3.6584    0.4274 C   0  0  0  0  0  0  0  0  0  0  0  0
    7.9621   -4.2465    1.6199 F   0  0  0  0  0  0  0  0  0  0  0  0
    8.4721   -2.4482    0.4787 F   0  0  0  0  0  0  0  0  0  0  0  0
    6.4726   -3.5094   -0.0553 C   0  0  0  0  0  0  0  0  0  0  0  0
    6.3003   -3.4320   -1.3949 N   0  0  0  0  0  0  0  0  0  0  0  0
    5.0510   -3.3128   -1.9098 C   0  0  0  0  0  0  0  0  0  0  0  0
    4.8877   -3.2943   -3.3068 C   0  0  0  0  0  0  0  0  0  0  0  0
    3.6181   -3.1501   -3.8900 C   0  0  0  0  0  0  0  0  0  0  0  0
    2.5031   -3.0475   -3.0585 C   0  0  0  0  0  0  0  0  0  0  0  0
    2.6647   -3.0888   -1.6607 C   0  0  0  0  0  0  0  0  0  0  0  0
    3.9295   -3.2208   -1.0359 C   0  0  0  0  0  0  0  0  0  0  0  0
    4.1382   -3.2684    0.3404 N   0  0  0  0  0  0  0  0  0  0  0  0
    3.1537   -3.1856    1.2492 N   0  0  0  0  0  0  0  0  0  0  0  0
    3.8997   -3.2658    2.3536 C   0  0  0  0  0  0  0  0  0  0  0  0
    5.2584   -3.3976    2.1641 N   0  0  0  0  0  0  0  0  0  0  0  0
    5.3681   -3.4029    0.8341 C   0  0  0  0  0  0  0  0  0  0  0  0
    5.7685   -3.4075   -3.9130 H   0  0  0  0  0  0  0  0  0  0  0  0
    3.4793   -3.1365   -4.9567 H   0  0  0  0  0  0  0  0  0  0  0  0
    1.5132   -2.9536   -3.4836 H   0  0  0  0  0  0  0  0  0  0  0  0
    1.7838   -3.0317   -1.0451 H   0  0  0  0  0  0  0  0  0  0  0  0
    3.4469   -3.2332    3.3372 H   0  0  0  0  0  0  0  0  0  0  0  0
  1  2  1  0
  2  3  1  0
  2  4  1  0
  2  5  1  0
  5 17  1  0
  5  6  2  0
  6  7  1  0
  7 12  2  0
  7  8  1  0
  8  9  2  0
  8 18  1  0
  9 10  1  0
  9 19  1  0
 10 11  2  0
 10 20  1  0
 11 12  1  0
 11 21  1  0
 12 13  1  0
 13 17  1  0
 13 14  1  0
 14 15  2  0
 15 16  1  0
 15 22  1  0
 16 17  2  0
M  END
>  <i_m_ct_stereo_status>  (213) 
1

>  <s_m_source_file>  (213) 
/var/tmp/pbs.5076255.sched01/tmptehp0e0j/84lnm28v0z.sdf

>  <i_m_source_file_index>  (213) 
4

>  <i_lp_mmshare_version>  (213) 
48012

>  <i_f3d_flags>  (213) 
0

>  <s_epik_input>  (213) 
RkMoRikoRiljKG4xKWMobltjSF1uMiluMmMoYzEzKVtjSF1bY0hdW2NIXVtjSF0z

>  <s_epik_cmdline>  (213) 
J2VwaWtfcHl0aG9uJywgJy1waHQnLCAnMi4wJywgJy1waCcsICc3LjAnLCAnLXRuJywgJzgnLCAnLW1hJywgJzIwMCcsICctaW1hZScsICc8aW5maWxlLm1hZT4nLCAnLW9tYWUnLCAnPG91dGZpbGUubWFlPic=

>  <r_lp_tautomer_probability>  (213) 
1

>  <r_epik_Ionization_Penalty>  (213) 
1.10198e-09

>  <r_epik_Ionization_Penalty_Charging>  (213) 
0

>  <r_epik_Ionization_Penalty_Neutral>  (213) 
1.10198e-09

>  <r_epik_State_Penalty>  (213) 
-0

>  <r_epik_Charging_Adjusted_Penalty>  (213) 
0

>  <i_epik_Tot_Q>  (213) 
0

>  <i_epik_Tot_abs_Q>  (213) 
0

>  <s_lp_Force_Field>  (213) 
OPLS3e

>  <r_lp_Energy>  (213) 
24.2964

>  <b_lp_Chiralities_Consistent>  (213) 
1

>  <s_lp_Variant>  (213) 
56:0-1

>  <s_i_glide_gridfile>  (213) 
pfpi4k_grid

>  <i_i_glide_lignum>  (213) 
4

>  <i_i_glide_rotatable_bonds>  (213) 
1

>  <r_i_docking_score>  (213) 
-3.9466

>  <r_i_glide_ligand_efficiency>  (213) 
-0.232153

>  <r_i_glide_ligand_efficiency_sa>  (213) 
-0.596931

>  <r_i_glide_ligand_efficiency_ln>  (213) 
-1.02958

>  <r_i_glide_gscore>  (213) 
-3.9466

>  <r_i_glide_lipo>  (213) 
-0.899056

>  <r_i_glide_hbond>  (213) 
0

>  <r_i_glide_metal>  (213) 
-0

>  <r_i_glide_rewards>  (213) 
-2.10907

>  <r_i_glide_evdw>  (213) 
-19.2483

>  <r_i_glide_ecoul>  (213) 
0.359003

>  <r_i_glide_erotb>  (213) 
0

>  <r_i_glide_esite>  (213) 
-0.0299169

>  <r_i_glide_emodel>  (213) 
-24.0713

>  <r_i_glide_energy>  (213) 
-18.8893

>  <r_i_glide_einternal>  (213) 
0.53197

>  <r_i_glide_intrahb_reward>  (213) 
-0

>  <i_i_glide_confnum>  (213) 
1

>  <i_i_glide_posenum>  (213) 
28

>  <r_i_glide_eff_state_penalty>  (213) 
0

>  <ligand_id>  (213) 
56

>  <original_smiles>  (213) 
FC(F)(F)c1nc2ccccc2n2ncnc12

>  <smiles>  (213) 
[H]c1nc2c(C(F)(F)F)nc3c([H])c([H])c([H])c([H])c3n2n1

$$$$
56:0:2
     RDKit          3D

 22 24  0  0  1  0  0  0  0  0999 V2000
    2.6712  -11.5917    4.8836 F   0  0  0  0  0  0  0  0  0  0  0  0
    1.5524  -11.2564    4.2361 C   0  0  0  0  0  0  0  0  0  0  0  0
    1.8259  -11.2774    2.9332 F   0  0  0  0  0  0  0  0  0  0  0  0
    0.6164  -12.1681    4.4868 F   0  0  0  0  0  0  0  0  0  0  0  0
    1.0576   -9.8720    4.6448 C   0  0  0  0  0  0  0  0  0  0  0  0
    1.6058   -9.3241    5.7590 N   0  0  0  0  0  0  0  0  0  0  0  0
    1.2017   -8.1006    6.1816 C   0  0  0  0  0  0  0  0  0  0  0  0
    1.7803   -7.5445    7.3407 C   0  0  0  0  0  0  0  0  0  0  0  0
    1.3947   -6.2827    7.8136 C   0  0  0  0  0  0  0  0  0  0  0  0
    0.4145   -5.5702    7.1142 C   0  0  0  0  0  0  0  0  0  0  0  0
   -0.1653   -6.1208    5.9552 C   0  0  0  0  0  0  0  0  0  0  0  0
    0.2011   -7.3940    5.4478 C   0  0  0  0  0  0  0  0  0  0  0  0
   -0.3493   -7.9788    4.3065 N   0  0  0  0  0  0  0  0  0  0  0  0
   -1.2937   -7.4016    3.5443 N   0  0  0  0  0  0  0  0  0  0  0  0
   -1.4357   -8.3764    2.6413 C   0  0  0  0  0  0  0  0  0  0  0  0
   -0.6255   -9.4777    2.8005 N   0  0  0  0  0  0  0  0  0  0  0  0
    0.0599   -9.1821    3.9047 C   0  0  0  0  0  0  0  0  0  0  0  0
    2.5362   -8.1020    7.8702 H   0  0  0  0  0  0  0  0  0  0  0  0
    1.8513   -5.8689    8.6998 H   0  0  0  0  0  0  0  0  0  0  0  0
    0.1057   -4.5963    7.4635 H   0  0  0  0  0  0  0  0  0  0  0  0
   -0.9214   -5.5463    5.4429 H   0  0  0  0  0  0  0  0  0  0  0  0
   -2.1374   -8.2855    1.8243 H   0  0  0  0  0  0  0  0  0  0  0  0
  1  2  1  0
  2  3  1  0
  2  4  1  0
  2  5  1  0
  5 17  1  0
  5  6  2  0
  6  7  1  0
  7 12  2  0
  7  8  1  0
  8  9  2  0
  8 18  1  0
  9 10  1  0
  9 19  1  0
 10 11  2  0
 10 20  1  0
 11 12  1  0
 11 21  1  0
 12 13  1  0
 13 17  1  0
 13 14  1  0
 14 15  2  0
 15 16  1  0
 15 22  1  0
 16 17  2  0
M  END
>  <i_m_ct_stereo_status>  (214) 
1

>  <s_m_source_file>  (214) 
/var/tmp/pbs.5076255.sched01/tmptehp0e0j/84lnm28v0z.sdf

>  <i_m_source_file_index>  (214) 
4

>  <i_lp_mmshare_version>  (214) 
48012

>  <i_f3d_flags>  (214) 
0

>  <s_epik_input>  (214) 
RkMoRikoRiljKG4xKWMobltjSF1uMiluMmMoYzEzKVtjSF1bY0hdW2NIXVtjSF0z

>  <s_epik_cmdline>  (214) 
J2VwaWtfcHl0aG9uJywgJy1waHQnLCAnMi4wJywgJy1waCcsICc3LjAnLCAnLXRuJywgJzgnLCAnLW1hJywgJzIwMCcsICctaW1hZScsICc8aW5maWxlLm1hZT4nLCAnLW9tYWUnLCAnPG91dGZpbGUubWFlPic=

>  <r_lp_tautomer_probability>  (214) 
1

>  <r_epik_Ionization_Penalty>  (214) 
1.10198e-09

>  <r_epik_Ionization_Penalty_Charging>  (214) 
0

>  <r_epik_Ionization_Penalty_Neutral>  (214) 
1.10198e-09

>  <r_epik_State_Penalty>  (214) 
-0

>  <r_epik_Charging_Adjusted_Penalty>  (214) 
0

>  <i_epik_Tot_Q>  (214) 
0

>  <i_epik_Tot_abs_Q>  (214) 
0

>  <s_lp_Force_Field>  (214) 
OPLS3e

>  <r_lp_Energy>  (214) 
24.2964

>  <b_lp_Chiralities_Consistent>  (214) 
1

>  <s_lp_Variant>  (214) 
56:0-1

>  <s_i_glide_gridfile>  (214) 
pfpi4k_grid

>  <i_i_glide_lignum>  (214) 
4

>  <i_i_glide_rotatable_bonds>  (214) 
1

>  <r_i_docking_score>  (214) 
-3.0819

>  <r_i_glide_ligand_efficiency>  (214) 
-0.181288

>  <r_i_glide_ligand_efficiency_sa>  (214) 
-0.466143

>  <r_i_glide_ligand_efficiency_ln>  (214) 
-0.803999

>  <r_i_glide_gscore>  (214) 
-3.0819

>  <r_i_glide_lipo>  (214) 
-0.055749

>  <r_i_glide_hbond>  (214) 
0

>  <r_i_glide_metal>  (214) 
-0

>  <r_i_glide_rewards>  (214) 
-1.9123

>  <r_i_glide_evdw>  (214) 
-19.1899

>  <r_i_glide_ecoul>  (214) 
0.301464

>  <r_i_glide_erotb>  (214) 
0

>  <r_i_glide_esite>  (214) 
-0.199573

>  <r_i_glide_emodel>  (214) 
-22.4679

>  <r_i_glide_energy>  (214) 
-18.8884

>  <r_i_glide_einternal>  (214) 
1.35534

>  <r_i_glide_intrahb_reward>  (214) 
-0

>  <i_i_glide_confnum>  (214) 
2

>  <i_i_glide_posenum>  (214) 
19

>  <r_i_glide_eff_state_penalty>  (214) 
0

>  <ligand_id>  (214) 
56

>  <original_smiles>  (214) 
FC(F)(F)c1nc2ccccc2n2ncnc12

>  <smiles>  (214) 
[H]c1nc2c(C(F)(F)F)nc3c([H])c([H])c([H])c([H])c3n2n1

$$$$
57:0:0
     RDKit          3D

 49 53  0  0  1  0  0  0  0  0999 V2000
    5.0113   -0.2509    3.5446 C   0  0  0  0  0  0  0  0  0  0  0  0
    4.1156   -1.2125    2.7484 C   0  0  2  0  0  0  0  0  0  0  0  0
    2.7673   -1.5329    3.4450 C   0  0  0  0  0  0  0  0  0  0  0  0
    2.2990   -2.8804    2.8400 C   0  0  2  0  0  0  0  0  0  0  0  0
    1.4988   -3.8566    3.7101 C   0  0  0  0  0  0  0  0  0  0  0  0
    0.8988   -3.4903    4.7234 O   0  0  0  0  0  0  0  0  0  0  0  0
    1.4501   -5.3321    3.2260 C   0  0  0  0  0  0  0  0  0  0  0  0
    0.4775   -6.0453    3.4741 O   0  0  0  0  0  0  0  0  0  0  0  0
    2.6066   -5.8699    2.3441 C   0  0  1  0  0  0  0  0  0  0  0  0
    2.0892   -6.1461    0.9138 C   0  0  0  0  0  0  0  0  0  0  0  0
    3.8962   -4.9818    2.4858 C   0  0  1  0  0  0  0  0  0  0  0  0
    4.4087   -5.2350    3.9496 C   0  0  0  0  0  0  0  0  0  0  0  0
    5.1206   -5.2974    1.5683 C   0  0  0  0  0  0  0  0  0  0  0  0
    5.9368   -4.0379    1.0774 C   0  0  2  0  0  0  0  0  0  0  0  0
    7.4382   -4.4001    0.9937 C   0  0  0  0  0  0  0  0  0  0  0  0
    5.9149   -2.8909    1.9446 O   0  0  0  0  0  0  0  0  0  0  0  0
    4.6960   -2.6168    2.6279 C   0  0  2  0  0  0  0  0  0  0  0  0
    3.5396   -3.5006    2.1631 C   0  0  2  0  0  0  0  0  0  0  0  0
    3.1219   -3.3090    0.8013 O   0  0  0  0  0  0  0  0  0  0  0  0
    3.9722   -3.2536   -0.2810 C   0  0  0  0  0  0  0  0  0  0  0  0
    3.3901   -2.8286   -1.4915 C   0  0  0  0  0  0  0  0  0  0  0  0
    4.1674   -2.6991   -2.6555 C   0  0  0  0  0  0  0  0  0  0  0  0
    5.5346   -3.0182   -2.6220 C   0  0  0  0  0  0  0  0  0  0  0  0
    6.1194   -3.4505   -1.4218 C   0  0  0  0  0  0  0  0  0  0  0  0
    5.3458   -3.5816   -0.2433 C   0  0  0  0  0  0  0  0  0  0  0  0
    5.2316   -0.6358    4.5390 H   0  0  0  0  0  0  0  0  0  0  0  0
    4.5384    0.7234    3.6603 H   0  0  0  0  0  0  0  0  0  0  0  0
    5.9603   -0.1007    3.0306 H   0  0  0  0  0  0  0  0  0  0  0  0
    3.9218   -0.8044    1.7560 H   0  0  0  0  0  0  0  0  0  0  0  0
    2.8978   -1.6190    4.5262 H   0  0  0  0  0  0  0  0  0  0  0  0
    2.0350   -0.7404    3.2683 H   0  0  0  0  0  0  0  0  0  0  0  0
    1.5762   -2.6082    2.0729 H   0  0  0  0  0  0  0  0  0  0  0  0
    2.8523   -6.8535    2.7469 H   0  0  0  0  0  0  0  0  0  0  0  0
    1.3243   -6.9270    0.9294 H   0  0  0  0  0  0  0  0  0  0  0  0
    2.8748   -6.5162    0.2574 H   0  0  0  0  0  0  0  0  0  0  0  0
    1.6521   -5.2696    0.4365 H   0  0  0  0  0  0  0  0  0  0  0  0
    5.4263   -4.8815    4.1158 H   0  0  0  0  0  0  0  0  0  0  0  0
    4.4398   -6.3033    4.1766 H   0  0  0  0  0  0  0  0  0  0  0  0
    3.7992   -4.7808    4.7280 H   0  0  0  0  0  0  0  0  0  0  0  0
    5.7859   -5.9824    2.0956 H   0  0  0  0  0  0  0  0  0  0  0  0
    4.8270   -5.8710    0.6927 H   0  0  0  0  0  0  0  0  0  0  0  0
    7.6204   -5.2383    0.3214 H   0  0  0  0  0  0  0  0  0  0  0  0
    7.8295   -4.6839    1.9708 H   0  0  0  0  0  0  0  0  0  0  0  0
    8.0423   -3.5575    0.6588 H   0  0  0  0  0  0  0  0  0  0  0  0
    4.9516   -2.8480    3.6587 H   0  0  0  0  0  0  0  0  0  0  0  0
    2.3390   -2.5789   -1.5211 H   0  0  0  0  0  0  0  0  0  0  0  0
    3.7101   -2.3485   -3.5663 H   0  0  0  0  0  0  0  0  0  0  0  0
    6.1428   -2.9249   -3.5099 H   0  0  0  0  0  0  0  0  0  0  0  0
    7.1734   -3.6736   -1.4296 H   0  0  0  0  0  0  0  0  0  0  0  0
  1  2  1  0
  1 26  1  0
  1 27  1  0
  1 28  1  0
  2 17  1  0
  2  3  1  0
  2 29  1  6
  3  4  1  0
  3 30  1  0
  3 31  1  0
  4 18  1  0
  4  5  1  0
  4 32  1  6
  5  6  2  0
  5  7  1  0
  7  8  2  0
  7  9  1  0
  9 10  1  0
  9 11  1  0
  9 33  1  1
 10 34  1  0
 10 35  1  0
 10 36  1  0
 11 18  1  0
 11 12  1  1
 11 13  1  0
 12 37  1  0
 12 38  1  0
 12 39  1  0
 13 14  1  0
 13 40  1  0
 13 41  1  0
 14 25  1  0
 14 15  1  6
 14 16  1  0
 15 42  1  0
 15 43  1  0
 15 44  1  0
 16 17  1  0
 17 18  1  0
 17 45  1  1
 18 19  1  6
 19 20  1  0
 20 25  2  0
 20 21  1  0
 21 22  2  0
 21 46  1  0
 22 23  1  0
 22 47  1  0
 23 24  2  0
 23 48  1  0
 24 25  1  0
 24 49  1  0
M  END
>  <i_m_ct_stereo_status>  (215) 
1

>  <s_m_source_file>  (215) 
/var/tmp/pbs.5076255.sched01/tmptehp0e0j/84lnm28v0z.sdf

>  <i_m_source_file_index>  (215) 
5

>  <i_lp_mmshare_version>  (215) 
48012

>  <i_f3d_flags>  (215) 
0

>  <s_epik_input>  (215) 
W0NAQF0xMjNbQ0BASF00W0NIMl1bQ0BASF0oW0NIM10pW0NAQEhdMk9bQ0BAXShbQ0gzXSkoW0NIMl1bQ0BdMShbQ0gzXSlbQ0BIXShbQ0gzXSlDKD1PKUM0PU8pYzVjKE8zKVtjSF1bY0hdW2NIXVtjSF01

>  <s_epik_cmdline>  (215) 
J2VwaWtfcHl0aG9uJywgJy1waHQnLCAnMi4wJywgJy1waCcsICc3LjAnLCAnLXRuJywgJzgnLCAnLW1hJywgJzIwMCcsICctaW1hZScsICc8aW5maWxlLm1hZT4nLCAnLW9tYWUnLCAnPG91dGZpbGUubWFlPic=

>  <r_lp_tautomer_probability>  (215) 
1

>  <r_epik_Ionization_Penalty>  (215) 
7.55144e-14

>  <r_epik_Ionization_Penalty_Charging>  (215) 
0

>  <r_epik_Ionization_Penalty_Neutral>  (215) 
7.55144e-14

>  <r_epik_State_Penalty>  (215) 
-0

>  <r_epik_Charging_Adjusted_Penalty>  (215) 
0

>  <i_epik_Tot_Q>  (215) 
0

>  <i_epik_Tot_abs_Q>  (215) 
0

>  <s_lp_Force_Field>  (215) 
OPLS3e

>  <r_lp_Energy>  (215) 
63.9252

>  <b_lp_Chiralities_Consistent>  (215) 
1

>  <s_lp_Variant>  (215) 
57:0-1

>  <s_i_glide_gridfile>  (215) 
pfpi4k_grid

>  <i_i_glide_lignum>  (215) 
5

>  <i_i_glide_rotatable_bonds>  (215) 
0

>  <r_i_docking_score>  (215) 
-3.472

>  <r_i_glide_ligand_efficiency>  (215) 
-0.13888

>  <r_i_glide_ligand_efficiency_sa>  (215) 
-0.406087

>  <r_i_glide_ligand_efficiency_ln>  (215) 
-0.822967

>  <r_i_glide_gscore>  (215) 
-3.472

>  <r_i_glide_lipo>  (215) 
-0.884158

>  <r_i_glide_hbond>  (215) 
-0.0148972

>  <r_i_glide_metal>  (215) 
-0

>  <r_i_glide_rewards>  (215) 
-1.09558

>  <r_i_glide_evdw>  (215) 
-25.0248

>  <r_i_glide_ecoul>  (215) 
-1.36429

>  <r_i_glide_erotb>  (215) 
0

>  <r_i_glide_esite>  (215) 
-0.0214801

>  <r_i_glide_emodel>  (215) 
-31.9675

>  <r_i_glide_energy>  (215) 
-26.3891

>  <r_i_glide_einternal>  (215) 
0

>  <r_i_glide_intrahb_reward>  (215) 
-0

>  <i_i_glide_confnum>  (215) 
2

>  <i_i_glide_posenum>  (215) 
14

>  <r_i_glide_eff_state_penalty>  (215) 
0

>  <ligand_id>  (215) 
57

>  <original_smiles>  (215) 
CC1CC2C(=O)C(=O)C(C)C3(C)CC4(C)OC1C23Oc1ccccc14

>  <smiles>  (215) 
[H]c1c([H])c([H])c2c(c1[H])OC13C4([H])OC2(C([H])([H])[H])C([H])([H])C1(C([H])([H])[H])C([H])(C([H])([H])[H])C(=O)C(=O)C3([H])C([H])([H])C4([H])C([H])([H])[H]

$$$$
57:0:1
     RDKit          3D

 49 53  0  0  1  0  0  0  0  0999 V2000
    3.1128    0.6337    2.5352 C   0  0  0  0  0  0  0  0  0  0  0  0
    2.7097   -0.7609    2.0511 C   0  0  2  0  0  0  0  0  0  0  0  0
    1.7879   -1.5103    3.0463 C   0  0  0  0  0  0  0  0  0  0  0  0
    1.9682   -3.0075    2.7095 C   0  0  2  0  0  0  0  0  0  0  0  0
    1.8319   -4.0587    3.8132 C   0  0  0  0  0  0  0  0  0  0  0  0
    1.2577   -3.8179    4.8757 O   0  0  0  0  0  0  0  0  0  0  0  0
    2.4300   -5.4611    3.5044 C   0  0  0  0  0  0  0  0  0  0  0  0
    1.9728   -6.4712    4.0376 O   0  0  0  0  0  0  0  0  0  0  0  0
    3.5775   -5.5745    2.4665 C   0  0  1  0  0  0  0  0  0  0  0  0
    3.0780   -6.3284    1.2121 C   0  0  0  0  0  0  0  0  0  0  0  0
    4.2936   -4.1930    2.2480 C   0  0  1  0  0  0  0  0  0  0  0  0
    5.0398   -3.9010    3.5972 C   0  0  0  0  0  0  0  0  0  0  0  0
    5.3879   -4.0925    1.1391 C   0  0  0  0  0  0  0  0  0  0  0  0
    5.4308   -2.7218    0.3566 C   0  0  2  0  0  0  0  0  0  0  0  0
    6.8945   -2.3788    0.0123 C   0  0  0  0  0  0  0  0  0  0  0  0
    4.9839   -1.5630    1.0844 O   0  0  0  0  0  0  0  0  0  0  0  0
    3.8781   -1.7395    1.9668 C   0  0  2  0  0  0  0  0  0  0  0  0
    3.2405   -3.1225    1.8485 C   0  0  2  0  0  0  0  0  0  0  0  0
    2.6147   -3.4129    0.5846 O   0  0  0  0  0  0  0  0  0  0  0  0
    3.1791   -3.1893   -0.6526 C   0  0  0  0  0  0  0  0  0  0  0  0
    2.3146   -3.3189   -1.7570 C   0  0  0  0  0  0  0  0  0  0  0  0
    2.7687   -3.0555   -3.0607 C   0  0  0  0  0  0  0  0  0  0  0  0
    4.1122   -2.7146   -3.2748 C   0  0  0  0  0  0  0  0  0  0  0  0
    4.9917   -2.6159   -2.1828 C   0  0  0  0  0  0  0  0  0  0  0  0
    4.5331   -2.8439   -0.8617 C   0  0  0  0  0  0  0  0  0  0  0  0
    3.6254    0.5949    3.4967 H   0  0  0  0  0  0  0  0  0  0  0  0
    2.2500    1.2916    2.6382 H   0  0  0  0  0  0  0  0  0  0  0  0
    3.7923    1.0835    1.8150 H   0  0  0  0  0  0  0  0  0  0  0  0
    2.2203   -0.6861    1.0780 H   0  0  0  0  0  0  0  0  0  0  0  0
    2.0784   -1.3117    4.0810 H   0  0  0  0  0  0  0  0  0  0  0  0
    0.7468   -1.1954    2.9316 H   0  0  0  0  0  0  0  0  0  0  0  0
    1.1151   -3.2331    2.0852 H   0  0  0  0  0  0  0  0  0  0  0  0
    4.3115   -6.2437    2.9180 H   0  0  0  0  0  0  0  0  0  0  0  0
    2.7845   -7.3473    1.4756 H   0  0  0  0  0  0  0  0  0  0  0  0
    3.8463   -6.4360    0.4470 H   0  0  0  0  0  0  0  0  0  0  0  0
    2.2096   -5.8567    0.7495 H   0  0  0  0  0  0  0  0  0  0  0  0
    5.7753   -3.1000    3.5108 H   0  0  0  0  0  0  0  0  0  0  0  0
    5.6079   -4.7739    3.9275 H   0  0  0  0  0  0  0  0  0  0  0  0
    4.3919   -3.6297    4.4294 H   0  0  0  0  0  0  0  0  0  0  0  0
    6.3602   -4.2838    1.5938 H   0  0  0  0  0  0  0  0  0  0  0  0
    5.2924   -4.8942    0.4110 H   0  0  0  0  0  0  0  0  0  0  0  0
    7.3662   -3.1550   -0.5874 H   0  0  0  0  0  0  0  0  0  0  0  0
    7.4934   -2.2515    0.9129 H   0  0  0  0  0  0  0  0  0  0  0  0
    6.9595   -1.4410   -0.5298 H   0  0  0  0  0  0  0  0  0  0  0  0
    4.3379   -1.6277    2.9456 H   0  0  0  0  0  0  0  0  0  0  0  0
    1.2810   -3.5819   -1.6038 H   0  0  0  0  0  0  0  0  0  0  0  0
    2.0823   -3.1349   -3.8919 H   0  0  0  0  0  0  0  0  0  0  0  0
    4.4672   -2.5224   -4.2763 H   0  0  0  0  0  0  0  0  0  0  0  0
    6.0162   -2.3491   -2.3819 H   0  0  0  0  0  0  0  0  0  0  0  0
  1  2  1  0
  1 26  1  0
  1 27  1  0
  1 28  1  0
  2 17  1  0
  2  3  1  0
  2 29  1  6
  3  4  1  0
  3 30  1  0
  3 31  1  0
  4 18  1  0
  4  5  1  0
  4 32  1  6
  5  6  2  0
  5  7  1  0
  7  8  2  0
  7  9  1  0
  9 10  1  0
  9 11  1  0
  9 33  1  1
 10 34  1  0
 10 35  1  0
 10 36  1  0
 11 18  1  0
 11 12  1  1
 11 13  1  0
 12 37  1  0
 12 38  1  0
 12 39  1  0
 13 14  1  0
 13 40  1  0
 13 41  1  0
 14 25  1  0
 14 15  1  6
 14 16  1  0
 15 42  1  0
 15 43  1  0
 15 44  1  0
 16 17  1  0
 17 18  1  0
 17 45  1  1
 18 19  1  6
 19 20  1  0
 20 25  2  0
 20 21  1  0
 21 22  2  0
 21 46  1  0
 22 23  1  0
 22 47  1  0
 23 24  2  0
 23 48  1  0
 24 25  1  0
 24 49  1  0
M  END
>  <i_m_ct_stereo_status>  (216) 
1

>  <s_m_source_file>  (216) 
/var/tmp/pbs.5076255.sched01/tmptehp0e0j/84lnm28v0z.sdf

>  <i_m_source_file_index>  (216) 
5

>  <i_lp_mmshare_version>  (216) 
48012

>  <i_f3d_flags>  (216) 
0

>  <s_epik_input>  (216) 
W0NAQF0xMjNbQ0BASF00W0NIMl1bQ0BASF0oW0NIM10pW0NAQEhdMk9bQ0BAXShbQ0gzXSkoW0NIMl1bQ0BdMShbQ0gzXSlbQ0BIXShbQ0gzXSlDKD1PKUM0PU8pYzVjKE8zKVtjSF1bY0hdW2NIXVtjSF01

>  <s_epik_cmdline>  (216) 
J2VwaWtfcHl0aG9uJywgJy1waHQnLCAnMi4wJywgJy1waCcsICc3LjAnLCAnLXRuJywgJzgnLCAnLW1hJywgJzIwMCcsICctaW1hZScsICc8aW5maWxlLm1hZT4nLCAnLW9tYWUnLCAnPG91dGZpbGUubWFlPic=

>  <r_lp_tautomer_probability>  (216) 
1

>  <r_epik_Ionization_Penalty>  (216) 
7.55144e-14

>  <r_epik_Ionization_Penalty_Charging>  (216) 
0

>  <r_epik_Ionization_Penalty_Neutral>  (216) 
7.55144e-14

>  <r_epik_State_Penalty>  (216) 
-0

>  <r_epik_Charging_Adjusted_Penalty>  (216) 
0

>  <i_epik_Tot_Q>  (216) 
0

>  <i_epik_Tot_abs_Q>  (216) 
0

>  <s_lp_Force_Field>  (216) 
OPLS3e

>  <r_lp_Energy>  (216) 
63.9252

>  <b_lp_Chiralities_Consistent>  (216) 
1

>  <s_lp_Variant>  (216) 
57:0-1

>  <s_i_glide_gridfile>  (216) 
pfpi4k_grid

>  <i_i_glide_lignum>  (216) 
5

>  <i_i_glide_rotatable_bonds>  (216) 
0

>  <r_i_docking_score>  (216) 
-3.0212

>  <r_i_glide_ligand_efficiency>  (216) 
-0.120848

>  <r_i_glide_ligand_efficiency_sa>  (216) 
-0.353361

>  <r_i_glide_ligand_efficiency_ln>  (216) 
-0.716114

>  <r_i_glide_gscore>  (216) 
-3.0212

>  <r_i_glide_lipo>  (216) 
-0.749291

>  <r_i_glide_hbond>  (216) 
0

>  <r_i_glide_metal>  (216) 
-0

>  <r_i_glide_rewards>  (216) 
-1.08809

>  <r_i_glide_evdw>  (216) 
-25.224

>  <r_i_glide_ecoul>  (216) 
0.518043

>  <r_i_glide_erotb>  (216) 
0

>  <r_i_glide_esite>  (216) 
-0.000318661

>  <r_i_glide_emodel>  (216) 
-29.5267

>  <r_i_glide_energy>  (216) 
-24.706

>  <r_i_glide_einternal>  (216) 
0

>  <r_i_glide_intrahb_reward>  (216) 
-0

>  <i_i_glide_confnum>  (216) 
1

>  <i_i_glide_posenum>  (216) 
7

>  <r_i_glide_eff_state_penalty>  (216) 
0

>  <ligand_id>  (216) 
57

>  <original_smiles>  (216) 
CC1CC2C(=O)C(=O)C(C)C3(C)CC4(C)OC1C23Oc1ccccc14

>  <smiles>  (216) 
[H]c1c([H])c([H])c2c(c1[H])OC13C4([H])OC2(C([H])([H])[H])C([H])([H])C1(C([H])([H])[H])C([H])(C([H])([H])[H])C(=O)C(=O)C3([H])C([H])([H])C4([H])C([H])([H])[H]

$$$$
57:0:2
     RDKit          3D

 49 53  0  0  1  0  0  0  0  0999 V2000
    2.0005   -0.4959    3.4198 C   0  0  0  0  0  0  0  0  0  0  0  0
    2.0517   -1.8120    2.6335 C   0  0  2  0  0  0  0  0  0  0  0  0
    1.4803   -3.0254    3.4140 C   0  0  0  0  0  0  0  0  0  0  0  0
    2.1195   -4.2748    2.7565 C   0  0  2  0  0  0  0  0  0  0  0  0
    2.4058   -5.5156    3.6100 C   0  0  0  0  0  0  0  0  0  0  0  0
    1.8432   -5.6951    4.6869 O   0  0  0  0  0  0  0  0  0  0  0  0
    3.4222   -6.5381    3.0224 C   0  0  0  0  0  0  0  0  0  0  0  0
    3.3640   -7.7282    3.3130 O   0  0  0  0  0  0  0  0  0  0  0  0
    4.4877   -6.0352    2.0122 C   0  0  1  0  0  0  0  0  0  0  0  0
    4.2067   -6.6240    0.6130 C   0  0  0  0  0  0  0  0  0  0  0  0
    4.6875   -4.4790    2.1183 C   0  0  1  0  0  0  0  0  0  0  0  0
    5.3654   -4.2522    3.5189 C   0  0  0  0  0  0  0  0  0  0  0  0
    5.6327   -3.7837    1.0859 C   0  0  0  0  0  0  0  0  0  0  0  0
    5.1799   -2.3421    0.6247 C   0  0  2  0  0  0  0  0  0  0  0  0
    6.4272   -1.4608    0.4047 C   0  0  0  0  0  0  0  0  0  0  0  0
    4.4108   -1.5886    1.5793 O   0  0  0  0  0  0  0  0  0  0  0  0
    3.4678   -2.3077    2.3679 C   0  0  2  0  0  0  0  0  0  0  0  0
    3.3174   -3.7656    1.9337 C   0  0  2  0  0  0  0  0  0  0  0  0
    2.7496   -3.9581    0.6233 O   0  0  0  0  0  0  0  0  0  0  0  0
    3.1548   -3.2970   -0.5144 C   0  0  0  0  0  0  0  0  0  0  0  0
    2.3251   -3.4558   -1.6387 C   0  0  0  0  0  0  0  0  0  0  0  0
    2.6187   -2.8148   -2.8526 C   0  0  0  0  0  0  0  0  0  0  0  0
    3.7620   -2.0039   -2.9542 C   0  0  0  0  0  0  0  0  0  0  0  0
    4.6084   -1.8465   -1.8405 C   0  0  0  0  0  0  0  0  0  0  0  0
    4.3111   -2.4939   -0.6120 C   0  0  0  0  0  0  0  0  0  0  0  0
    2.5392   -0.5712    4.3636 H   0  0  0  0  0  0  0  0  0  0  0  0
    0.9749   -0.2007    3.6412 H   0  0  0  0  0  0  0  0  0  0  0  0
    2.4574    0.3073    2.8451 H   0  0  0  0  0  0  0  0  0  0  0  0
    1.5130   -1.6998    1.6917 H   0  0  0  0  0  0  0  0  0  0  0  0
    1.7415   -2.9719    4.4713 H   0  0  0  0  0  0  0  0  0  0  0  0
    0.3897   -3.0539    3.3536 H   0  0  0  0  0  0  0  0  0  0  0  0
    1.3650   -4.6575    2.0737 H   0  0  0  0  0  0  0  0  0  0  0  0
    5.4218   -6.5010    2.3310 H   0  0  0  0  0  0  0  0  0  0  0  0
    4.2797   -7.7135    0.6392 H   0  0  0  0  0  0  0  0  0  0  0  0
    4.9271   -6.2997   -0.1386 H   0  0  0  0  0  0  0  0  0  0  0  0
    3.2094   -6.3780    0.2474 H   0  0  0  0  0  0  0  0  0  0  0  0
    5.7876   -3.2524    3.6275 H   0  0  0  0  0  0  0  0  0  0  0  0
    6.2042   -4.9327    3.6657 H   0  0  0  0  0  0  0  0  0  0  0  0
    4.7062   -4.3951    4.3739 H   0  0  0  0  0  0  0  0  0  0  0  0
    6.6310   -3.7314    1.5138 H   0  0  0  0  0  0  0  0  0  0  0  0
    5.7716   -4.3990    0.1977 H   0  0  0  0  0  0  0  0  0  0  0  0
    7.1001   -1.8904   -0.3373 H   0  0  0  0  0  0  0  0  0  0  0  0
    7.0001   -1.3402    1.3262 H   0  0  0  0  0  0  0  0  0  0  0  0
    6.1587   -0.4536    0.0847 H   0  0  0  0  0  0  0  0  0  0  0  0
    3.9133   -2.2608    3.3574 H   0  0  0  0  0  0  0  0  0  0  0  0
    1.4494   -4.0830   -1.5746 H   0  0  0  0  0  0  0  0  0  0  0  0
    1.9591   -2.9412   -3.6975 H   0  0  0  0  0  0  0  0  0  0  0  0
    3.9795   -1.4946   -3.8796 H   0  0  0  0  0  0  0  0  0  0  0  0
    5.4624   -1.2078   -1.9472 H   0  0  0  0  0  0  0  0  0  0  0  0
  1  2  1  0
  1 26  1  0
  1 27  1  0
  1 28  1  0
  2 17  1  0
  2  3  1  0
  2 29  1  6
  3  4  1  0
  3 30  1  0
  3 31  1  0
  4 18  1  0
  4  5  1  0
  4 32  1  6
  5  6  2  0
  5  7  1  0
  7  8  2  0
  7  9  1  0
  9 10  1  0
  9 11  1  0
  9 33  1  1
 10 34  1  0
 10 35  1  0
 10 36  1  0
 11 18  1  0
 11 12  1  1
 11 13  1  0
 12 37  1  0
 12 38  1  0
 12 39  1  0
 13 14  1  0
 13 40  1  0
 13 41  1  0
 14 25  1  0
 14 15  1  6
 14 16  1  0
 15 42  1  0
 15 43  1  0
 15 44  1  0
 16 17  1  0
 17 18  1  0
 17 45  1  1
 18 19  1  6
 19 20  1  0
 20 25  2  0
 20 21  1  0
 21 22  2  0
 21 46  1  0
 22 23  1  0
 22 47  1  0
 23 24  2  0
 23 48  1  0
 24 25  1  0
 24 49  1  0
M  END
>  <i_m_ct_stereo_status>  (217) 
1

>  <s_m_source_file>  (217) 
/var/tmp/pbs.5076255.sched01/tmptehp0e0j/84lnm28v0z.sdf

>  <i_m_source_file_index>  (217) 
5

>  <i_lp_mmshare_version>  (217) 
48012

>  <i_f3d_flags>  (217) 
0

>  <s_epik_input>  (217) 
W0NAQF0xMjNbQ0BASF00W0NIMl1bQ0BASF0oW0NIM10pW0NAQEhdMk9bQ0BAXShbQ0gzXSkoW0NIMl1bQ0BdMShbQ0gzXSlbQ0BIXShbQ0gzXSlDKD1PKUM0PU8pYzVjKE8zKVtjSF1bY0hdW2NIXVtjSF01

>  <s_epik_cmdline>  (217) 
J2VwaWtfcHl0aG9uJywgJy1waHQnLCAnMi4wJywgJy1waCcsICc3LjAnLCAnLXRuJywgJzgnLCAnLW1hJywgJzIwMCcsICctaW1hZScsICc8aW5maWxlLm1hZT4nLCAnLW9tYWUnLCAnPG91dGZpbGUubWFlPic=

>  <r_lp_tautomer_probability>  (217) 
1

>  <r_epik_Ionization_Penalty>  (217) 
7.55144e-14

>  <r_epik_Ionization_Penalty_Charging>  (217) 
0

>  <r_epik_Ionization_Penalty_Neutral>  (217) 
7.55144e-14

>  <r_epik_State_Penalty>  (217) 
-0

>  <r_epik_Charging_Adjusted_Penalty>  (217) 
0

>  <i_epik_Tot_Q>  (217) 
0

>  <i_epik_Tot_abs_Q>  (217) 
0

>  <s_lp_Force_Field>  (217) 
OPLS3e

>  <r_lp_Energy>  (217) 
63.9252

>  <b_lp_Chiralities_Consistent>  (217) 
1

>  <s_lp_Variant>  (217) 
57:0-1

>  <s_i_glide_gridfile>  (217) 
pfpi4k_grid

>  <i_i_glide_lignum>  (217) 
5

>  <i_i_glide_rotatable_bonds>  (217) 
0

>  <r_i_docking_score>  (217) 
-2.87908

>  <r_i_glide_ligand_efficiency>  (217) 
-0.115163

>  <r_i_glide_ligand_efficiency_sa>  (217) 
-0.336739

>  <r_i_glide_ligand_efficiency_ln>  (217) 
-0.682429

>  <r_i_glide_gscore>  (217) 
-2.87908

>  <r_i_glide_lipo>  (217) 
-0.599411

>  <r_i_glide_hbond>  (217) 
0

>  <r_i_glide_metal>  (217) 
-0

>  <r_i_glide_rewards>  (217) 
-1.08809

>  <r_i_glide_evdw>  (217) 
-25.9981

>  <r_i_glide_ecoul>  (217) 
0.723022

>  <r_i_glide_erotb>  (217) 
0

>  <r_i_glide_esite>  (217) 
-0.000123916

>  <r_i_glide_emodel>  (217) 
-29.8635

>  <r_i_glide_energy>  (217) 
-25.2751

>  <r_i_glide_einternal>  (217) 
0

>  <r_i_glide_intrahb_reward>  (217) 
-0

>  <i_i_glide_confnum>  (217) 
2

>  <i_i_glide_posenum>  (217) 
18

>  <r_i_glide_eff_state_penalty>  (217) 
0

>  <ligand_id>  (217) 
57

>  <original_smiles>  (217) 
CC1CC2C(=O)C(=O)C(C)C3(C)CC4(C)OC1C23Oc1ccccc14

>  <smiles>  (217) 
[H]c1c([H])c([H])c2c(c1[H])OC13C4([H])OC2(C([H])([H])[H])C([H])([H])C1(C([H])([H])[H])C([H])(C([H])([H])[H])C(=O)C(=O)C3([H])C([H])([H])C4([H])C([H])([H])[H]

$$$$
58:0:0
     RDKit          3D

 46 49  0  0  1  0  0  0  0  0999 V2000
   -2.0433    3.9205   10.6653 C   0  0  0  0  0  0  0  0  0  0  0  0
   -1.7663    3.6020    9.1855 C   0  0  2  0  0  0  0  0  0  0  0  0
   -3.1114    3.2717    8.4934 C   0  0  0  0  0  0  0  0  0  0  0  0
   -2.9841    2.7323    7.0515 C   0  0  0  0  0  0  0  0  0  0  0  0
   -1.5297    2.7662    6.5697 C   0  0  2  0  0  0  0  0  0  0  0  0
   -1.2346    2.5081    5.0797 C   0  0  1  0  0  0  0  0  0  0  0  0
   -2.2558    3.1797    4.1336 C   0  0  0  0  0  0  0  0  0  0  0  0
    0.2314    2.9633    4.8103 C   0  0  1  0  0  0  0  0  0  0  0  0
    0.3479    4.3978    4.2640 C   0  0  0  0  0  0  0  0  0  0  0  0
    1.0354    2.9280    6.0058 O   0  0  0  0  0  0  0  0  0  0  0  0
    0.7761    1.8097    6.7941 C   0  0  1  0  0  0  0  0  0  0  0  0
    1.7960    1.4147    7.6430 O   0  0  0  0  0  0  0  0  0  0  0  0
    1.3480    0.4792    8.6218 C   0  0  1  0  0  0  0  0  0  0  0  0
    2.4564   -0.5709    8.7788 C   0  0  0  0  0  0  0  0  0  0  0  0
    1.2287    1.2549    9.9438 C   0  0  0  0  0  0  0  0  0  0  0  0
    0.5675    2.6200    9.7582 C   0  0  0  0  0  0  0  0  0  0  0  0
   -0.7474    2.4461    8.9947 C   0  0  2  0  0  0  0  0  0  0  0  0
   -0.6135    1.9213    7.5064 C   0  0  1  0  0  0  0  0  0  0  0  0
   -0.9766    0.5583    7.5921 O   0  0  0  0  0  0  0  0  0  0  0  0
    0.1449   -0.2691    8.2800 O   0  0  0  0  0  0  0  0  0  0  0  0
   -2.3586    3.0349   11.2168 H   0  0  0  0  0  0  0  0  0  0  0  0
   -2.8519    4.6460   10.7709 H   0  0  0  0  0  0  0  0  0  0  0  0
   -1.1665    4.3250   11.1746 H   0  0  0  0  0  0  0  0  0  0  0  0
   -1.3515    4.5109    8.7511 H   0  0  0  0  0  0  0  0  0  0  0  0
   -3.6612    2.5443    9.0942 H   0  0  0  0  0  0  0  0  0  0  0  0
   -3.7316    4.1671    8.4854 H   0  0  0  0  0  0  0  0  0  0  0  0
   -3.3700    1.7147    6.9969 H   0  0  0  0  0  0  0  0  0  0  0  0
   -3.6130    3.3332    6.3992 H   0  0  0  0  0  0  0  0  0  0  0  0
   -1.2267    3.8079    6.6782 H   0  0  0  0  0  0  0  0  0  0  0  0
   -1.3109    1.4341    4.9026 H   0  0  0  0  0  0  0  0  0  0  0  0
   -2.3618    4.2414    4.3572 H   0  0  0  0  0  0  0  0  0  0  0  0
   -3.2487    2.7331    4.2183 H   0  0  0  0  0  0  0  0  0  0  0  0
   -1.9591    3.0984    3.0849 H   0  0  0  0  0  0  0  0  0  0  0  0
    0.6721    2.2963    4.0707 H   0  0  0  0  0  0  0  0  0  0  0  0
   -0.1584    4.5101    3.2996 H   0  0  0  0  0  0  0  0  0  0  0  0
    1.3940    4.6872    4.1371 H   0  0  0  0  0  0  0  0  0  0  0  0
   -0.0811    5.1266    4.9534 H   0  0  0  0  0  0  0  0  0  0  0  0
    0.7575    0.9734    6.0874 H   0  0  0  0  0  0  0  0  0  0  0  0
    2.6190   -1.1320    7.8572 H   0  0  0  0  0  0  0  0  0  0  0  0
    2.2136   -1.2884    9.5627 H   0  0  0  0  0  0  0  0  0  0  0  0
    3.4075   -0.1088    9.0480 H   0  0  0  0  0  0  0  0  0  0  0  0
    0.6722    0.6575   10.6653 H   0  0  0  0  0  0  0  0  0  0  0  0
    2.2163    1.4157   10.3777 H   0  0  0  0  0  0  0  0  0  0  0  0
    0.4018    3.0539   10.7458 H   0  0  0  0  0  0  0  0  0  0  0  0
    1.2326    3.2998    9.2274 H   0  0  0  0  0  0  0  0  0  0  0  0
   -1.2465    1.6438    9.5459 H   0  0  0  0  0  0  0  0  0  0  0  0
  1  2  1  0
  1 21  1  0
  1 22  1  0
  1 23  1  0
  2 17  1  0
  2  3  1  0
  2 24  1  6
  3  4  1  0
  3 25  1  0
  3 26  1  0
  4  5  1  0
  4 27  1  0
  4 28  1  0
  5 18  1  0
  5  6  1  0
  5 29  1  1
  6  7  1  0
  6  8  1  0
  6 30  1  1
  7 31  1  0
  7 32  1  0
  7 33  1  0
  8  9  1  0
  8 10  1  0
  8 34  1  6
  9 35  1  0
  9 36  1  0
  9 37  1  0
 10 11  1  0
 11 18  1  0
 11 12  1  0
 11 38  1  6
 12 13  1  0
 13 20  1  0
 13 14  1  1
 13 15  1  0
 14 39  1  0
 14 40  1  0
 14 41  1  0
 15 16  1  0
 15 42  1  0
 15 43  1  0
 16 17  1  0
 16 44  1  0
 16 45  1  0
 17 18  1  0
 17 46  1  1
 18 19  1  1
 19 20  1  0
M  END
>  <i_m_ct_stereo_status>  (218) 
1

>  <s_m_source_file>  (218) 
/var/tmp/pbs.5076255.sched01/tmptehp0e0j/84lnm28v0z.sdf

>  <i_m_source_file_index>  (218) 
6

>  <i_lp_mmshare_version>  (218) 
48012

>  <i_f3d_flags>  (218) 
0

>  <s_epik_input>  (218) 
W0NAXTEyM1tDQEBIXTRbQ0gyXVtDSDJdW0NAQEhdKFtDSDNdKVtDQEBIXTJbQ0gyXVtDSDJdW0NAQF0oW0NIM10pKE9PMylPW0NAQEhdMU9bQ0BIXShbQ0gzXSlbQ0BASF00W0NIM10=

>  <s_epik_cmdline>  (218) 
J2VwaWtfcHl0aG9uJywgJy1waHQnLCAnMi4wJywgJy1waCcsICc3LjAnLCAnLXRuJywgJzgnLCAnLW1hJywgJzIwMCcsICctaW1hZScsICc8aW5maWxlLm1hZT4nLCAnLW9tYWUnLCAnPG91dGZpbGUubWFlPic=

>  <r_lp_tautomer_probability>  (218) 
1

>  <r_epik_Ionization_Penalty>  (218) 
3.19687e-14

>  <r_epik_Ionization_Penalty_Charging>  (218) 
0

>  <r_epik_Ionization_Penalty_Neutral>  (218) 
3.19687e-14

>  <r_epik_State_Penalty>  (218) 
-0

>  <r_epik_Charging_Adjusted_Penalty>  (218) 
0

>  <i_epik_Tot_Q>  (218) 
0

>  <i_epik_Tot_abs_Q>  (218) 
0

>  <s_epik_Chemistry_Notes>  (218) 
This compound contains an acetal/aminal-like group ( X-CH(R)-Y where X, Y are N, S, or O) that may be acid/base labile, releasing an aldehyde.

>  <s_lp_Force_Field>  (218) 
OPLS3e

>  <r_lp_Energy>  (218) 
69.1533

>  <b_lp_Chiralities_Consistent>  (218) 
1

>  <s_lp_Variant>  (218) 
58:0-1

>  <s_i_glide_gridfile>  (218) 
pfpi4k_grid

>  <i_i_glide_lignum>  (218) 
6

>  <i_i_glide_rotatable_bonds>  (218) 
0

>  <r_i_docking_score>  (218) 
-2.97194

>  <r_i_glide_ligand_efficiency>  (218) 
-0.148597

>  <r_i_glide_ligand_efficiency_sa>  (218) 
-0.403354

>  <r_i_glide_ligand_efficiency_ln>  (218) 
-0.743777

>  <r_i_glide_gscore>  (218) 
-2.97194

>  <r_i_glide_lipo>  (218) 
-0.293569

>  <r_i_glide_hbond>  (218) 
-0.103198

>  <r_i_glide_metal>  (218) 
-0

>  <r_i_glide_rewards>  (218) 
-1.48381

>  <r_i_glide_evdw>  (218) 
-16.3335

>  <r_i_glide_ecoul>  (218) 
-1.82703

>  <r_i_glide_erotb>  (218) 
0

>  <r_i_glide_esite>  (218) 
-0.000632653

>  <r_i_glide_emodel>  (218) 
-21.6362

>  <r_i_glide_energy>  (218) 
-18.1605

>  <r_i_glide_einternal>  (218) 
0

>  <r_i_glide_intrahb_reward>  (218) 
-0

>  <i_i_glide_confnum>  (218) 
1

>  <i_i_glide_posenum>  (218) 
1

>  <r_i_glide_eff_state_penalty>  (218) 
0

>  <ligand_id>  (218) 
58

>  <original_smiles>  (218) 
CC1CCC2C(C)C(C)OC3OC4(C)CCC1C32OO4

>  <smiles>  (218) 
[H]C([H])([H])C1([H])OC2([H])OC3(C([H])([H])[H])OOC24C([H])(C([H])([H])C3([H])[H])C([H])(C([H])([H])[H])C([H])([H])C([H])([H])C4([H])C1([H])C([H])([H])[H]

$$$$
58:0:1
     RDKit          3D

 46 49  0  0  1  0  0  0  0  0999 V2000
   -3.0071    4.1302    9.3638 C   0  0  0  0  0  0  0  0  0  0  0  0
   -1.8737    3.1014    9.2073 C   0  0  2  0  0  0  0  0  0  0  0  0
   -0.6583    3.5693   10.0529 C   0  0  0  0  0  0  0  0  0  0  0  0
    0.6280    2.7491    9.8507 C   0  0  0  0  0  0  0  0  0  0  0  0
    0.3828    1.5494    8.9307 C   0  0  2  0  0  0  0  0  0  0  0  0
    1.4751    0.4733    8.8068 C   0  0  1  0  0  0  0  0  0  0  0  0
    2.1623    0.1482   10.1563 C   0  0  0  0  0  0  0  0  0  0  0  0
    0.8334   -0.7751    8.1262 C   0  0  1  0  0  0  0  0  0  0  0  0
    0.3412   -1.8444    9.1187 C   0  0  0  0  0  0  0  0  0  0  0  0
   -0.3100   -0.4202    7.3187 O   0  0  0  0  0  0  0  0  0  0  0  0
   -0.1125    0.7551    6.6012 C   0  0  1  0  0  0  0  0  0  0  0  0
   -0.8924    0.9001    5.4666 O   0  0  0  0  0  0  0  0  0  0  0  0
   -0.8560    2.2356    4.9564 C   0  0  1  0  0  0  0  0  0  0  0  0
   -0.7873    2.1447    3.4261 C   0  0  0  0  0  0  0  0  0  0  0  0
   -2.1942    2.8852    5.3438 C   0  0  0  0  0  0  0  0  0  0  0  0
   -2.6157    2.5459    6.7768 C   0  0  0  0  0  0  0  0  0  0  0  0
   -1.4571    2.8696    7.7249 C   0  0  2  0  0  0  0  0  0  0  0  0
   -0.1453    2.0124    7.5338 C   0  0  1  0  0  0  0  0  0  0  0  0
    0.7303    2.8805    6.8428 O   0  0  0  0  0  0  0  0  0  0  0  0
    0.2991    3.0359    5.3593 O   0  0  0  0  0  0  0  0  0  0  0  0
   -2.7653    5.0775    8.8906 H   0  0  0  0  0  0  0  0  0  0  0  0
   -3.1778    4.3604   10.4179 H   0  0  0  0  0  0  0  0  0  0  0  0
   -3.9475    3.7835    8.9332 H   0  0  0  0  0  0  0  0  0  0  0  0
   -2.2587    2.1648    9.6177 H   0  0  0  0  0  0  0  0  0  0  0  0
   -0.4435    4.6163    9.8367 H   0  0  0  0  0  0  0  0  0  0  0  0
   -0.9386    3.5317   11.1047 H   0  0  0  0  0  0  0  0  0  0  0  0
    1.4153    3.3782    9.4417 H   0  0  0  0  0  0  0  0  0  0  0  0
    0.9705    2.4193   10.8314 H   0  0  0  0  0  0  0  0  0  0  0  0
   -0.4213    0.9879    9.4124 H   0  0  0  0  0  0  0  0  0  0  0  0
    2.2566    0.8660    8.1516 H   0  0  0  0  0  0  0  0  0  0  0  0
    1.4357   -0.0966   10.9274 H   0  0  0  0  0  0  0  0  0  0  0  0
    2.7442    0.9945   10.5282 H   0  0  0  0  0  0  0  0  0  0  0  0
    2.8452   -0.6979   10.0819 H   0  0  0  0  0  0  0  0  0  0  0  0
    1.5807   -1.2393    7.4836 H   0  0  0  0  0  0  0  0  0  0  0  0
    1.1596   -2.2518    9.7189 H   0  0  0  0  0  0  0  0  0  0  0  0
   -0.1565   -2.6666    8.5967 H   0  0  0  0  0  0  0  0  0  0  0  0
   -0.4016   -1.4441    9.8069 H   0  0  0  0  0  0  0  0  0  0  0  0
    0.8820    0.6540    6.1583 H   0  0  0  0  0  0  0  0  0  0  0  0
    0.1306    1.6673    3.0866 H   0  0  0  0  0  0  0  0  0  0  0  0
   -0.8275    3.1309    2.9663 H   0  0  0  0  0  0  0  0  0  0  0  0
   -1.6190    1.5691    3.0180 H   0  0  0  0  0  0  0  0  0  0  0  0
   -2.1241    3.9660    5.2148 H   0  0  0  0  0  0  0  0  0  0  0  0
   -2.9812    2.5491    4.6670 H   0  0  0  0  0  0  0  0  0  0  0  0
   -3.5070    3.1247    7.0287 H   0  0  0  0  0  0  0  0  0  0  0  0
   -2.8841    1.4937    6.8621 H   0  0  0  0  0  0  0  0  0  0  0  0
   -1.1848    3.8912    7.4402 H   0  0  0  0  0  0  0  0  0  0  0  0
  1  2  1  0
  1 21  1  0
  1 22  1  0
  1 23  1  0
  2 17  1  0
  2  3  1  0
  2 24  1  1
  3  4  1  0
  3 25  1  0
  3 26  1  0
  4  5  1  0
  4 27  1  0
  4 28  1  0
  5 18  1  0
  5  6  1  0
  5 29  1  1
  6  7  1  0
  6  8  1  0
  6 30  1  6
  7 31  1  0
  7 32  1  0
  7 33  1  0
  8  9  1  0
  8 10  1  0
  8 34  1  6
  9 35  1  0
  9 36  1  0
  9 37  1  0
 10 11  1  0
 11 18  1  0
 11 12  1  0
 11 38  1  6
 12 13  1  0
 13 20  1  0
 13 14  1  6
 13 15  1  0
 14 39  1  0
 14 40  1  0
 14 41  1  0
 15 16  1  0
 15 42  1  0
 15 43  1  0
 16 17  1  0
 16 44  1  0
 16 45  1  0
 17 18  1  0
 17 46  1  6
 18 19  1  6
 19 20  1  0
M  END
>  <i_m_ct_stereo_status>  (219) 
1

>  <s_m_source_file>  (219) 
/var/tmp/pbs.5076255.sched01/tmptehp0e0j/84lnm28v0z.sdf

>  <i_m_source_file_index>  (219) 
6

>  <i_lp_mmshare_version>  (219) 
48012

>  <i_f3d_flags>  (219) 
0

>  <s_epik_input>  (219) 
W0NAXTEyM1tDQEBIXTRbQ0gyXVtDSDJdW0NAQEhdKFtDSDNdKVtDQEBIXTJbQ0gyXVtDSDJdW0NAQF0oW0NIM10pKE9PMylPW0NAQEhdMU9bQ0BIXShbQ0gzXSlbQ0BASF00W0NIM10=

>  <s_epik_cmdline>  (219) 
J2VwaWtfcHl0aG9uJywgJy1waHQnLCAnMi4wJywgJy1waCcsICc3LjAnLCAnLXRuJywgJzgnLCAnLW1hJywgJzIwMCcsICctaW1hZScsICc8aW5maWxlLm1hZT4nLCAnLW9tYWUnLCAnPG91dGZpbGUubWFlPic=

>  <r_lp_tautomer_probability>  (219) 
1

>  <r_epik_Ionization_Penalty>  (219) 
3.19687e-14

>  <r_epik_Ionization_Penalty_Charging>  (219) 
0

>  <r_epik_Ionization_Penalty_Neutral>  (219) 
3.19687e-14

>  <r_epik_State_Penalty>  (219) 
-0

>  <r_epik_Charging_Adjusted_Penalty>  (219) 
0

>  <i_epik_Tot_Q>  (219) 
0

>  <i_epik_Tot_abs_Q>  (219) 
0

>  <s_epik_Chemistry_Notes>  (219) 
This compound contains an acetal/aminal-like group ( X-CH(R)-Y where X, Y are N, S, or O) that may be acid/base labile, releasing an aldehyde.

>  <s_lp_Force_Field>  (219) 
OPLS3e

>  <r_lp_Energy>  (219) 
69.1533

>  <b_lp_Chiralities_Consistent>  (219) 
1

>  <s_lp_Variant>  (219) 
58:0-1

>  <s_i_glide_gridfile>  (219) 
pfpi4k_grid

>  <i_i_glide_lignum>  (219) 
6

>  <i_i_glide_rotatable_bonds>  (219) 
0

>  <r_i_docking_score>  (219) 
-2.69821

>  <r_i_glide_ligand_efficiency>  (219) 
-0.13491

>  <r_i_glide_ligand_efficiency_sa>  (219) 
-0.366203

>  <r_i_glide_ligand_efficiency_ln>  (219) 
-0.675273

>  <r_i_glide_gscore>  (219) 
-2.69821

>  <r_i_glide_lipo>  (219) 
-0.182805

>  <r_i_glide_hbond>  (219) 
-0.0135342

>  <r_i_glide_metal>  (219) 
-0

>  <r_i_glide_rewards>  (219) 
-1.48381

>  <r_i_glide_evdw>  (219) 
-15.908

>  <r_i_glide_ecoul>  (219) 
-1.2711

>  <r_i_glide_erotb>  (219) 
0

>  <r_i_glide_esite>  (219) 
-0.0320015

>  <r_i_glide_emodel>  (219) 
-20.2816

>  <r_i_glide_energy>  (219) 
-17.1791

>  <r_i_glide_einternal>  (219) 
0

>  <r_i_glide_intrahb_reward>  (219) 
-0

>  <i_i_glide_confnum>  (219) 
1

>  <i_i_glide_posenum>  (219) 
16

>  <r_i_glide_eff_state_penalty>  (219) 
0

>  <ligand_id>  (219) 
58

>  <original_smiles>  (219) 
CC1CCC2C(C)C(C)OC3OC4(C)CCC1C32OO4

>  <smiles>  (219) 
[H]C([H])([H])C1([H])OC2([H])OC3(C([H])([H])[H])OOC24C([H])(C([H])([H])C3([H])[H])C([H])(C([H])([H])[H])C([H])([H])C([H])([H])C4([H])C1([H])C([H])([H])[H]

$$$$
58:0:2
     RDKit          3D

 46 49  0  0  1  0  0  0  0  0999 V2000
   -1.4791    3.6750    8.0501 C   0  0  0  0  0  0  0  0  0  0  0  0
   -0.9600    2.9123    6.8211 C   0  0  2  0  0  0  0  0  0  0  0  0
   -2.1262    2.7485    5.8121 C   0  0  0  0  0  0  0  0  0  0  0  0
   -1.8191    1.8405    4.6012 C   0  0  0  0  0  0  0  0  0  0  0  0
   -0.3622    1.3815    4.6012 C   0  0  2  0  0  0  0  0  0  0  0  0
    0.1822    0.6750    3.3510 C   0  0  1  0  0  0  0  0  0  0  0  0
   -0.3421    1.3041    2.0382 C   0  0  0  0  0  0  0  0  0  0  0  0
    1.7232    0.6671    3.4570 C   0  0  1  0  0  0  0  0  0  0  0  0
    2.4315    1.8262    2.7382 C   0  0  0  0  0  0  0  0  0  0  0  0
    2.1740    0.7394    4.8326 O   0  0  0  0  0  0  0  0  0  0  0  0
    1.4006   -0.0330    5.6926 C   0  0  1  0  0  0  0  0  0  0  0  0
    2.0090   -0.4218    6.8686 O   0  0  0  0  0  0  0  0  0  0  0  0
    1.0755   -0.9231    7.8206 C   0  0  1  0  0  0  0  0  0  0  0  0
    1.7198   -2.1407    8.4976 C   0  0  0  0  0  0  0  0  0  0  0  0
    0.8785    0.1733    8.8704 C   0  0  0  0  0  0  0  0  0  0  0  0
    0.7464    1.5600    8.2485 C   0  0  0  0  0  0  0  0  0  0  0  0
   -0.3339    1.5308    7.1684 C   0  0  2  0  0  0  0  0  0  0  0  0
   -0.0216    0.6063    5.9128 C   0  0  1  0  0  0  0  0  0  0  0  0
   -0.7971   -0.5423    6.1449 O   0  0  0  0  0  0  0  0  0  0  0  0
   -0.1907   -1.4322    7.2562 O   0  0  0  0  0  0  0  0  0  0  0  0
   -2.1763    3.0783    8.6334 H   0  0  0  0  0  0  0  0  0  0  0  0
   -2.0347    4.5752    7.7610 H   0  0  0  0  0  0  0  0  0  0  0  0
   -0.6771    3.9823    8.7243 H   0  0  0  0  0  0  0  0  0  0  0  0
   -0.1850    3.5367    6.3674 H   0  0  0  0  0  0  0  0  0  0  0  0
   -3.0006    2.3518    6.3234 H   0  0  0  0  0  0  0  0  0  0  0  0
   -2.4130    3.7300    5.4427 H   0  0  0  0  0  0  0  0  0  0  0  0
   -2.4720    0.9733    4.5895 H   0  0  0  0  0  0  0  0  0  0  0  0
   -2.0517    2.4080    3.6981 H   0  0  0  0  0  0  0  0  0  0  0  0
    0.2199    2.3037    4.6055 H   0  0  0  0  0  0  0  0  0  0  0  0
   -0.1789   -0.3615    3.3637 H   0  0  0  0  0  0  0  0  0  0  0  0
   -0.1759    2.3750    2.0216 H   0  0  0  0  0  0  0  0  0  0  0  0
   -1.4177    1.1508    1.8878 H   0  0  0  0  0  0  0  0  0  0  0  0
    0.1599    0.8877    1.1597 H   0  0  0  0  0  0  0  0  0  0  0  0
    2.1020   -0.2674    3.0314 H   0  0  0  0  0  0  0  0  0  0  0  0
    2.2574    1.8157    1.6586 H   0  0  0  0  0  0  0  0  0  0  0  0
    3.4944    1.7887    2.9273 H   0  0  0  0  0  0  0  0  0  0  0  0
    2.0960    2.8026    3.1158 H   0  0  0  0  0  0  0  0  0  0  0  0
    1.2893   -0.9877    5.1817 H   0  0  0  0  0  0  0  0  0  0  0  0
    1.9167   -2.9515    7.7825 H   0  0  0  0  0  0  0  0  0  0  0  0
    1.0813   -2.5464    9.2790 H   0  0  0  0  0  0  0  0  0  0  0  0
    2.6761   -1.8819    8.9598 H   0  0  0  0  0  0  0  0  0  0  0  0
   -0.0000   -0.0532    9.4834 H   0  0  0  0  0  0  0  0  0  0  0  0
    1.7239    0.2027    9.5596 H   0  0  0  0  0  0  0  0  0  0  0  0
    0.4964    2.2620    9.0527 H   0  0  0  0  0  0  0  0  0  0  0  0
    1.6999    1.8836    7.8321 H   0  0  0  0  0  0  0  0  0  0  0  0
   -1.1775    1.0502    7.6684 H   0  0  0  0  0  0  0  0  0  0  0  0
  1  2  1  0
  1 21  1  0
  1 22  1  0
  1 23  1  0
  2 17  1  0
  2  3  1  0
  2 24  1  6
  3  4  1  0
  3 25  1  0
  3 26  1  0
  4  5  1  0
  4 27  1  0
  4 28  1  0
  5 18  1  0
  5  6  1  0
  5 29  1  1
  6  7  1  0
  6  8  1  0
  6 30  1  1
  7 31  1  0
  7 32  1  0
  7 33  1  0
  8  9  1  0
  8 10  1  0
  8 34  1  6
  9 35  1  0
  9 36  1  0
  9 37  1  0
 10 11  1  0
 11 18  1  0
 11 12  1  0
 11 38  1  6
 12 13  1  0
 13 20  1  0
 13 14  1  1
 13 15  1  0
 14 39  1  0
 14 40  1  0
 14 41  1  0
 15 16  1  0
 15 42  1  0
 15 43  1  0
 16 17  1  0
 16 44  1  0
 16 45  1  0
 17 18  1  0
 17 46  1  1
 18 19  1  1
 19 20  1  0
M  END
>  <i_m_ct_stereo_status>  (220) 
1

>  <s_m_source_file>  (220) 
/var/tmp/pbs.5076255.sched01/tmptehp0e0j/84lnm28v0z.sdf

>  <i_m_source_file_index>  (220) 
6

>  <i_lp_mmshare_version>  (220) 
48012

>  <i_f3d_flags>  (220) 
0

>  <s_epik_input>  (220) 
W0NAXTEyM1tDQEBIXTRbQ0gyXVtDSDJdW0NAQEhdKFtDSDNdKVtDQEBIXTJbQ0gyXVtDSDJdW0NAQF0oW0NIM10pKE9PMylPW0NAQEhdMU9bQ0BIXShbQ0gzXSlbQ0BASF00W0NIM10=

>  <s_epik_cmdline>  (220) 
J2VwaWtfcHl0aG9uJywgJy1waHQnLCAnMi4wJywgJy1waCcsICc3LjAnLCAnLXRuJywgJzgnLCAnLW1hJywgJzIwMCcsICctaW1hZScsICc8aW5maWxlLm1hZT4nLCAnLW9tYWUnLCAnPG91dGZpbGUubWFlPic=

>  <r_lp_tautomer_probability>  (220) 
1

>  <r_epik_Ionization_Penalty>  (220) 
3.19687e-14

>  <r_epik_Ionization_Penalty_Charging>  (220) 
0

>  <r_epik_Ionization_Penalty_Neutral>  (220) 
3.19687e-14

>  <r_epik_State_Penalty>  (220) 
-0

>  <r_epik_Charging_Adjusted_Penalty>  (220) 
0

>  <i_epik_Tot_Q>  (220) 
0

>  <i_epik_Tot_abs_Q>  (220) 
0

>  <s_epik_Chemistry_Notes>  (220) 
This compound contains an acetal/aminal-like group ( X-CH(R)-Y where X, Y are N, S, or O) that may be acid/base labile, releasing an aldehyde.

>  <s_lp_Force_Field>  (220) 
OPLS3e

>  <r_lp_Energy>  (220) 
69.1533

>  <b_lp_Chiralities_Consistent>  (220) 
1

>  <s_lp_Variant>  (220) 
58:0-1

>  <s_i_glide_gridfile>  (220) 
pfpi4k_grid

>  <i_i_glide_lignum>  (220) 
6

>  <i_i_glide_rotatable_bonds>  (220) 
0

>  <r_i_docking_score>  (220) 
-2.63248

>  <r_i_glide_ligand_efficiency>  (220) 
-0.131624

>  <r_i_glide_ligand_efficiency_sa>  (220) 
-0.357282

>  <r_i_glide_ligand_efficiency_ln>  (220) 
-0.658822

>  <r_i_glide_gscore>  (220) 
-2.63248

>  <r_i_glide_lipo>  (220) 
-0.0689012

>  <r_i_glide_hbond>  (220) 
-0.00790911

>  <r_i_glide_metal>  (220) 
-0

>  <r_i_glide_rewards>  (220) 
-1.48381

>  <r_i_glide_evdw>  (220) 
-15.7371

>  <r_i_glide_ecoul>  (220) 
-1.83677

>  <r_i_glide_erotb>  (220) 
0

>  <r_i_glide_esite>  (220) 
-0.00949065

>  <r_i_glide_emodel>  (220) 
-20.5907

>  <r_i_glide_energy>  (220) 
-17.5739

>  <r_i_glide_einternal>  (220) 
0

>  <r_i_glide_intrahb_reward>  (220) 
-0

>  <i_i_glide_confnum>  (220) 
2

>  <i_i_glide_posenum>  (220) 
6

>  <r_i_glide_eff_state_penalty>  (220) 
0

>  <ligand_id>  (220) 
58

>  <original_smiles>  (220) 
CC1CCC2C(C)C(C)OC3OC4(C)CCC1C32OO4

>  <smiles>  (220) 
[H]C([H])([H])C1([H])OC2([H])OC3(C([H])([H])[H])OOC24C([H])(C([H])([H])C3([H])[H])C([H])(C([H])([H])[H])C([H])([H])C([H])([H])C4([H])C1([H])C([H])([H])[H]

$$$$
59:0:0
     RDKit          3D

 25 28  0  0  1  0  0  0  0  0999 V2000
   -0.4198    4.5834    3.9122 C   0  0  0  0  0  0  0  0  0  0  0  0
    0.4624    3.4993    3.6814 C   0  0  0  0  0  0  0  0  0  0  0  0
   -0.0567    2.2971    3.1758 C   0  0  0  0  0  0  0  0  0  0  0  0
    0.7875    1.1135    2.9202 C   0  0  0  0  0  0  0  0  0  0  0  0
    0.3839   -0.1182    3.3123 N   0  0  0  0  0  0  0  0  0  0  0  0
    1.3916   -1.0101    2.9492 C   0  0  0  0  0  0  0  0  0  0  0  0
    1.4338   -2.4196    3.1817 C   0  0  0  0  0  0  0  0  0  0  0  0
    2.4817   -3.1848    2.7498 N   0  0  0  0  0  0  0  0  0  0  0  0
    3.4874   -2.5324    2.1003 C   0  0  0  0  0  0  0  0  0  0  0  0
    4.5946   -3.0728    1.6060 N   0  0  0  0  0  0  0  0  0  0  0  0
    5.3339   -2.0175    1.0359 C   0  0  0  0  0  0  0  0  0  0  0  0
    4.6929   -0.8071    1.1682 C   0  0  0  0  0  0  0  0  0  0  0  0
    3.5661   -1.2199    1.8408 N   0  0  0  0  0  0  0  0  0  0  0  0
    2.5033   -0.4537    2.2798 C   0  0  0  0  0  0  0  0  0  0  0  0
    2.4195    1.2740    2.0945 S   0  0  0  0  0  0  0  0  0  0  0  0
   -1.4734    2.2255    3.0218 C   0  0  0  0  0  0  0  0  0  0  0  0
   -2.2597    3.3592    3.3050 C   0  0  0  0  0  0  0  0  0  0  0  0
   -1.7559    4.5254    3.7322 N   0  0  0  0  0  0  0  0  0  0  0  0
   -0.0522    5.5213    4.2854 H   0  0  0  0  0  0  0  0  0  0  0  0
    1.5249    3.6264    3.8351 H   0  0  0  0  0  0  0  0  0  0  0  0
    0.6136   -2.9020    3.7027 H   0  0  0  0  0  0  0  0  0  0  0  0
    6.2710   -2.2778    0.5782 H   0  0  0  0  0  0  0  0  0  0  0  0
    4.9231    0.2143    0.8566 H   0  0  0  0  0  0  0  0  0  0  0  0
   -1.9530    1.3140    2.6712 H   0  0  0  0  0  0  0  0  0  0  0  0
   -3.3313    3.3304    3.1839 H   0  0  0  0  0  0  0  0  0  0  0  0
  1 18  2  0
  1  2  1  0
  1 19  1  0
  2  3  2  0
  2 20  1  0
  3  4  1  0
  3 16  1  0
  4 15  1  0
  4  5  2  0
  5  6  1  0
  6 14  2  0
  6  7  1  0
  7  8  2  0
  7 21  1  0
  8  9  1  0
  9 13  1  0
  9 10  2  0
 10 11  1  0
 11 12  2  0
 11 22  1  0
 12 13  1  0
 12 23  1  0
 13 14  1  0
 14 15  1  0
 16 17  2  0
 16 24  1  0
 17 18  1  0
 17 25  1  0
M  END
>  <i_m_ct_stereo_status>  (221) 
1

>  <s_m_source_file>  (221) 
/var/tmp/pbs.5076255.sched01/tmptehp0e0j/84lnm28v0z.sdf

>  <i_m_source_file_index>  (221) 
7

>  <i_lp_mmshare_version>  (221) 
48012

>  <i_f3d_flags>  (221) 
0

>  <s_epik_input>  (221) 
W2NIXTFbY0hdbltjSF1bY0hdYzEtYyhuMilzYyhjMjMpbjRjKG5bY0hdMyluW2NIXVtjSF00

>  <s_epik_cmdline>  (221) 
J2VwaWtfcHl0aG9uJywgJy1waHQnLCAnMi4wJywgJy1waCcsICc3LjAnLCAnLXRuJywgJzgnLCAnLW1hJywgJzIwMCcsICctaW1hZScsICc8aW5maWxlLm1hZT4nLCAnLW9tYWUnLCAnPG91dGZpbGUubWFlPic=

>  <r_lp_tautomer_probability>  (221) 
1

>  <r_epik_Ionization_Penalty>  (221) 
0.000145967

>  <r_epik_Ionization_Penalty_Charging>  (221) 
1.58815e-05

>  <r_epik_Ionization_Penalty_Neutral>  (221) 
0.000130086

>  <r_epik_State_Penalty>  (221) 
-0

>  <r_epik_Charging_Adjusted_Penalty>  (221) 
1.58815e-05

>  <i_epik_Tot_Q>  (221) 
0

>  <i_epik_Tot_abs_Q>  (221) 
0

>  <s_lp_Force_Field>  (221) 
OPLS3e

>  <r_lp_Energy>  (221) 
29.7432

>  <b_lp_Chiralities_Consistent>  (221) 
1

>  <s_lp_Variant>  (221) 
59:0-1

>  <s_i_glide_gridfile>  (221) 
pfpi4k_grid

>  <i_i_glide_lignum>  (221) 
7

>  <i_i_glide_rotatable_bonds>  (221) 
1

>  <r_i_docking_score>  (221) 
-3.55343

>  <r_i_glide_ligand_efficiency>  (221) 
-0.197413

>  <r_i_glide_ligand_efficiency_sa>  (221) 
-0.517368

>  <r_i_glide_ligand_efficiency_ln>  (221) 
-0.913391

>  <r_i_glide_gscore>  (221) 
-3.55343

>  <r_i_glide_lipo>  (221) 
-0.207269

>  <r_i_glide_hbond>  (221) 
-0.16

>  <r_i_glide_metal>  (221) 
-0

>  <r_i_glide_rewards>  (221) 
-1.68216

>  <r_i_glide_evdw>  (221) 
-20.5623

>  <r_i_glide_ecoul>  (221) 
-4.90794

>  <r_i_glide_erotb>  (221) 
0.273802

>  <r_i_glide_esite>  (221) 
-0.0134984

>  <r_i_glide_emodel>  (221) 
-30.4603

>  <r_i_glide_energy>  (221) 
-25.4703

>  <r_i_glide_einternal>  (221) 
1.19616

>  <r_i_glide_intrahb_reward>  (221) 
-0

>  <i_i_glide_confnum>  (221) 
4

>  <i_i_glide_posenum>  (221) 
10

>  <r_i_glide_eff_state_penalty>  (221) 
0

>  <ligand_id>  (221) 
59

>  <original_smiles>  (221) 
c1cc(-c2nc3cnc4nccn4c3s2)ccn1

>  <smiles>  (221) 
[H]c1nc([H])c([H])c(-c2nc3c([H])nc4nc([H])c([H])n4c3s2)c1[H]

$$$$
59:0:1
     RDKit          3D

 25 28  0  0  1  0  0  0  0  0999 V2000
    1.3156  -11.1833    4.6172 C   0  0  0  0  0  0  0  0  0  0  0  0
    1.0157  -10.0929    5.4513 C   0  0  0  0  0  0  0  0  0  0  0  0
    0.9774   -8.7932    4.9064 C   0  0  0  0  0  0  0  0  0  0  0  0
    0.6576   -7.5949    5.7079 C   0  0  0  0  0  0  0  0  0  0  0  0
    0.3795   -6.4080    5.1021 N   0  0  0  0  0  0  0  0  0  0  0  0
    0.1328   -5.4735    6.1045 C   0  0  0  0  0  0  0  0  0  0  0  0
   -0.1903   -4.0880    5.9406 C   0  0  0  0  0  0  0  0  0  0  0  0
   -0.4554   -3.2797    7.0089 N   0  0  0  0  0  0  0  0  0  0  0  0
   -0.3595   -3.8603    8.2410 C   0  0  0  0  0  0  0  0  0  0  0  0
   -0.5794   -3.2661    9.4058 N   0  0  0  0  0  0  0  0  0  0  0  0
   -0.3427   -4.2426   10.3943 C   0  0  0  0  0  0  0  0  0  0  0  0
   -0.0076   -5.4639    9.8504 C   0  0  0  0  0  0  0  0  0  0  0  0
   -0.0439   -5.1329    8.5162 N   0  0  0  0  0  0  0  0  0  0  0  0
    0.2085   -5.9497    7.4274 C   0  0  0  0  0  0  0  0  0  0  0  0
    0.6214   -7.6358    7.5578 S   0  0  0  0  0  0  0  0  0  0  0  0
    1.2458   -8.6732    3.5145 C   0  0  0  0  0  0  0  0  0  0  0  0
    1.5385   -9.8311    2.7672 C   0  0  0  0  0  0  0  0  0  0  0  0
    1.5749  -11.0594    3.2951 N   0  0  0  0  0  0  0  0  0  0  0  0
    1.3569  -12.1849    4.9941 H   0  0  0  0  0  0  0  0  0  0  0  0
    0.8108  -10.2860    6.4969 H   0  0  0  0  0  0  0  0  0  0  0  0
   -0.2416   -3.6684    4.9403 H   0  0  0  0  0  0  0  0  0  0  0  0
   -0.4448   -3.9415   11.4168 H   0  0  0  0  0  0  0  0  0  0  0  0
    0.2361   -6.4416   10.2645 H   0  0  0  0  0  0  0  0  0  0  0  0
    1.2332   -7.7290    3.0047 H   0  0  0  0  0  0  0  0  0  0  0  0
    1.7614   -9.7891    1.7088 H   0  0  0  0  0  0  0  0  0  0  0  0
  1 18  2  0
  1  2  1  0
  1 19  1  0
  2  3  2  0
  2 20  1  0
  3  4  1  0
  3 16  1  0
  4 15  1  0
  4  5  2  0
  5  6  1  0
  6 14  2  0
  6  7  1  0
  7  8  2  0
  7 21  1  0
  8  9  1  0
  9 13  1  0
  9 10  2  0
 10 11  1  0
 11 12  2  0
 11 22  1  0
 12 13  1  0
 12 23  1  0
 13 14  1  0
 14 15  1  0
 16 17  2  0
 16 24  1  0
 17 18  1  0
 17 25  1  0
M  END
>  <i_m_ct_stereo_status>  (222) 
1

>  <s_m_source_file>  (222) 
/var/tmp/pbs.5076255.sched01/tmptehp0e0j/84lnm28v0z.sdf

>  <i_m_source_file_index>  (222) 
7

>  <i_lp_mmshare_version>  (222) 
48012

>  <i_f3d_flags>  (222) 
0

>  <s_epik_input>  (222) 
W2NIXTFbY0hdbltjSF1bY0hdYzEtYyhuMilzYyhjMjMpbjRjKG5bY0hdMyluW2NIXVtjSF00

>  <s_epik_cmdline>  (222) 
J2VwaWtfcHl0aG9uJywgJy1waHQnLCAnMi4wJywgJy1waCcsICc3LjAnLCAnLXRuJywgJzgnLCAnLW1hJywgJzIwMCcsICctaW1hZScsICc8aW5maWxlLm1hZT4nLCAnLW9tYWUnLCAnPG91dGZpbGUubWFlPic=

>  <r_lp_tautomer_probability>  (222) 
1

>  <r_epik_Ionization_Penalty>  (222) 
0.000145967

>  <r_epik_Ionization_Penalty_Charging>  (222) 
1.58815e-05

>  <r_epik_Ionization_Penalty_Neutral>  (222) 
0.000130086

>  <r_epik_State_Penalty>  (222) 
-0

>  <r_epik_Charging_Adjusted_Penalty>  (222) 
1.58815e-05

>  <i_epik_Tot_Q>  (222) 
0

>  <i_epik_Tot_abs_Q>  (222) 
0

>  <s_lp_Force_Field>  (222) 
OPLS3e

>  <r_lp_Energy>  (222) 
29.7432

>  <b_lp_Chiralities_Consistent>  (222) 
1

>  <s_lp_Variant>  (222) 
59:0-1

>  <s_i_glide_gridfile>  (222) 
pfpi4k_grid

>  <i_i_glide_lignum>  (222) 
7

>  <i_i_glide_rotatable_bonds>  (222) 
1

>  <r_i_docking_score>  (222) 
-3.15199

>  <r_i_glide_ligand_efficiency>  (222) 
-0.175111

>  <r_i_glide_ligand_efficiency_sa>  (222) 
-0.45892

>  <r_i_glide_ligand_efficiency_ln>  (222) 
-0.810203

>  <r_i_glide_gscore>  (222) 
-3.15199

>  <r_i_glide_lipo>  (222) 
-0.0815079

>  <r_i_glide_hbond>  (222) 
-0.16

>  <r_i_glide_metal>  (222) 
-0

>  <r_i_glide_rewards>  (222) 
-1.68216

>  <r_i_glide_evdw>  (222) 
-18.5282

>  <r_i_glide_ecoul>  (222) 
-3.57403

>  <r_i_glide_erotb>  (222) 
0.273802

>  <r_i_glide_esite>  (222) 
-0.039613

>  <r_i_glide_emodel>  (222) 
-26.9988

>  <r_i_glide_energy>  (222) 
-22.1022

>  <r_i_glide_einternal>  (222) 
0.119951

>  <r_i_glide_intrahb_reward>  (222) 
-0

>  <i_i_glide_confnum>  (222) 
4

>  <i_i_glide_posenum>  (222) 
22

>  <r_i_glide_eff_state_penalty>  (222) 
0

>  <ligand_id>  (222) 
59

>  <original_smiles>  (222) 
c1cc(-c2nc3cnc4nccn4c3s2)ccn1

>  <smiles>  (222) 
[H]c1nc([H])c([H])c(-c2nc3c([H])nc4nc([H])c([H])n4c3s2)c1[H]

$$$$
59:0:2
     RDKit          3D

 25 28  0  0  1  0  0  0  0  0999 V2000
   -0.0921    4.4030    3.9703 C   0  0  0  0  0  0  0  0  0  0  0  0
    0.5864    3.2079    3.6376 C   0  0  0  0  0  0  0  0  0  0  0  0
   -0.1143    1.9898    3.6719 C   0  0  0  0  0  0  0  0  0  0  0  0
    0.5255    0.7008    3.3692 C   0  0  0  0  0  0  0  0  0  0  0  0
    0.2154   -0.4176    4.0767 N   0  0  0  0  0  0  0  0  0  0  0  0
    0.9875   -1.4627    3.5825 C   0  0  0  0  0  0  0  0  0  0  0  0
    1.0099   -2.8165    4.0314 C   0  0  0  0  0  0  0  0  0  0  0  0
    1.8008   -3.7609    3.4363 N   0  0  0  0  0  0  0  0  0  0  0  0
    2.5839   -3.3310    2.3945 C   0  0  0  0  0  0  0  0  0  0  0  0
    3.4135   -4.0770    1.6710 N   0  0  0  0  0  0  0  0  0  0  0  0
    3.9841   -3.2064    0.7254 C   0  0  0  0  0  0  0  0  0  0  0  0
    3.5013   -1.9111    0.8505 C   0  0  0  0  0  0  0  0  0  0  0  0
    2.6459   -2.0888    1.9110 N   0  0  0  0  0  0  0  0  0  0  0  0
    1.8322   -1.1247    2.5212 C   0  0  0  0  0  0  0  0  0  0  0  0
    1.7852    0.5493    2.0511 S   0  0  0  0  0  0  0  0  0  0  0  0
   -1.4615    2.0281    4.1020 C   0  0  0  0  0  0  0  0  0  0  0  0
   -2.0444    3.2702    4.4244 C   0  0  0  0  0  0  0  0  0  0  0  0
   -1.3806    4.4354    4.3597 N   0  0  0  0  0  0  0  0  0  0  0  0
    0.3992    5.3579    3.9305 H   0  0  0  0  0  0  0  0  0  0  0  0
    1.6228    3.2559    3.3463 H   0  0  0  0  0  0  0  0  0  0  0  0
    0.3674   -3.1231    4.8638 H   0  0  0  0  0  0  0  0  0  0  0  0
    4.6847   -3.6176    0.0459 H   0  0  0  0  0  0  0  0  0  0  0  0
    3.6697   -0.9899    0.3196 H   0  0  0  0  0  0  0  0  0  0  0  0
   -2.0590    1.1371    4.1864 H   0  0  0  0  0  0  0  0  0  0  0  0
   -3.0725    3.3353    4.7499 H   0  0  0  0  0  0  0  0  0  0  0  0
  1 18  2  0
  1  2  1  0
  1 19  1  0
  2  3  2  0
  2 20  1  0
  3  4  1  0
  3 16  1  0
  4 15  1  0
  4  5  2  0
  5  6  1  0
  6 14  2  0
  6  7  1  0
  7  8  2  0
  7 21  1  0
  8  9  1  0
  9 13  1  0
  9 10  2  0
 10 11  1  0
 11 12  2  0
 11 22  1  0
 12 13  1  0
 12 23  1  0
 13 14  1  0
 14 15  1  0
 16 17  2  0
 16 24  1  0
 17 18  1  0
 17 25  1  0
M  END
>  <i_m_ct_stereo_status>  (223) 
1

>  <s_m_source_file>  (223) 
/var/tmp/pbs.5076255.sched01/tmptehp0e0j/84lnm28v0z.sdf

>  <i_m_source_file_index>  (223) 
7

>  <i_lp_mmshare_version>  (223) 
48012

>  <i_f3d_flags>  (223) 
0

>  <s_epik_input>  (223) 
W2NIXTFbY0hdbltjSF1bY0hdYzEtYyhuMilzYyhjMjMpbjRjKG5bY0hdMyluW2NIXVtjSF00

>  <s_epik_cmdline>  (223) 
J2VwaWtfcHl0aG9uJywgJy1waHQnLCAnMi4wJywgJy1waCcsICc3LjAnLCAnLXRuJywgJzgnLCAnLW1hJywgJzIwMCcsICctaW1hZScsICc8aW5maWxlLm1hZT4nLCAnLW9tYWUnLCAnPG91dGZpbGUubWFlPic=

>  <r_lp_tautomer_probability>  (223) 
1

>  <r_epik_Ionization_Penalty>  (223) 
0.000145967

>  <r_epik_Ionization_Penalty_Charging>  (223) 
1.58815e-05

>  <r_epik_Ionization_Penalty_Neutral>  (223) 
0.000130086

>  <r_epik_State_Penalty>  (223) 
-0

>  <r_epik_Charging_Adjusted_Penalty>  (223) 
1.58815e-05

>  <i_epik_Tot_Q>  (223) 
0

>  <i_epik_Tot_abs_Q>  (223) 
0

>  <s_lp_Force_Field>  (223) 
OPLS3e

>  <r_lp_Energy>  (223) 
29.7432

>  <b_lp_Chiralities_Consistent>  (223) 
1

>  <s_lp_Variant>  (223) 
59:0-1

>  <s_i_glide_gridfile>  (223) 
pfpi4k_grid

>  <i_i_glide_lignum>  (223) 
7

>  <i_i_glide_rotatable_bonds>  (223) 
1

>  <r_i_docking_score>  (223) 
-3.06854

>  <r_i_glide_ligand_efficiency>  (223) 
-0.170475

>  <r_i_glide_ligand_efficiency_sa>  (223) 
-0.44677

>  <r_i_glide_ligand_efficiency_ln>  (223) 
-0.788754

>  <r_i_glide_gscore>  (223) 
-3.06854

>  <r_i_glide_lipo>  (223) 
-0.0360695

>  <r_i_glide_hbond>  (223) 
-0.060098

>  <r_i_glide_metal>  (223) 
-0

>  <r_i_glide_rewards>  (223) 
-1.68216

>  <r_i_glide_evdw>  (223) 
-19.907

>  <r_i_glide_ecoul>  (223) 
-3.61969

>  <r_i_glide_erotb>  (223) 
0.273802

>  <r_i_glide_esite>  (223) 
-0.025716

>  <r_i_glide_emodel>  (223) 
-27.8897

>  <r_i_glide_energy>  (223) 
-23.5267

>  <r_i_glide_einternal>  (223) 
0.867314

>  <r_i_glide_intrahb_reward>  (223) 
-0

>  <i_i_glide_confnum>  (223) 
2

>  <i_i_glide_posenum>  (223) 
16

>  <r_i_glide_eff_state_penalty>  (223) 
0

>  <ligand_id>  (223) 
59

>  <original_smiles>  (223) 
c1cc(-c2nc3cnc4nccn4c3s2)ccn1

>  <smiles>  (223) 
[H]c1nc([H])c([H])c(-c2nc3c([H])nc4nc([H])c([H])n4c3s2)c1[H]

$$$$
60:0:0
     RDKit          3D

 34 37  0  0  1  0  0  0  0  0999 V2000
    4.4719   -2.6691   -0.6509 C   0  0  0  0  0  0  0  0  0  0  0  0
    4.8746   -3.1173    0.4115 C   0  0  0  0  0  0  0  0  0  0  0  0
    5.3458   -3.6837    1.6912 C   0  0  2  0  0  0  0  0  0  0  0  0
    4.8565   -5.1215    1.8916 C   0  0  0  0  0  0  0  0  0  0  0  0
    5.1628   -6.1213    1.0363 C   0  0  0  0  0  0  0  0  0  0  0  0
    4.7178   -7.5601    1.2009 C   0  0  0  0  0  0  0  0  0  0  0  0
    4.3461   -7.8820    2.6544 C   0  0  0  0  0  0  0  0  0  0  0  0
    3.4736   -6.7972    3.3032 C   0  0  0  0  0  0  0  0  0  0  0  0
    4.0091   -5.3852    3.1040 C   0  0  0  0  0  0  0  0  0  0  0  0
    3.7214   -4.4792    3.9666 N   0  0  0  0  0  0  0  0  0  0  0  0
    4.2158   -3.2108    3.8819 C   0  0  0  0  0  0  0  0  0  0  0  0
    4.1079   -2.1783    4.7100 N   0  0  0  0  0  0  0  0  0  0  0  0
    4.8559   -1.1785    4.1083 N   0  0  0  0  0  0  0  0  0  0  0  0
    5.3747   -1.5744    2.9865 N   0  0  0  0  0  0  0  0  0  0  0  0
    4.9701   -2.8586    2.8270 N   0  0  0  0  0  0  0  0  0  0  0  0
    3.9780   -2.1162   -1.8989 C   0  0  0  0  0  0  0  0  0  0  0  0
    3.1061   -2.8652   -2.7133 C   0  0  0  0  0  0  0  0  0  0  0  0
    2.6325   -2.3259   -3.9190 C   0  0  0  0  0  0  0  0  0  0  0  0
    3.0148   -1.0292   -4.3142 C   0  0  0  0  0  0  0  0  0  0  0  0
    3.8747   -0.2730   -3.5038 C   0  0  0  0  0  0  0  0  0  0  0  0
    4.3614   -0.8221   -2.3000 C   0  0  0  0  0  0  0  0  0  0  0  0
    6.4360   -3.6905    1.6381 H   0  0  0  0  0  0  0  0  0  0  0  0
    5.7542   -5.9090    0.1540 H   0  0  0  0  0  0  0  0  0  0  0  0
    3.8743   -7.7465    0.5360 H   0  0  0  0  0  0  0  0  0  0  0  0
    5.5242   -8.2212    0.8845 H   0  0  0  0  0  0  0  0  0  0  0  0
    3.8479   -8.8514    2.7133 H   0  0  0  0  0  0  0  0  0  0  0  0
    5.2632   -7.9805    3.2352 H   0  0  0  0  0  0  0  0  0  0  0  0
    2.4605   -6.8412    2.9071 H   0  0  0  0  0  0  0  0  0  0  0  0
    3.3921   -6.9951    4.3703 H   0  0  0  0  0  0  0  0  0  0  0  0
    2.7903   -3.8574   -2.4130 H   0  0  0  0  0  0  0  0  0  0  0  0
    1.9562   -2.9133   -4.5261 H   0  0  0  0  0  0  0  0  0  0  0  0
    2.6372   -0.6081   -5.2375 H   0  0  0  0  0  0  0  0  0  0  0  0
    4.1585    0.7265   -3.7984 H   0  0  0  0  0  0  0  0  0  0  0  0
    5.0191   -0.2471   -1.6698 H   0  0  0  0  0  0  0  0  0  0  0  0
  1  2  3  0
  1 16  1  0
  2  3  1  0
  3 15  1  0
  3  4  1  0
  3 22  1  6
  4  9  1  0
  4  5  2  0
  5  6  1  0
  5 23  1  0
  6  7  1  0
  6 24  1  0
  6 25  1  0
  7  8  1  0
  7 26  1  0
  7 27  1  0
  8  9  1  0
  8 28  1  0
  8 29  1  0
  9 10  2  0
 10 11  1  0
 11 15  1  0
 11 12  2  0
 12 13  1  0
 13 14  2  0
 14 15  1  0
 16 21  1  0
 16 17  2  0
 17 18  1  0
 17 30  1  0
 18 19  2  0
 18 31  1  0
 19 20  1  0
 19 32  1  0
 20 21  2  0
 20 33  1  0
 21 34  1  0
M  END
>  <i_m_ct_stereo_status>  (224) 
1

>  <s_m_source_file>  (224) 
/var/tmp/pbs.5076255.sched01/tmptehp0e0j/84lnm28v0z.sdf

>  <i_m_source_file_index>  (224) 
8

>  <i_lp_mmshare_version>  (224) 
48012

>  <i_f3d_flags>  (224) 
0

>  <s_epik_input>  (224) 
W2NIXTFbY0hdW2NIXVtjSF1bY0hdYzFDI0NbQ0BIXTJuKG5ubjMpYzNOPUMoQzI9NClbQ0gyXVtDSDJdW0NIMl1bQ0hdNA==

>  <s_epik_cmdline>  (224) 
J2VwaWtfcHl0aG9uJywgJy1waHQnLCAnMi4wJywgJy1waCcsICc3LjAnLCAnLXRuJywgJzgnLCAnLW1hJywgJzIwMCcsICctaW1hZScsICc8aW5maWxlLm1hZT4nLCAnLW9tYWUnLCAnPG91dGZpbGUubWFlPic=

>  <r_lp_tautomer_probability>  (224) 
1

>  <r_epik_Ionization_Penalty>  (224) 
1.50683e-11

>  <r_epik_Ionization_Penalty_Charging>  (224) 
0

>  <r_epik_Ionization_Penalty_Neutral>  (224) 
1.50683e-11

>  <r_epik_State_Penalty>  (224) 
-0

>  <r_epik_Charging_Adjusted_Penalty>  (224) 
0

>  <i_epik_Tot_Q>  (224) 
0

>  <i_epik_Tot_abs_Q>  (224) 
0

>  <s_epik_Chemistry_Notes>  (224) 
This compound has an imine and may undergo hydrolysis.

>  <s_lp_Force_Field>  (224) 
OPLS3e

>  <r_lp_Energy>  (224) 
28.9172

>  <b_lp_Chiralities_Consistent>  (224) 
1

>  <s_lp_Variant>  (224) 
60:0-1

>  <s_i_glide_gridfile>  (224) 
pfpi4k_grid

>  <i_i_glide_lignum>  (224) 
8

>  <i_i_glide_rotatable_bonds>  (224) 
2

>  <r_i_docking_score>  (224) 
-3.17682

>  <r_i_glide_ligand_efficiency>  (224) 
-0.151277

>  <r_i_glide_ligand_efficiency_sa>  (224) 
-0.417362

>  <r_i_glide_ligand_efficiency_ln>  (224) 
-0.785462

>  <r_i_glide_gscore>  (224) 
-3.17682

>  <r_i_glide_lipo>  (224) 
-0.692199

>  <r_i_glide_hbond>  (224) 
0

>  <r_i_glide_metal>  (224) 
-0

>  <r_i_glide_rewards>  (224) 
-1.60444

>  <r_i_glide_evdw>  (224) 
-22.2049

>  <r_i_glide_ecoul>  (224) 
-1.62776

>  <r_i_glide_erotb>  (224) 
0.474231

>  <r_i_glide_esite>  (224) 
0

>  <r_i_glide_emodel>  (224) 
-28.9308

>  <r_i_glide_energy>  (224) 
-23.8327

>  <r_i_glide_einternal>  (224) 
0.754122

>  <r_i_glide_intrahb_reward>  (224) 
-0

>  <i_i_glide_confnum>  (224) 
1

>  <i_i_glide_posenum>  (224) 
11

>  <r_i_glide_eff_state_penalty>  (224) 
0

>  <ligand_id>  (224) 
60

>  <original_smiles>  (224) 
C(#CC1C2=CCCCC2=Nc2nnnn21)c1ccccc1

>  <smiles>  (224) 
[H]C1=C2C(=Nc3nnnn3C2([H])C#Cc2c([H])c([H])c([H])c([H])c2[H])C([H])([H])C([H])([H])C1([H])[H]

$$$$
60:0:1
     RDKit          3D

 34 37  0  0  1  0  0  0  0  0999 V2000
    3.2568   -0.2165    2.1594 C   0  0  0  0  0  0  0  0  0  0  0  0
    3.6073   -1.1984    1.5218 C   0  0  0  0  0  0  0  0  0  0  0  0
    4.0234   -2.3816    0.7366 C   0  0  2  0  0  0  0  0  0  0  0  0
    3.7135   -2.2097   -0.7560 C   0  0  0  0  0  0  0  0  0  0  0  0
    4.2270   -1.2037   -1.4973 C   0  0  0  0  0  0  0  0  0  0  0  0
    3.9510   -0.9921   -2.9729 C   0  0  0  0  0  0  0  0  0  0  0  0
    3.4806   -2.2821   -3.6545 C   0  0  0  0  0  0  0  0  0  0  0  0
    2.4140   -3.0330   -2.8456 C   0  0  0  0  0  0  0  0  0  0  0  0
    2.7806   -3.2091   -1.3760 C   0  0  0  0  0  0  0  0  0  0  0  0
    2.2728   -4.1867   -0.7219 N   0  0  0  0  0  0  0  0  0  0  0  0
    2.6185   -4.4486    0.5705 C   0  0  0  0  0  0  0  0  0  0  0  0
    2.2814   -5.4608    1.3607 N   0  0  0  0  0  0  0  0  0  0  0  0
    2.9527   -5.2086    2.5444 N   0  0  0  0  0  0  0  0  0  0  0  0
    3.6441   -4.1070    2.4739 N   0  0  0  0  0  0  0  0  0  0  0  0
    3.4302   -3.6101    1.2317 N   0  0  0  0  0  0  0  0  0  0  0  0
    2.8188    0.9337    2.9338 C   0  0  0  0  0  0  0  0  0  0  0  0
    1.7413    1.7236    2.4837 C   0  0  0  0  0  0  0  0  0  0  0  0
    1.3202    2.8351    3.2405 C   0  0  0  0  0  0  0  0  0  0  0  0
    1.9738    3.1626    4.4441 C   0  0  0  0  0  0  0  0  0  0  0  0
    3.0501    2.3740    4.8944 C   0  0  0  0  0  0  0  0  0  0  0  0
    3.4700    1.2594    4.1415 C   0  0  0  0  0  0  0  0  0  0  0  0
    5.1047   -2.4648    0.8539 H   0  0  0  0  0  0  0  0  0  0  0  0
    4.8629   -0.4684   -1.0230 H   0  0  0  0  0  0  0  0  0  0  0  0
    3.2103   -0.1992   -3.0851 H   0  0  0  0  0  0  0  0  0  0  0  0
    4.8637   -0.6529   -3.4539 H   0  0  0  0  0  0  0  0  0  0  0  0
    3.1041   -2.0626   -4.6539 H   0  0  0  0  0  0  0  0  0  0  0  0
    4.3392   -2.9408   -3.7880 H   0  0  0  0  0  0  0  0  0  0  0  0
    1.4585   -2.5155   -2.8968 H   0  0  0  0  0  0  0  0  0  0  0  0
    2.2393   -4.0071   -3.2992 H   0  0  0  0  0  0  0  0  0  0  0  0
    1.2330    1.4867    1.5587 H   0  0  0  0  0  0  0  0  0  0  0  0
    0.4992    3.4414    2.8839 H   0  0  0  0  0  0  0  0  0  0  0  0
    1.6517    4.0189    5.0176 H   0  0  0  0  0  0  0  0  0  0  0  0
    3.5558    2.6252    5.8152 H   0  0  0  0  0  0  0  0  0  0  0  0
    4.3002    0.6627    4.4915 H   0  0  0  0  0  0  0  0  0  0  0  0
  1  2  3  0
  1 16  1  0
  2  3  1  0
  3 15  1  0
  3  4  1  0
  3 22  1  6
  4  9  1  0
  4  5  2  0
  5  6  1  0
  5 23  1  0
  6  7  1  0
  6 24  1  0
  6 25  1  0
  7  8  1  0
  7 26  1  0
  7 27  1  0
  8  9  1  0
  8 28  1  0
  8 29  1  0
  9 10  2  0
 10 11  1  0
 11 15  1  0
 11 12  2  0
 12 13  1  0
 13 14  2  0
 14 15  1  0
 16 21  1  0
 16 17  2  0
 17 18  1  0
 17 30  1  0
 18 19  2  0
 18 31  1  0
 19 20  1  0
 19 32  1  0
 20 21  2  0
 20 33  1  0
 21 34  1  0
M  END
>  <i_m_ct_stereo_status>  (225) 
1

>  <s_m_source_file>  (225) 
/var/tmp/pbs.5076255.sched01/tmptehp0e0j/84lnm28v0z.sdf

>  <i_m_source_file_index>  (225) 
8

>  <i_lp_mmshare_version>  (225) 
48012

>  <i_f3d_flags>  (225) 
0

>  <s_epik_input>  (225) 
W2NIXTFbY0hdW2NIXVtjSF1bY0hdYzFDI0NbQ0BIXTJuKG5ubjMpYzNOPUMoQzI9NClbQ0gyXVtDSDJdW0NIMl1bQ0hdNA==

>  <s_epik_cmdline>  (225) 
J2VwaWtfcHl0aG9uJywgJy1waHQnLCAnMi4wJywgJy1waCcsICc3LjAnLCAnLXRuJywgJzgnLCAnLW1hJywgJzIwMCcsICctaW1hZScsICc8aW5maWxlLm1hZT4nLCAnLW9tYWUnLCAnPG91dGZpbGUubWFlPic=

>  <r_lp_tautomer_probability>  (225) 
1

>  <r_epik_Ionization_Penalty>  (225) 
1.50683e-11

>  <r_epik_Ionization_Penalty_Charging>  (225) 
0

>  <r_epik_Ionization_Penalty_Neutral>  (225) 
1.50683e-11

>  <r_epik_State_Penalty>  (225) 
-0

>  <r_epik_Charging_Adjusted_Penalty>  (225) 
0

>  <i_epik_Tot_Q>  (225) 
0

>  <i_epik_Tot_abs_Q>  (225) 
0

>  <s_epik_Chemistry_Notes>  (225) 
This compound has an imine and may undergo hydrolysis.

>  <s_lp_Force_Field>  (225) 
OPLS3e

>  <r_lp_Energy>  (225) 
28.9172

>  <b_lp_Chiralities_Consistent>  (225) 
1

>  <s_lp_Variant>  (225) 
60:0-1

>  <s_i_glide_gridfile>  (225) 
pfpi4k_grid

>  <i_i_glide_lignum>  (225) 
8

>  <i_i_glide_rotatable_bonds>  (225) 
2

>  <r_i_docking_score>  (225) 
-3.05869

>  <r_i_glide_ligand_efficiency>  (225) 
-0.145652

>  <r_i_glide_ligand_efficiency_sa>  (225) 
-0.401843

>  <r_i_glide_ligand_efficiency_ln>  (225) 
-0.756256

>  <r_i_glide_gscore>  (225) 
-3.05869

>  <r_i_glide_lipo>  (225) 
-0.378583

>  <r_i_glide_hbond>  (225) 
0

>  <r_i_glide_metal>  (225) 
-0

>  <r_i_glide_rewards>  (225) 
-1.60019

>  <r_i_glide_evdw>  (225) 
-24.4253

>  <r_i_glide_ecoul>  (225) 
-1.76505

>  <r_i_glide_erotb>  (225) 
0.474231

>  <r_i_glide_esite>  (225) 
-0.068123

>  <r_i_glide_emodel>  (225) 
-31.0806

>  <r_i_glide_energy>  (225) 
-26.1904

>  <r_i_glide_einternal>  (225) 
0.754118

>  <r_i_glide_intrahb_reward>  (225) 
-0

>  <i_i_glide_confnum>  (225) 
1

>  <i_i_glide_posenum>  (225) 
1

>  <r_i_glide_eff_state_penalty>  (225) 
0

>  <ligand_id>  (225) 
60

>  <original_smiles>  (225) 
C(#CC1C2=CCCCC2=Nc2nnnn21)c1ccccc1

>  <smiles>  (225) 
[H]C1=C2C(=Nc3nnnn3C2([H])C#Cc2c([H])c([H])c([H])c([H])c2[H])C([H])([H])C([H])([H])C1([H])[H]

$$$$
60:0:2
     RDKit          3D

 34 37  0  0  1  0  0  0  0  0999 V2000
    1.1563   -0.8920    3.0039 C   0  0  0  0  0  0  0  0  0  0  0  0
    1.9510   -1.7691    2.6991 C   0  0  0  0  0  0  0  0  0  0  0  0
    2.9285   -2.8126    2.3165 C   0  0  2  0  0  0  0  0  0  0  0  0
    3.5551   -2.5207    0.9473 C   0  0  0  0  0  0  0  0  0  0  0  0
    4.2677   -1.3990    0.6964 C   0  0  0  0  0  0  0  0  0  0  0  0
    4.9270   -1.0721   -0.6290 C   0  0  0  0  0  0  0  0  0  0  0  0
    5.1556   -2.3323   -1.4759 C   0  0  0  0  0  0  0  0  0  0  0  0
    3.9344   -3.2648   -1.5054 C   0  0  0  0  0  0  0  0  0  0  0  0
    3.3565   -3.5525   -0.1232 C   0  0  0  0  0  0  0  0  0  0  0  0
    2.7306   -4.6529    0.0808 N   0  0  0  0  0  0  0  0  0  0  0  0
    2.2460   -4.9998    1.3055 C   0  0  0  0  0  0  0  0  0  0  0  0
    1.6262   -6.1058    1.7020 N   0  0  0  0  0  0  0  0  0  0  0  0
    1.3932   -5.8953    3.0511 N   0  0  0  0  0  0  0  0  0  0  0  0
    1.8218   -4.7268    3.4345 N   0  0  0  0  0  0  0  0  0  0  0  0
    2.3522   -4.1454    2.3309 N   0  0  0  0  0  0  0  0  0  0  0  0
    0.1907    0.1312    3.3712 C   0  0  0  0  0  0  0  0  0  0  0  0
   -0.1221    1.1717    2.4737 C   0  0  0  0  0  0  0  0  0  0  0  0
   -1.0674    2.1507    2.8359 C   0  0  0  0  0  0  0  0  0  0  0  0
   -1.7042    2.0963    4.0903 C   0  0  0  0  0  0  0  0  0  0  0  0
   -1.3936    1.0546    4.9858 C   0  0  0  0  0  0  0  0  0  0  0  0
   -0.4493    0.0726    4.6268 C   0  0  0  0  0  0  0  0  0  0  0  0
    3.7163   -2.7896    3.0706 H   0  0  0  0  0  0  0  0  0  0  0  0
    4.3817   -0.6554    1.4744 H   0  0  0  0  0  0  0  0  0  0  0  0
    4.3027   -0.3558   -1.1634 H   0  0  0  0  0  0  0  0  0  0  0  0
    5.8801   -0.5840   -0.4354 H   0  0  0  0  0  0  0  0  0  0  0  0
    5.4397   -2.0592   -2.4930 H   0  0  0  0  0  0  0  0  0  0  0  0
    6.0013   -2.8832   -1.0627 H   0  0  0  0  0  0  0  0  0  0  0  0
    3.1466   -2.8411   -2.1282 H   0  0  0  0  0  0  0  0  0  0  0  0
    4.2193   -4.2096   -1.9684 H   0  0  0  0  0  0  0  0  0  0  0  0
    0.3523    1.2253    1.5021 H   0  0  0  0  0  0  0  0  0  0  0  0
   -1.2993    2.9456    2.1417 H   0  0  0  0  0  0  0  0  0  0  0  0
   -2.4309    2.8478    4.3593 H   0  0  0  0  0  0  0  0  0  0  0  0
   -1.8846    1.0106    5.9462 H   0  0  0  0  0  0  0  0  0  0  0  0
   -0.2158   -0.7245    5.3176 H   0  0  0  0  0  0  0  0  0  0  0  0
  1  2  3  0
  1 16  1  0
  2  3  1  0
  3 15  1  0
  3  4  1  0
  3 22  1  1
  4  9  1  0
  4  5  2  0
  5  6  1  0
  5 23  1  0
  6  7  1  0
  6 24  1  0
  6 25  1  0
  7  8  1  0
  7 26  1  0
  7 27  1  0
  8  9  1  0
  8 28  1  0
  8 29  1  0
  9 10  2  0
 10 11  1  0
 11 15  1  0
 11 12  2  0
 12 13  1  0
 13 14  2  0
 14 15  1  0
 16 21  1  0
 16 17  2  0
 17 18  1  0
 17 30  1  0
 18 19  2  0
 18 31  1  0
 19 20  1  0
 19 32  1  0
 20 21  2  0
 20 33  1  0
 21 34  1  0
M  END
>  <i_m_ct_stereo_status>  (226) 
1

>  <s_m_source_file>  (226) 
/var/tmp/pbs.5076255.sched01/tmptehp0e0j/84lnm28v0z.sdf

>  <i_m_source_file_index>  (226) 
8

>  <i_lp_mmshare_version>  (226) 
48012

>  <i_f3d_flags>  (226) 
0

>  <s_epik_input>  (226) 
W2NIXTFbY0hdW2NIXVtjSF1bY0hdYzFDI0NbQ0BIXTJuKG5ubjMpYzNOPUMoQzI9NClbQ0gyXVtDSDJdW0NIMl1bQ0hdNA==

>  <s_epik_cmdline>  (226) 
J2VwaWtfcHl0aG9uJywgJy1waHQnLCAnMi4wJywgJy1waCcsICc3LjAnLCAnLXRuJywgJzgnLCAnLW1hJywgJzIwMCcsICctaW1hZScsICc8aW5maWxlLm1hZT4nLCAnLW9tYWUnLCAnPG91dGZpbGUubWFlPic=

>  <r_lp_tautomer_probability>  (226) 
1

>  <r_epik_Ionization_Penalty>  (226) 
1.50683e-11

>  <r_epik_Ionization_Penalty_Charging>  (226) 
0

>  <r_epik_Ionization_Penalty_Neutral>  (226) 
1.50683e-11

>  <r_epik_State_Penalty>  (226) 
-0

>  <r_epik_Charging_Adjusted_Penalty>  (226) 
0

>  <i_epik_Tot_Q>  (226) 
0

>  <i_epik_Tot_abs_Q>  (226) 
0

>  <s_epik_Chemistry_Notes>  (226) 
This compound has an imine and may undergo hydrolysis.

>  <s_lp_Force_Field>  (226) 
OPLS3e

>  <r_lp_Energy>  (226) 
28.9172

>  <b_lp_Chiralities_Consistent>  (226) 
1

>  <s_lp_Variant>  (226) 
60:0-1

>  <s_i_glide_gridfile>  (226) 
pfpi4k_grid

>  <i_i_glide_lignum>  (226) 
8

>  <i_i_glide_rotatable_bonds>  (226) 
2

>  <r_i_docking_score>  (226) 
-2.52953

>  <r_i_glide_ligand_efficiency>  (226) 
-0.120454

>  <r_i_glide_ligand_efficiency_sa>  (226) 
-0.332323

>  <r_i_glide_ligand_efficiency_ln>  (226) 
-0.62542

>  <r_i_glide_gscore>  (226) 
-2.52953

>  <r_i_glide_lipo>  (226) 
0

>  <r_i_glide_hbond>  (226) 
0

>  <r_i_glide_metal>  (226) 
-0

>  <r_i_glide_rewards>  (226) 
-1.53733

>  <r_i_glide_evdw>  (226) 
-25.0512

>  <r_i_glide_ecoul>  (226) 
-0.570073

>  <r_i_glide_erotb>  (226) 
0.474231

>  <r_i_glide_esite>  (226) 
-0.12836

>  <r_i_glide_emodel>  (226) 
-29.5826

>  <r_i_glide_energy>  (226) 
-25.6212

>  <r_i_glide_einternal>  (226) 
0.791588

>  <r_i_glide_intrahb_reward>  (226) 
-0

>  <i_i_glide_confnum>  (226) 
2

>  <i_i_glide_posenum>  (226) 
6

>  <r_i_glide_eff_state_penalty>  (226) 
0

>  <ligand_id>  (226) 
60

>  <original_smiles>  (226) 
C(#CC1C2=CCCCC2=Nc2nnnn21)c1ccccc1

>  <smiles>  (226) 
[H]C1=C2C(=Nc3nnnn3C2([H])C#Cc2c([H])c([H])c([H])c([H])c2[H])C([H])([H])C([H])([H])C1([H])[H]

$$$$
61:0:0
     RDKit          3D

 46 48  0  0  1  0  0  0  0  0999 V2000
    3.7499   -1.0899   -1.3582 C   0  0  0  0  0  0  0  0  0  0  0  0
    3.8413   -2.4768   -2.0108 C   0  0  2  0  0  0  0  0  0  0  0  0
    5.4798   -3.2086   -1.7272 S   0  0  0  0  0  0  0  0  0  0  0  0
    5.4693   -4.0023   -0.1474 C   0  0  0  0  0  0  0  0  0  0  0  0
    6.6318   -4.6281    0.3407 C   0  0  0  0  0  0  0  0  0  0  0  0
    6.5744   -5.2889    1.5783 C   0  0  0  0  0  0  0  0  0  0  0  0
    5.3608   -5.2768    2.2843 C   0  0  0  0  0  0  0  0  0  0  0  0
    5.2403   -6.1008    3.8631 S   0  0  0  0  0  0  0  0  0  0  0  0
    6.3573   -7.0378    3.9736 O   0  0  0  0  0  0  0  0  0  0  0  0
    5.0263   -5.0696    4.8765 O   0  0  0  0  0  0  0  0  0  0  0  0
    3.7849   -7.0434    3.7279 N   0  0  0  0  0  0  0  0  0  0  0  0
    2.5485   -6.6485    4.4169 C   0  0  0  0  0  0  0  0  0  0  0  0
    1.4043   -6.4094    3.4312 C   0  0  0  0  0  0  0  0  0  0  0  0
    1.2037   -7.6566    2.5500 C   0  0  0  0  0  0  0  0  0  0  0  0
    2.5201   -7.9930    1.7997 C   0  0  0  0  0  0  0  0  0  0  0  0
    3.6948   -8.1752    2.7897 C   0  0  0  0  0  0  0  0  0  0  0  0
    0.8033   -8.7485    3.3180 O   0  0  0  0  0  0  0  0  0  0  0  0
   -0.5929   -8.6134    3.4670 C   0  0  0  0  0  0  0  0  0  0  0  0
   -0.9826   -7.9486    2.1466 C   0  0  0  0  0  0  0  0  0  0  0  0
    0.2023   -7.3737    1.6300 O   0  0  0  0  0  0  0  0  0  0  0  0
    4.2596   -4.6080    1.7252 C   0  0  0  0  0  0  0  0  0  0  0  0
    4.2963   -3.9877    0.5277 N   0  0  0  0  0  0  0  0  0  0  0  0
    3.5138   -2.3946   -3.5054 C   0  0  0  0  0  0  0  0  0  0  0  0
    2.4245   -3.0452   -3.9230 N   0  0  0  0  0  0  0  0  0  0  0  0
    4.2118   -1.7591   -4.2879 O   0  0  0  0  0  0  0  0  0  0  0  0
    2.7722   -0.6627   -1.5455 H   0  0  0  0  0  0  0  0  0  0  0  0
    4.4977   -0.3950   -1.7464 H   0  0  0  0  0  0  0  0  0  0  0  0
    3.8833   -1.1549   -0.2782 H   0  0  0  0  0  0  0  0  0  0  0  0
    3.0770   -3.1226   -1.5716 H   0  0  0  0  0  0  0  0  0  0  0  0
    7.5509   -4.6046   -0.2379 H   0  0  0  0  0  0  0  0  0  0  0  0
    7.4464   -5.7889    1.9806 H   0  0  0  0  0  0  0  0  0  0  0  0
    2.2849   -7.4500    5.1036 H   0  0  0  0  0  0  0  0  0  0  0  0
    2.6940   -5.7535    5.0174 H   0  0  0  0  0  0  0  0  0  0  0  0
    0.4987   -6.1591    3.9831 H   0  0  0  0  0  0  0  0  0  0  0  0
    1.6052   -5.5688    2.7671 H   0  0  0  0  0  0  0  0  0  0  0  0
    2.3844   -8.8929    1.1865 H   0  0  0  0  0  0  0  0  0  0  0  0
    2.7478   -7.1737    1.1165 H   0  0  0  0  0  0  0  0  0  0  0  0
    4.6379   -8.2877    2.2477 H   0  0  0  0  0  0  0  0  0  0  0  0
    3.5585   -9.0954    3.3574 H   0  0  0  0  0  0  0  0  0  0  0  0
   -1.1183   -9.5560    3.6353 H   0  0  0  0  0  0  0  0  0  0  0  0
   -0.8032   -7.9586    4.3086 H   0  0  0  0  0  0  0  0  0  0  0  0
   -1.3698   -8.6801    1.4366 H   0  0  0  0  0  0  0  0  0  0  0  0
   -1.7369   -7.1787    2.2886 H   0  0  0  0  0  0  0  0  0  0  0  0
    3.3234   -4.5422    2.2408 H   0  0  0  0  0  0  0  0  0  0  0  0
    1.8693   -3.5997   -3.2782 H   0  0  0  0  0  0  0  0  0  0  0  0
    2.1518   -2.9645   -4.8918 H   0  0  0  0  0  0  0  0  0  0  0  0
  1  2  1  0
  1 26  1  0
  1 27  1  0
  1 28  1  0
  2  3  1  0
  2 23  1  0
  2 29  1  1
  3  4  1  0
  4 22  2  0
  4  5  1  0
  5  6  2  0
  5 30  1  0
  6  7  1  0
  6 31  1  0
  7  8  1  0
  7 21  2  0
  8  9  2  0
  8 10  2  0
  8 11  1  0
 11 16  1  0
 11 12  1  0
 12 13  1  0
 12 32  1  0
 12 33  1  0
 13 14  1  0
 13 34  1  0
 13 35  1  0
 14 20  1  0
 14 15  1  0
 14 17  1  0
 15 16  1  0
 15 36  1  0
 15 37  1  0
 16 38  1  0
 16 39  1  0
 17 18  1  0
 18 19  1  0
 18 40  1  0
 18 41  1  0
 19 20  1  0
 19 42  1  0
 19 43  1  0
 21 22  1  0
 21 44  1  0
 23 24  1  0
 23 25  2  0
 24 45  1  0
 24 46  1  0
M  END
>  <i_m_ct_stereo_status>  (227) 
1

>  <s_m_source_file>  (227) 
/var/tmp/pbs.5076255.sched01/tmptehp0e0j/84lnm28v0z.sdf

>  <i_m_source_file_index>  (227) 
9

>  <i_lp_mmshare_version>  (227) 
48012

>  <i_f3d_flags>  (227) 
0

>  <s_epik_input>  (227) 
W05IMl1DKD1PKVtDQEhdKFtDSDNdKVNjMVtjSF1bY0hdYyhbY0hdbjEpUyg9TykoPU8pTihbQ0gyXVtDSDJdMilbQ0gyXVtDSDJdQzIzT1tDSDJdW0NIMl1PMw==

>  <s_epik_cmdline>  (227) 
J2VwaWtfcHl0aG9uJywgJy1waHQnLCAnMi4wJywgJy1waCcsICc3LjAnLCAnLXRuJywgJzgnLCAnLW1hJywgJzIwMCcsICctaW1hZScsICc8aW5maWxlLm1hZT4nLCAnLW9tYWUnLCAnPG91dGZpbGUubWFlPic=

>  <r_lp_tautomer_probability>  (227) 
1

>  <r_epik_Ionization_Penalty>  (227) 
1.12058e-06

>  <r_epik_Ionization_Penalty_Charging>  (227) 
0

>  <r_epik_Ionization_Penalty_Neutral>  (227) 
1.12058e-06

>  <r_epik_State_Penalty>  (227) 
-0

>  <r_epik_Charging_Adjusted_Penalty>  (227) 
0

>  <i_epik_Tot_Q>  (227) 
0

>  <i_epik_Tot_abs_Q>  (227) 
0

>  <s_lp_Force_Field>  (227) 
OPLS3e

>  <r_lp_Energy>  (227) 
21.3847

>  <b_lp_Chiralities_Consistent>  (227) 
1

>  <s_lp_Variant>  (227) 
61:0-1

>  <s_i_glide_gridfile>  (227) 
pfpi4k_grid

>  <i_i_glide_lignum>  (227) 
9

>  <i_i_glide_rotatable_bonds>  (227) 
5

>  <r_i_docking_score>  (227) 
-4.12639

>  <r_i_glide_ligand_efficiency>  (227) 
-0.165056

>  <r_i_glide_ligand_efficiency_sa>  (227) 
-0.482625

>  <r_i_glide_ligand_efficiency_ln>  (227) 
-0.978078

>  <r_i_glide_gscore>  (227) 
-4.12639

>  <r_i_glide_lipo>  (227) 
-0.388869

>  <r_i_glide_hbond>  (227) 
-0.633592

>  <r_i_glide_metal>  (227) 
-0

>  <r_i_glide_rewards>  (227) 
-1.04798

>  <r_i_glide_evdw>  (227) 
-28.8557

>  <r_i_glide_ecoul>  (227) 
-7.37326

>  <r_i_glide_erotb>  (227) 
0.518833

>  <r_i_glide_esite>  (227) 
-0.0260097

>  <r_i_glide_emodel>  (227) 
-44.0852

>  <r_i_glide_energy>  (227) 
-36.2289

>  <r_i_glide_einternal>  (227) 
2.90308

>  <r_i_glide_intrahb_reward>  (227) 
-0

>  <i_i_glide_confnum>  (227) 
4

>  <i_i_glide_posenum>  (227) 
11

>  <r_i_glide_eff_state_penalty>  (227) 
0

>  <ligand_id>  (227) 
61

>  <original_smiles>  (227) 
CC(Sc1ccc(S(=O)(=O)N2CCC3(CC2)OCCO3)cn1)C(N)=O

>  <smiles>  (227) 
[H]c1nc(SC([H])(C(=O)N([H])[H])C([H])([H])[H])c([H])c([H])c1S(=O)(=O)N1C([H])([H])C([H])([H])C2(OC([H])([H])C([H])([H])O2)C([H])([H])C1([H])[H]

$$$$
61:0:1
     RDKit          3D

 46 48  0  0  1  0  0  0  0  0999 V2000
    3.9212   -0.9272   -1.5377 C   0  0  0  0  0  0  0  0  0  0  0  0
    4.2800   -2.3387   -2.0125 C   0  0  2  0  0  0  0  0  0  0  0  0
    6.0030   -2.7371   -1.5977 S   0  0  0  0  0  0  0  0  0  0  0  0
    6.0188   -3.6503   -0.0821 C   0  0  0  0  0  0  0  0  0  0  0  0
    7.1824   -4.3281    0.3275 C   0  0  0  0  0  0  0  0  0  0  0  0
    7.1390   -5.0892    1.5107 C   0  0  0  0  0  0  0  0  0  0  0  0
    5.9370   -5.1109    2.2431 C   0  0  0  0  0  0  0  0  0  0  0  0
    5.8358   -6.0482    3.7613 S   0  0  0  0  0  0  0  0  0  0  0  0
    6.9345   -7.0184    3.7730 O   0  0  0  0  0  0  0  0  0  0  0  0
    5.6789   -5.0907    4.8576 O   0  0  0  0  0  0  0  0  0  0  0  0
    4.3570   -6.9402    3.6053 N   0  0  0  0  0  0  0  0  0  0  0  0
    3.1230   -6.5125    4.2806 C   0  0  0  0  0  0  0  0  0  0  0  0
    1.9921   -6.2191    3.2894 C   0  0  0  0  0  0  0  0  0  0  0  0
    1.7602   -7.4509    2.3865 C   0  0  0  0  0  0  0  0  0  0  0  0
    3.0762   -7.8155    1.6444 C   0  0  0  0  0  0  0  0  0  0  0  0
    4.2313   -8.0513    2.6456 C   0  0  0  0  0  0  0  0  0  0  0  0
    1.3127   -8.5406    3.1325 O   0  0  0  0  0  0  0  0  0  0  0  0
   -0.0796   -8.3547    3.2781 C   0  0  0  0  0  0  0  0  0  0  0  0
   -0.4373   -7.6498    1.9694 C   0  0  0  0  0  0  0  0  0  0  0  0
    0.7799   -7.1284    1.4542 O   0  0  0  0  0  0  0  0  0  0  0  0
    4.8412   -4.3724    1.7671 C   0  0  0  0  0  0  0  0  0  0  0  0
    4.8635   -3.6611    0.6211 N   0  0  0  0  0  0  0  0  0  0  0  0
    4.0277   -2.5117   -3.5131 C   0  0  0  0  0  0  0  0  0  0  0  0
    3.5763   -3.7080   -3.8994 N   0  0  0  0  0  0  0  0  0  0  0  0
    4.2114   -1.6058   -4.3134 O   0  0  0  0  0  0  0  0  0  0  0  0
    2.8896   -0.6868   -1.7988 H   0  0  0  0  0  0  0  0  0  0  0  0
    4.5601   -0.1718   -1.9959 H   0  0  0  0  0  0  0  0  0  0  0  0
    4.0211   -0.8371   -0.4560 H   0  0  0  0  0  0  0  0  0  0  0  0
    3.6007   -3.0376   -1.5270 H   0  0  0  0  0  0  0  0  0  0  0  0
    8.0853   -4.2758   -0.2760 H   0  0  0  0  0  0  0  0  0  0  0  0
    8.0101   -5.6307    1.8553 H   0  0  0  0  0  0  0  0  0  0  0  0
    2.8212   -7.3080    4.9620 H   0  0  0  0  0  0  0  0  0  0  0  0
    3.2933   -5.6295    4.8930 H   0  0  0  0  0  0  0  0  0  0  0  0
    1.0967   -5.9410    3.8385 H   0  0  0  0  0  0  0  0  0  0  0  0
    2.2076   -5.3805    2.6338 H   0  0  0  0  0  0  0  0  0  0  0  0
    2.9195   -8.6987    1.0176 H   0  0  0  0  0  0  0  0  0  0  0  0
    3.3371   -6.9901    0.9767 H   0  0  0  0  0  0  0  0  0  0  0  0
    5.1745   -8.1856    2.1079 H   0  0  0  0  0  0  0  0  0  0  0  0
    4.0564   -8.9793    3.1904 H   0  0  0  0  0  0  0  0  0  0  0  0
   -0.6384   -9.2785    3.4419 H   0  0  0  0  0  0  0  0  0  0  0  0
   -0.2775   -7.7053    4.1278 H   0  0  0  0  0  0  0  0  0  0  0  0
   -0.8706   -8.3583    1.2719 H   0  0  0  0  0  0  0  0  0  0  0  0
   -1.1544   -6.8434    2.1065 H   0  0  0  0  0  0  0  0  0  0  0  0
    3.9281   -4.3170    2.3208 H   0  0  0  0  0  0  0  0  0  0  0  0
    3.4040   -4.4484   -3.2353 H   0  0  0  0  0  0  0  0  0  0  0  0
    3.3287   -3.8312   -4.8754 H   0  0  0  0  0  0  0  0  0  0  0  0
  1  2  1  0
  1 26  1  0
  1 27  1  0
  1 28  1  0
  2  3  1  0
  2 23  1  0
  2 29  1  1
  3  4  1  0
  4 22  2  0
  4  5  1  0
  5  6  2  0
  5 30  1  0
  6  7  1  0
  6 31  1  0
  7  8  1  0
  7 21  2  0
  8  9  2  0
  8 10  2  0
  8 11  1  0
 11 16  1  0
 11 12  1  0
 12 13  1  0
 12 32  1  0
 12 33  1  0
 13 14  1  0
 13 34  1  0
 13 35  1  0
 14 20  1  0
 14 15  1  0
 14 17  1  0
 15 16  1  0
 15 36  1  0
 15 37  1  0
 16 38  1  0
 16 39  1  0
 17 18  1  0
 18 19  1  0
 18 40  1  0
 18 41  1  0
 19 20  1  0
 19 42  1  0
 19 43  1  0
 21 22  1  0
 21 44  1  0
 23 24  1  0
 23 25  2  0
 24 45  1  0
 24 46  1  0
M  END
>  <i_m_ct_stereo_status>  (228) 
1

>  <s_m_source_file>  (228) 
/var/tmp/pbs.5076255.sched01/tmptehp0e0j/84lnm28v0z.sdf

>  <i_m_source_file_index>  (228) 
9

>  <i_lp_mmshare_version>  (228) 
48012

>  <i_f3d_flags>  (228) 
0

>  <s_epik_input>  (228) 
W05IMl1DKD1PKVtDQEhdKFtDSDNdKVNjMVtjSF1bY0hdYyhbY0hdbjEpUyg9TykoPU8pTihbQ0gyXVtDSDJdMilbQ0gyXVtDSDJdQzIzT1tDSDJdW0NIMl1PMw==

>  <s_epik_cmdline>  (228) 
J2VwaWtfcHl0aG9uJywgJy1waHQnLCAnMi4wJywgJy1waCcsICc3LjAnLCAnLXRuJywgJzgnLCAnLW1hJywgJzIwMCcsICctaW1hZScsICc8aW5maWxlLm1hZT4nLCAnLW9tYWUnLCAnPG91dGZpbGUubWFlPic=

>  <r_lp_tautomer_probability>  (228) 
1

>  <r_epik_Ionization_Penalty>  (228) 
1.12058e-06

>  <r_epik_Ionization_Penalty_Charging>  (228) 
0

>  <r_epik_Ionization_Penalty_Neutral>  (228) 
1.12058e-06

>  <r_epik_State_Penalty>  (228) 
-0

>  <r_epik_Charging_Adjusted_Penalty>  (228) 
0

>  <i_epik_Tot_Q>  (228) 
0

>  <i_epik_Tot_abs_Q>  (228) 
0

>  <s_lp_Force_Field>  (228) 
OPLS3e

>  <r_lp_Energy>  (228) 
21.3847

>  <b_lp_Chiralities_Consistent>  (228) 
1

>  <s_lp_Variant>  (228) 
61:0-1

>  <s_i_glide_gridfile>  (228) 
pfpi4k_grid

>  <i_i_glide_lignum>  (228) 
9

>  <i_i_glide_rotatable_bonds>  (228) 
5

>  <r_i_docking_score>  (228) 
-3.82881

>  <r_i_glide_ligand_efficiency>  (228) 
-0.153152

>  <r_i_glide_ligand_efficiency_sa>  (228) 
-0.44782

>  <r_i_glide_ligand_efficiency_ln>  (228) 
-0.907543

>  <r_i_glide_gscore>  (228) 
-3.82881

>  <r_i_glide_lipo>  (228) 
-0.366539

>  <r_i_glide_hbond>  (228) 
-0.608

>  <r_i_glide_metal>  (228) 
-0

>  <r_i_glide_rewards>  (228) 
-1.04184

>  <r_i_glide_evdw>  (228) 
-27.9389

>  <r_i_glide_ecoul>  (228) 
-6.1088

>  <r_i_glide_erotb>  (228) 
0.518833

>  <r_i_glide_esite>  (228) 
-0.0179981

>  <r_i_glide_emodel>  (228) 
-41.4723

>  <r_i_glide_energy>  (228) 
-34.0477

>  <r_i_glide_einternal>  (228) 
2.27505

>  <r_i_glide_intrahb_reward>  (228) 
-0

>  <i_i_glide_confnum>  (228) 
4

>  <i_i_glide_posenum>  (228) 
31

>  <r_i_glide_eff_state_penalty>  (228) 
0

>  <ligand_id>  (228) 
61

>  <original_smiles>  (228) 
CC(Sc1ccc(S(=O)(=O)N2CCC3(CC2)OCCO3)cn1)C(N)=O

>  <smiles>  (228) 
[H]c1nc(SC([H])(C(=O)N([H])[H])C([H])([H])[H])c([H])c([H])c1S(=O)(=O)N1C([H])([H])C([H])([H])C2(OC([H])([H])C([H])([H])O2)C([H])([H])C1([H])[H]

$$$$
61:0:2
     RDKit          3D

 46 48  0  0  1  0  0  0  0  0999 V2000
    3.8576   -1.3159   -1.2182 C   0  0  0  0  0  0  0  0  0  0  0  0
    3.6239   -2.6806   -1.8739 C   0  0  2  0  0  0  0  0  0  0  0  0
    5.0195   -3.7917   -1.5599 S   0  0  0  0  0  0  0  0  0  0  0  0
    4.9081   -4.3697    0.1081 C   0  0  0  0  0  0  0  0  0  0  0  0
    5.7491   -5.3987    0.5659 C   0  0  0  0  0  0  0  0  0  0  0  0
    5.6615   -5.7852    1.9142 C   0  0  0  0  0  0  0  0  0  0  0  0
    4.7249   -5.1361    2.7408 C   0  0  0  0  0  0  0  0  0  0  0  0
    4.5937   -5.5636    4.4666 S   0  0  0  0  0  0  0  0  0  0  0  0
    5.7051   -6.4656    4.8036 O   0  0  0  0  0  0  0  0  0  0  0  0
    4.3887   -4.3297    5.2232 O   0  0  0  0  0  0  0  0  0  0  0  0
    3.1290   -6.4808    4.5319 N   0  0  0  0  0  0  0  0  0  0  0  0
    1.8463   -5.8301    4.8292 C   0  0  0  0  0  0  0  0  0  0  0  0
    0.8579   -5.9568    3.6709 C   0  0  0  0  0  0  0  0  0  0  0  0
    0.6600   -7.4429    3.3162 C   0  0  0  0  0  0  0  0  0  0  0  0
    2.0300   -8.0543    2.9178 C   0  0  0  0  0  0  0  0  0  0  0  0
    3.0770   -7.8702    4.0442 C   0  0  0  0  0  0  0  0  0  0  0  0
    0.1135   -8.1473    4.3960 O   0  0  0  0  0  0  0  0  0  0  0  0
   -1.2861   -7.9975    4.2925 C   0  0  0  0  0  0  0  0  0  0  0  0
   -1.4792   -7.8756    2.7801 C   0  0  0  0  0  0  0  0  0  0  0  0
   -0.2187   -7.5349    2.2410 O   0  0  0  0  0  0  0  0  0  0  0  0
    3.9277   -4.1222    2.1892 C   0  0  0  0  0  0  0  0  0  0  0  0
    3.9916   -3.7541    0.8922 N   0  0  0  0  0  0  0  0  0  0  0  0
    3.3750   -2.5102   -3.3839 C   0  0  0  0  0  0  0  0  0  0  0  0
    2.2623   -3.0495   -3.8970 N   0  0  0  0  0  0  0  0  0  0  0  0
    4.1545   -1.8797   -4.0953 O   0  0  0  0  0  0  0  0  0  0  0  0
    3.0180   -0.6757   -1.4330 H   0  0  0  0  0  0  0  0  0  0  0  0
    4.7599   -0.8333   -1.5864 H   0  0  0  0  0  0  0  0  0  0  0  0
    3.9329   -1.3720   -0.1380 H   0  0  0  0  0  0  0  0  0  0  0  0
    2.7203   -3.1358   -1.4635 H   0  0  0  0  0  0  0  0  0  0  0  0
    6.4796   -5.8503   -0.0933 H   0  0  0  0  0  0  0  0  0  0  0  0
    6.2989   -6.5611    2.3044 H   0  0  0  0  0  0  0  0  0  0  0  0
    1.4405   -6.3132    5.7162 H   0  0  0  0  0  0  0  0  0  0  0  0
    1.9833   -4.7781    5.0685 H   0  0  0  0  0  0  0  0  0  0  0  0
   -0.0873   -5.4979    3.9619 H   0  0  0  0  0  0  0  0  0  0  0  0
    1.2378   -5.4475    2.7827 H   0  0  0  0  0  0  0  0  0  0  0  0
    1.9119   -9.1194    2.6711 H   0  0  0  0  0  0  0  0  0  0  0  0
    2.3797   -7.5606    2.0104 H   0  0  0  0  0  0  0  0  0  0  0  0
    4.0639   -8.1905    3.6999 H   0  0  0  0  0  0  0  0  0  0  0  0
    2.8197   -8.5170    4.8823 H   0  0  0  0  0  0  0  0  0  0  0  0
   -1.8629   -8.8167    4.7324 H   0  0  0  0  0  0  0  0  0  0  0  0
   -1.5693   -7.0745    4.7874 H   0  0  0  0  0  0  0  0  0  0  0  0
   -1.8122   -8.8133    2.3345 H   0  0  0  0  0  0  0  0  0  0  0  0
   -2.2004   -7.1061    2.5157 H   0  0  0  0  0  0  0  0  0  0  0  0
    3.2322   -3.5608    2.7898 H   0  0  0  0  0  0  0  0  0  0  0  0
    1.6299   -3.6025   -3.3361 H   0  0  0  0  0  0  0  0  0  0  0  0
    2.0471   -2.8667   -4.8803 H   0  0  0  0  0  0  0  0  0  0  0  0
  1  2  1  0
  1 26  1  0
  1 27  1  0
  1 28  1  0
  2  3  1  0
  2 23  1  0
  2 29  1  1
  3  4  1  0
  4 22  2  0
  4  5  1  0
  5  6  2  0
  5 30  1  0
  6  7  1  0
  6 31  1  0
  7  8  1  0
  7 21  2  0
  8  9  2  0
  8 10  2  0
  8 11  1  0
 11 16  1  0
 11 12  1  0
 12 13  1  0
 12 32  1  0
 12 33  1  0
 13 14  1  0
 13 34  1  0
 13 35  1  0
 14 20  1  0
 14 15  1  0
 14 17  1  0
 15 16  1  0
 15 36  1  0
 15 37  1  0
 16 38  1  0
 16 39  1  0
 17 18  1  0
 18 19  1  0
 18 40  1  0
 18 41  1  0
 19 20  1  0
 19 42  1  0
 19 43  1  0
 21 22  1  0
 21 44  1  0
 23 24  1  0
 23 25  2  0
 24 45  1  0
 24 46  1  0
M  END
>  <i_m_ct_stereo_status>  (229) 
1

>  <s_m_source_file>  (229) 
/var/tmp/pbs.5076255.sched01/tmptehp0e0j/84lnm28v0z.sdf

>  <i_m_source_file_index>  (229) 
9

>  <i_lp_mmshare_version>  (229) 
48012

>  <i_f3d_flags>  (229) 
0

>  <s_epik_input>  (229) 
W05IMl1DKD1PKVtDQEhdKFtDSDNdKVNjMVtjSF1bY0hdYyhbY0hdbjEpUyg9TykoPU8pTihbQ0gyXVtDSDJdMilbQ0gyXVtDSDJdQzIzT1tDSDJdW0NIMl1PMw==

>  <s_epik_cmdline>  (229) 
J2VwaWtfcHl0aG9uJywgJy1waHQnLCAnMi4wJywgJy1waCcsICc3LjAnLCAnLXRuJywgJzgnLCAnLW1hJywgJzIwMCcsICctaW1hZScsICc8aW5maWxlLm1hZT4nLCAnLW9tYWUnLCAnPG91dGZpbGUubWFlPic=

>  <r_lp_tautomer_probability>  (229) 
1

>  <r_epik_Ionization_Penalty>  (229) 
1.12058e-06

>  <r_epik_Ionization_Penalty_Charging>  (229) 
0

>  <r_epik_Ionization_Penalty_Neutral>  (229) 
1.12058e-06

>  <r_epik_State_Penalty>  (229) 
-0

>  <r_epik_Charging_Adjusted_Penalty>  (229) 
0

>  <i_epik_Tot_Q>  (229) 
0

>  <i_epik_Tot_abs_Q>  (229) 
0

>  <s_lp_Force_Field>  (229) 
OPLS3e

>  <r_lp_Energy>  (229) 
21.3847

>  <b_lp_Chiralities_Consistent>  (229) 
1

>  <s_lp_Variant>  (229) 
61:0-1

>  <s_i_glide_gridfile>  (229) 
pfpi4k_grid

>  <i_i_glide_lignum>  (229) 
9

>  <i_i_glide_rotatable_bonds>  (229) 
5

>  <r_i_docking_score>  (229) 
-3.8169

>  <r_i_glide_ligand_efficiency>  (229) 
-0.152676

>  <r_i_glide_ligand_efficiency_sa>  (229) 
-0.446427

>  <r_i_glide_ligand_efficiency_ln>  (229) 
-0.90472

>  <r_i_glide_gscore>  (229) 
-3.8169

>  <r_i_glide_lipo>  (229) 
-0.206073

>  <r_i_glide_hbond>  (229) 
-0.676901

>  <r_i_glide_metal>  (229) 
-0

>  <r_i_glide_rewards>  (229) 
-0.992855

>  <r_i_glide_evdw>  (229) 
-27.8409

>  <r_i_glide_ecoul>  (229) 
-6.92777

>  <r_i_glide_erotb>  (229) 
0.518833

>  <r_i_glide_esite>  (229) 
-0.0286929

>  <r_i_glide_emodel>  (229) 
-43.0182

>  <r_i_glide_energy>  (229) 
-34.7687

>  <r_i_glide_einternal>  (229) 
0.575665

>  <r_i_glide_intrahb_reward>  (229) 
-0

>  <i_i_glide_confnum>  (229) 
4

>  <i_i_glide_posenum>  (229) 
17

>  <r_i_glide_eff_state_penalty>  (229) 
0

>  <ligand_id>  (229) 
61

>  <original_smiles>  (229) 
CC(Sc1ccc(S(=O)(=O)N2CCC3(CC2)OCCO3)cn1)C(N)=O

>  <smiles>  (229) 
[H]c1nc(SC([H])(C(=O)N([H])[H])C([H])([H])[H])c([H])c([H])c1S(=O)(=O)N1C([H])([H])C([H])([H])C2(OC([H])([H])C([H])([H])O2)C([H])([H])C1([H])[H]

$$$$
63:0:0
     RDKit          3D

 20 22  0  0  1  0  0  0  0  0999 V2000
    6.8734   -2.5416   -1.6793 N   0  0  0  0  0  0  0  0  0  0  0  0
    5.9093   -3.0313   -1.2670 C   0  0  0  0  0  0  0  0  0  0  0  0
    4.7641   -3.6502   -0.7116 C   0  0  0  0  0  0  0  0  0  0  0  0
    4.7128   -4.7923   -0.0322 N   0  0  0  0  0  0  0  0  0  0  0  0
    3.3773   -4.8440    0.2414 C   0  0  0  0  0  0  0  0  0  0  0  0
    2.7754   -5.9707    0.9909 C   0  0  0  0  0  0  0  0  0  0  0  0
    3.4762   -7.0540    1.3026 N   0  0  0  0  0  0  0  0  0  0  0  0
    2.5378   -7.8456    1.9805 O   0  0  0  0  0  0  0  0  0  0  0  0
    1.3905   -7.1255    1.9934 C   0  0  0  0  0  0  0  0  0  0  0  0
    0.2487   -7.6973    2.6716 C   0  0  0  0  0  0  0  0  0  0  0  0
   -0.5198   -8.6691    2.0826 N   0  0  0  0  0  0  0  0  0  0  0  0
   -1.5970   -9.0087    2.8220 N   0  0  0  0  0  0  0  0  0  0  0  0
   -1.4764   -8.2830    3.9281 C   0  0  0  0  0  0  0  0  0  0  0  0
   -0.3592   -7.4145    3.8553 C   0  0  0  0  0  0  0  0  0  0  0  0
    0.1158   -6.2364    5.0242 Cl  0  0  0  0  0  0  0  0  0  0  0  0
    1.4648   -5.9496    1.3783 N   0  0  0  0  0  0  0  0  0  0  0  0
    2.6327   -3.8314   -0.1859 N   0  0  0  0  0  0  0  0  0  0  0  0
    3.5700   -3.0189   -0.8387 O   0  0  0  0  0  0  0  0  0  0  0  0
   -0.3295   -9.0963    1.1673 H   0  0  0  0  0  0  0  0  0  0  0  0
   -2.1844   -8.4099    4.7330 H   0  0  0  0  0  0  0  0  0  0  0  0
  1  2  3  0
  2  3  1  0
  3 18  1  0
  3  4  2  0
  4  5  1  0
  5  6  1  0
  5 17  2  0
  6 16  1  0
  6  7  2  0
  7  8  1  0
  8  9  1  0
  9 10  1  0
  9 16  2  0
 10 14  2  0
 10 11  1  0
 11 19  1  0
 11 12  1  0
 12 13  2  0
 13 14  1  0
 13 20  1  0
 14 15  1  0
 17 18  1  0
M  END
>  <i_m_ct_stereo_status>  (230) 
1

>  <s_m_source_file>  (230) 
/var/tmp/pbs.5076255.sched01/tmptehp0e0j/84lnm28v0z.sdf

>  <i_m_source_file_index>  (230) 
11

>  <i_lp_mmshare_version>  (230) 
48012

>  <i_f3d_flags>  (230) 
0

>  <s_epik_input>  (230) 
TiNDYzFuYyhubzEpLWMybm9jKG4yKS1jM1tuSF1uW2NIXWMzQ2w=

>  <s_epik_cmdline>  (230) 
J2VwaWtfcHl0aG9uJywgJy1waHQnLCAnMi4wJywgJy1waCcsICc3LjAnLCAnLXRuJywgJzgnLCAnLW1hJywgJzIwMCcsICctaW1hZScsICc8aW5maWxlLm1hZT4nLCAnLW9tYWUnLCAnPG91dGZpbGUubWFlPic=

>  <r_lp_tautomer_probability>  (230) 
0.5

>  <r_epik_Ionization_Penalty>  (230) 
2.03322e-05

>  <r_epik_Ionization_Penalty_Charging>  (230) 
0

>  <r_epik_Ionization_Penalty_Neutral>  (230) 
2.03322e-05

>  <r_epik_State_Penalty>  (230) 
0.41068

>  <r_epik_Charging_Adjusted_Penalty>  (230) 
0.41068

>  <i_epik_Tot_Q>  (230) 
0

>  <i_epik_Tot_abs_Q>  (230) 
0

>  <s_lp_Force_Field>  (230) 
OPLS3e

>  <r_lp_Energy>  (230) 
5.04062

>  <b_lp_Chiralities_Consistent>  (230) 
1

>  <s_lp_Variant>  (230) 
63:0-1

>  <s_i_glide_gridfile>  (230) 
pfpi4k_grid

>  <i_i_glide_lignum>  (230) 
11

>  <i_i_glide_rotatable_bonds>  (230) 
3

>  <r_i_docking_score>  (230) 
-4.28815

>  <r_i_glide_ligand_efficiency>  (230) 
-0.23823

>  <r_i_glide_ligand_efficiency_sa>  (230) 
-0.62434

>  <r_i_glide_ligand_efficiency_ln>  (230) 
-1.10225

>  <r_i_glide_gscore>  (230) 
-4.28815

>  <r_i_glide_lipo>  (230) 
-0.0334953

>  <r_i_glide_hbond>  (230) 
-0.558337

>  <r_i_glide_metal>  (230) 
-0

>  <r_i_glide_rewards>  (230) 
-1.68307

>  <r_i_glide_evdw>  (230) 
-25.0138

>  <r_i_glide_ecoul>  (230) 
-7.70166

>  <r_i_glide_erotb>  (230) 
0.511243

>  <r_i_glide_esite>  (230) 
-0.11855

>  <r_i_glide_emodel>  (230) 
-39.6294

>  <r_i_glide_energy>  (230) 
-32.7154

>  <r_i_glide_einternal>  (230) 
3.9572

>  <r_i_glide_intrahb_reward>  (230) 
-0

>  <i_i_glide_confnum>  (230) 
6

>  <i_i_glide_posenum>  (230) 
19

>  <r_i_glide_eff_state_penalty>  (230) 
0

>  <ligand_id>  (230) 
63

>  <original_smiles>  (230) 
N#Cc1nc(-c2noc(-c3[nH]ncc3Cl)n2)no1

>  <smiles>  (230) 
[H]c1nn([H])c(-c2nc(-c3noc(C#N)n3)no2)c1Cl

$$$$
63:0:1
     RDKit          3D

 20 22  0  0  1  0  0  0  0  0999 V2000
   -1.1352    3.3811    3.7877 N   0  0  0  0  0  0  0  0  0  0  0  0
   -0.1174    2.8464    3.6412 C   0  0  0  0  0  0  0  0  0  0  0  0
    1.1153    2.1550    3.4991 C   0  0  0  0  0  0  0  0  0  0  0  0
    1.5200    1.3958    2.4848 N   0  0  0  0  0  0  0  0  0  0  0  0
    2.7472    1.0081    2.9316 C   0  0  0  0  0  0  0  0  0  0  0  0
    3.6148    0.1323    2.1065 C   0  0  0  0  0  0  0  0  0  0  0  0
    4.8190   -0.2686    2.4999 N   0  0  0  0  0  0  0  0  0  0  0  0
    5.2613   -1.0340    1.4089 O   0  0  0  0  0  0  0  0  0  0  0  0
    4.2610   -0.9933    0.4914 C   0  0  0  0  0  0  0  0  0  0  0  0
    4.4417   -1.7078   -0.7653 C   0  0  0  0  0  0  0  0  0  0  0  0
    3.4169   -1.8069   -1.6838 N   0  0  0  0  0  0  0  0  0  0  0  0
    3.7701   -2.5054   -2.7946 N   0  0  0  0  0  0  0  0  0  0  0  0
    5.0265   -2.8762   -2.5730 C   0  0  0  0  0  0  0  0  0  0  0  0
    5.4878   -2.3896   -1.3196 C   0  0  0  0  0  0  0  0  0  0  0  0
    7.0623   -2.6099   -0.6485 Cl  0  0  0  0  0  0  0  0  0  0  0  0
    3.2079   -0.2886    0.8804 N   0  0  0  0  0  0  0  0  0  0  0  0
    3.1012    1.4374    4.1375 N   0  0  0  0  0  0  0  0  0  0  0  0
    1.9972    2.2124    4.5287 O   0  0  0  0  0  0  0  0  0  0  0  0
    2.4779   -1.4430   -1.5323 H   0  0  0  0  0  0  0  0  0  0  0  0
    5.5574   -3.4607   -3.3143 H   0  0  0  0  0  0  0  0  0  0  0  0
  1  2  3  0
  2  3  1  0
  3 18  1  0
  3  4  2  0
  4  5  1  0
  5  6  1  0
  5 17  2  0
  6 16  1  0
  6  7  2  0
  7  8  1  0
  8  9  1  0
  9 10  1  0
  9 16  2  0
 10 14  2  0
 10 11  1  0
 11 19  1  0
 11 12  1  0
 12 13  2  0
 13 14  1  0
 13 20  1  0
 14 15  1  0
 17 18  1  0
M  END
>  <i_m_ct_stereo_status>  (231) 
1

>  <s_m_source_file>  (231) 
/var/tmp/pbs.5076255.sched01/tmptehp0e0j/84lnm28v0z.sdf

>  <i_m_source_file_index>  (231) 
11

>  <i_lp_mmshare_version>  (231) 
48012

>  <i_f3d_flags>  (231) 
0

>  <s_epik_input>  (231) 
TiNDYzFuYyhubzEpLWMybm9jKG4yKS1jM1tuSF1uW2NIXWMzQ2w=

>  <s_epik_cmdline>  (231) 
J2VwaWtfcHl0aG9uJywgJy1waHQnLCAnMi4wJywgJy1waCcsICc3LjAnLCAnLXRuJywgJzgnLCAnLW1hJywgJzIwMCcsICctaW1hZScsICc8aW5maWxlLm1hZT4nLCAnLW9tYWUnLCAnPG91dGZpbGUubWFlPic=

>  <r_lp_tautomer_probability>  (231) 
0.5

>  <r_epik_Ionization_Penalty>  (231) 
2.03322e-05

>  <r_epik_Ionization_Penalty_Charging>  (231) 
0

>  <r_epik_Ionization_Penalty_Neutral>  (231) 
2.03322e-05

>  <r_epik_State_Penalty>  (231) 
0.41068

>  <r_epik_Charging_Adjusted_Penalty>  (231) 
0.41068

>  <i_epik_Tot_Q>  (231) 
0

>  <i_epik_Tot_abs_Q>  (231) 
0

>  <s_lp_Force_Field>  (231) 
OPLS3e

>  <r_lp_Energy>  (231) 
5.04062

>  <b_lp_Chiralities_Consistent>  (231) 
1

>  <s_lp_Variant>  (231) 
63:0-1

>  <s_i_glide_gridfile>  (231) 
pfpi4k_grid

>  <i_i_glide_lignum>  (231) 
11

>  <i_i_glide_rotatable_bonds>  (231) 
3

>  <r_i_docking_score>  (231) 
-3.64359

>  <r_i_glide_ligand_efficiency>  (231) 
-0.202422

>  <r_i_glide_ligand_efficiency_sa>  (231) 
-0.530495

>  <r_i_glide_ligand_efficiency_ln>  (231) 
-0.936566

>  <r_i_glide_gscore>  (231) 
-3.64359

>  <r_i_glide_lipo>  (231) 
-0.18794

>  <r_i_glide_hbond>  (231) 
-0.16

>  <r_i_glide_metal>  (231) 
-0

>  <r_i_glide_rewards>  (231) 
-1.64695

>  <r_i_glide_evdw>  (231) 
-25.6013

>  <r_i_glide_ecoul>  (231) 
-4.84063

>  <r_i_glide_erotb>  (231) 
0.511243

>  <r_i_glide_esite>  (231) 
-0.153778

>  <r_i_glide_emodel>  (231) 
-38.0788

>  <r_i_glide_energy>  (231) 
-30.4419

>  <r_i_glide_einternal>  (231) 
-0.192998

>  <r_i_glide_intrahb_reward>  (231) 
-0

>  <i_i_glide_confnum>  (231) 
1

>  <i_i_glide_posenum>  (231) 
33

>  <r_i_glide_eff_state_penalty>  (231) 
0

>  <ligand_id>  (231) 
63

>  <original_smiles>  (231) 
N#Cc1nc(-c2noc(-c3[nH]ncc3Cl)n2)no1

>  <smiles>  (231) 
[H]c1nn([H])c(-c2nc(-c3noc(C#N)n3)no2)c1Cl

$$$$
63:0:2
     RDKit          3D

 20 22  0  0  1  0  0  0  0  0999 V2000
    5.4412   -1.4526   -1.6127 N   0  0  0  0  0  0  0  0  0  0  0  0
    5.1197   -2.4510   -1.1254 C   0  0  0  0  0  0  0  0  0  0  0  0
    4.7414   -3.6620   -0.4927 C   0  0  0  0  0  0  0  0  0  0  0  0
    3.5139   -4.0749   -0.1955 N   0  0  0  0  0  0  0  0  0  0  0  0
    3.7929   -5.2773    0.3738 C   0  0  0  0  0  0  0  0  0  0  0  0
    2.7164   -6.1573    0.8808 C   0  0  0  0  0  0  0  0  0  0  0  0
    1.4303   -5.8626    0.7180 N   0  0  0  0  0  0  0  0  0  0  0  0
    0.7849   -6.9418    1.3356 O   0  0  0  0  0  0  0  0  0  0  0  0
    1.7722   -7.7497    1.8016 C   0  0  0  0  0  0  0  0  0  0  0  0
    1.4010   -8.9707    2.4927 C   0  0  0  0  0  0  0  0  0  0  0  0
    2.3282   -9.9626    2.7251 N   0  0  0  0  0  0  0  0  0  0  0  0
    1.8118  -11.0177    3.3926 N   0  0  0  0  0  0  0  0  0  0  0  0
    0.5392  -10.6971    3.5868 C   0  0  0  0  0  0  0  0  0  0  0  0
    0.2328   -9.4270    3.0255 C   0  0  0  0  0  0  0  0  0  0  0  0
   -1.2934   -8.6098    3.0422 Cl  0  0  0  0  0  0  0  0  0  0  0  0
    2.9994   -7.3200    1.5275 N   0  0  0  0  0  0  0  0  0  0  0  0
    5.0749   -5.6069    0.4770 N   0  0  0  0  0  0  0  0  0  0  0  0
    5.7238   -4.5127   -0.1095 O   0  0  0  0  0  0  0  0  0  0  0  0
    3.2960   -9.9318    2.4245 H   0  0  0  0  0  0  0  0  0  0  0  0
   -0.1061  -11.3882    4.1098 H   0  0  0  0  0  0  0  0  0  0  0  0
  1  2  3  0
  2  3  1  0
  3 18  1  0
  3  4  2  0
  4  5  1  0
  5  6  1  0
  5 17  2  0
  6 16  1  0
  6  7  2  0
  7  8  1  0
  8  9  1  0
  9 10  1  0
  9 16  2  0
 10 14  2  0
 10 11  1  0
 11 19  1  0
 11 12  1  0
 12 13  2  0
 13 14  1  0
 13 20  1  0
 14 15  1  0
 17 18  1  0
M  END
>  <i_m_ct_stereo_status>  (232) 
1

>  <s_m_source_file>  (232) 
/var/tmp/pbs.5076255.sched01/tmptehp0e0j/84lnm28v0z.sdf

>  <i_m_source_file_index>  (232) 
11

>  <i_lp_mmshare_version>  (232) 
48012

>  <i_f3d_flags>  (232) 
0

>  <s_epik_input>  (232) 
TiNDYzFuYyhubzEpLWMybm9jKG4yKS1jM1tuSF1uW2NIXWMzQ2w=

>  <s_epik_cmdline>  (232) 
J2VwaWtfcHl0aG9uJywgJy1waHQnLCAnMi4wJywgJy1waCcsICc3LjAnLCAnLXRuJywgJzgnLCAnLW1hJywgJzIwMCcsICctaW1hZScsICc8aW5maWxlLm1hZT4nLCAnLW9tYWUnLCAnPG91dGZpbGUubWFlPic=

>  <r_lp_tautomer_probability>  (232) 
0.5

>  <r_epik_Ionization_Penalty>  (232) 
2.03322e-05

>  <r_epik_Ionization_Penalty_Charging>  (232) 
0

>  <r_epik_Ionization_Penalty_Neutral>  (232) 
2.03322e-05

>  <r_epik_State_Penalty>  (232) 
0.41068

>  <r_epik_Charging_Adjusted_Penalty>  (232) 
0.41068

>  <i_epik_Tot_Q>  (232) 
0

>  <i_epik_Tot_abs_Q>  (232) 
0

>  <s_lp_Force_Field>  (232) 
OPLS3e

>  <r_lp_Energy>  (232) 
5.04062

>  <b_lp_Chiralities_Consistent>  (232) 
1

>  <s_lp_Variant>  (232) 
63:0-1

>  <s_i_glide_gridfile>  (232) 
pfpi4k_grid

>  <i_i_glide_lignum>  (232) 
11

>  <i_i_glide_rotatable_bonds>  (232) 
3

>  <r_i_docking_score>  (232) 
-3.31281

>  <r_i_glide_ligand_efficiency>  (232) 
-0.184045

>  <r_i_glide_ligand_efficiency_sa>  (232) 
-0.482334

>  <r_i_glide_ligand_efficiency_ln>  (232) 
-0.851541

>  <r_i_glide_gscore>  (232) 
-3.31281

>  <r_i_glide_lipo>  (232) 
-0.0525366

>  <r_i_glide_hbond>  (232) 
0

>  <r_i_glide_metal>  (232) 
-0

>  <r_i_glide_rewards>  (232) 
-1.61208

>  <r_i_glide_evdw>  (232) 
-26.7277

>  <r_i_glide_ecoul>  (232) 
-4.08016

>  <r_i_glide_erotb>  (232) 
0.511243

>  <r_i_glide_esite>  (232) 
-0.211029

>  <r_i_glide_emodel>  (232) 
-37.6964

>  <r_i_glide_energy>  (232) 
-30.8079

>  <r_i_glide_einternal>  (232) 
-0.0223851

>  <r_i_glide_intrahb_reward>  (232) 
-0

>  <i_i_glide_confnum>  (232) 
6

>  <i_i_glide_posenum>  (232) 
1

>  <r_i_glide_eff_state_penalty>  (232) 
0

>  <ligand_id>  (232) 
63

>  <original_smiles>  (232) 
N#Cc1nc(-c2noc(-c3[nH]ncc3Cl)n2)no1

>  <smiles>  (232) 
[H]c1nn([H])c(-c2nc(-c3noc(C#N)n3)no2)c1Cl

$$$$
63:1:0
     RDKit          3D

 20 22  0  0  1  0  0  0  0  0999 V2000
    6.9651   -2.2551   -1.5129 N   0  0  0  0  0  0  0  0  0  0  0  0
    5.9905   -2.7801   -1.2008 C   0  0  0  0  0  0  0  0  0  0  0  0
    4.8350   -3.4606   -0.7615 C   0  0  0  0  0  0  0  0  0  0  0  0
    4.7858   -4.5690   -0.0309 N   0  0  0  0  0  0  0  0  0  0  0  0
    3.4366   -4.7139    0.0764 C   0  0  0  0  0  0  0  0  0  0  0  0
    2.8327   -5.8459    0.8074 C   0  0  0  0  0  0  0  0  0  0  0  0
    3.5686   -6.8402    1.2844 N   0  0  0  0  0  0  0  0  0  0  0  0
    2.6101   -7.6767    1.8717 O   0  0  0  0  0  0  0  0  0  0  0  0
    1.4181   -7.0564    1.6964 C   0  0  0  0  0  0  0  0  0  0  0  0
    0.2314   -7.6913    2.2423 C   0  0  0  0  0  0  0  0  0  0  0  0
   -0.9060   -7.0006    2.2945 N   0  0  0  0  0  0  0  0  0  0  0  0
   -1.7976   -7.8419    2.8446 N   0  0  0  0  0  0  0  0  0  0  0  0
   -1.2569   -9.0636    3.1312 C   0  0  0  0  0  0  0  0  0  0  0  0
    0.0495   -8.9952    2.7740 C   0  0  0  0  0  0  0  0  0  0  0  0
    1.2049  -10.2685    2.9057 Cl  0  0  0  0  0  0  0  0  0  0  0  0
    1.4898   -5.9138    1.0163 N   0  0  0  0  0  0  0  0  0  0  0  0
    2.6807   -3.7842   -0.4901 N   0  0  0  0  0  0  0  0  0  0  0  0
    3.6287   -2.9319   -1.0756 O   0  0  0  0  0  0  0  0  0  0  0  0
   -2.7643   -7.5918    2.9870 H   0  0  0  0  0  0  0  0  0  0  0  0
   -1.8461   -9.8563    3.5503 H   0  0  0  0  0  0  0  0  0  0  0  0
  1  2  3  0
  2  3  1  0
  3 18  1  0
  3  4  2  0
  4  5  1  0
  5  6  1  0
  5 17  2  0
  6 16  1  0
  6  7  2  0
  7  8  1  0
  8  9  1  0
  9 16  2  0
  9 10  1  0
 10 11  2  0
 10 14  1  0
 11 12  1  0
 12 19  1  0
 12 13  1  0
 13 20  1  0
 13 14  2  0
 14 15  1  0
 17 18  1  0
M  END
>  <i_m_ct_stereo_status>  (233) 
1

>  <s_m_source_file>  (233) 
/var/tmp/pbs.5076255.sched01/tmptehp0e0j/84lnm28v0z.sdf

>  <i_m_source_file_index>  (233) 
12

>  <i_lp_mmshare_version>  (233) 
48012

>  <i_f3d_flags>  (233) 
0

>  <s_epik_input>  (233) 
TiNDYzFuYyhubzEpLWMybm9jKG4yKS1jM1tuSF1uW2NIXWMzQ2w=

>  <s_epik_cmdline>  (233) 
J2VwaWtfcHl0aG9uJywgJy1waHQnLCAnMi4wJywgJy1waCcsICc3LjAnLCAnLXRuJywgJzgnLCAnLW1hJywgJzIwMCcsICctaW1hZScsICc8aW5maWxlLm1hZT4nLCAnLW9tYWUnLCAnPG91dGZpbGUubWFlPic=

>  <r_lp_tautomer_probability>  (233) 
0.5

>  <r_epik_Ionization_Penalty>  (233) 
4.49672e-06

>  <r_epik_Ionization_Penalty_Charging>  (233) 
0

>  <r_epik_Ionization_Penalty_Neutral>  (233) 
4.49672e-06

>  <r_epik_State_Penalty>  (233) 
0.41068

>  <r_epik_Charging_Adjusted_Penalty>  (233) 
0.41068

>  <i_epik_Tot_Q>  (233) 
0

>  <i_epik_Tot_abs_Q>  (233) 
0

>  <s_lp_Force_Field>  (233) 
OPLS3e

>  <r_lp_Energy>  (233) 
7.7781

>  <b_lp_Chiralities_Consistent>  (233) 
1

>  <s_lp_Variant>  (233) 
63:0-2

>  <s_i_glide_gridfile>  (233) 
pfpi4k_grid

>  <i_i_glide_lignum>  (233) 
12

>  <i_i_glide_rotatable_bonds>  (233) 
3

>  <r_i_docking_score>  (233) 
-4.1951

>  <r_i_glide_ligand_efficiency>  (233) 
-0.233061

>  <r_i_glide_ligand_efficiency_sa>  (233) 
-0.610793

>  <r_i_glide_ligand_efficiency_ln>  (233) 
-1.07833

>  <r_i_glide_gscore>  (233) 
-4.1951

>  <r_i_glide_lipo>  (233) 
-0.194433

>  <r_i_glide_hbond>  (233) 
-0.471465

>  <r_i_glide_metal>  (233) 
-0

>  <r_i_glide_rewards>  (233) 
-1.61182

>  <r_i_glide_evdw>  (233) 
-24.1106

>  <r_i_glide_ecoul>  (233) 
-7.20218

>  <r_i_glide_erotb>  (233) 
0.511243

>  <r_i_glide_esite>  (233) 
-0.142773

>  <r_i_glide_emodel>  (233) 
-39.9715

>  <r_i_glide_energy>  (233) 
-31.3127

>  <r_i_glide_einternal>  (233) 
1.84969

>  <r_i_glide_intrahb_reward>  (233) 
-0

>  <i_i_glide_confnum>  (233) 
4

>  <i_i_glide_posenum>  (233) 
21

>  <r_i_glide_eff_state_penalty>  (233) 
0

>  <ligand_id>  (233) 
63

>  <original_smiles>  (233) 
N#Cc1nc(-c2noc(-c3[nH]ncc3Cl)n2)no1

>  <smiles>  (233) 
[H]c1c(Cl)c(-c2nc(-c3noc(C#N)n3)no2)nn1[H]

$$$$
63:1:1
     RDKit          3D

 20 22  0  0  1  0  0  0  0  0999 V2000
    5.7210   -1.7448   -1.6392 N   0  0  0  0  0  0  0  0  0  0  0  0
    5.3429   -2.7071   -1.1251 C   0  0  0  0  0  0  0  0  0  0  0  0
    4.8738   -3.8543   -0.4565 C   0  0  0  0  0  0  0  0  0  0  0  0
    3.6136   -4.1843   -0.1936 N   0  0  0  0  0  0  0  0  0  0  0  0
    3.8110   -5.3770    0.4339 C   0  0  0  0  0  0  0  0  0  0  0  0
    2.6735   -6.1964    0.9158 C   0  0  0  0  0  0  0  0  0  0  0  0
    1.4176   -5.8741    0.6289 N   0  0  0  0  0  0  0  0  0  0  0  0
    0.6932   -6.8608    1.3086 O   0  0  0  0  0  0  0  0  0  0  0  0
    1.6153   -7.6723    1.8984 C   0  0  0  0  0  0  0  0  0  0  0  0
    1.1372   -8.8319    2.6484 C   0  0  0  0  0  0  0  0  0  0  0  0
   -0.1488   -8.9618    2.9623 N   0  0  0  0  0  0  0  0  0  0  0  0
   -0.1859  -10.1143    3.6693 N   0  0  0  0  0  0  0  0  0  0  0  0
    1.0232  -10.7570    3.7711 C   0  0  0  0  0  0  0  0  0  0  0  0
    1.8916   -9.9395    3.1255 C   0  0  0  0  0  0  0  0  0  0  0  0
    3.5803  -10.2033    2.9447 Cl  0  0  0  0  0  0  0  0  0  0  0  0
    2.8736   -7.3041    1.6771 N   0  0  0  0  0  0  0  0  0  0  0  0
    5.0726   -5.7653    0.6153 N   0  0  0  0  0  0  0  0  0  0  0  0
    5.7989   -4.7278    0.0138 O   0  0  0  0  0  0  0  0  0  0  0  0
   -1.0581  -10.4547    4.0874 H   0  0  0  0  0  0  0  0  0  0  0  0
    1.1732  -11.6958    4.2851 H   0  0  0  0  0  0  0  0  0  0  0  0
  1  2  3  0
  2  3  1  0
  3 18  1  0
  3  4  2  0
  4  5  1  0
  5  6  1  0
  5 17  2  0
  6 16  1  0
  6  7  2  0
  7  8  1  0
  8  9  1  0
  9 16  2  0
  9 10  1  0
 10 11  2  0
 10 14  1  0
 11 12  1  0
 12 19  1  0
 12 13  1  0
 13 20  1  0
 13 14  2  0
 14 15  1  0
 17 18  1  0
M  END
>  <i_m_ct_stereo_status>  (234) 
1

>  <s_m_source_file>  (234) 
/var/tmp/pbs.5076255.sched01/tmptehp0e0j/84lnm28v0z.sdf

>  <i_m_source_file_index>  (234) 
12

>  <i_lp_mmshare_version>  (234) 
48012

>  <i_f3d_flags>  (234) 
0

>  <s_epik_input>  (234) 
TiNDYzFuYyhubzEpLWMybm9jKG4yKS1jM1tuSF1uW2NIXWMzQ2w=

>  <s_epik_cmdline>  (234) 
J2VwaWtfcHl0aG9uJywgJy1waHQnLCAnMi4wJywgJy1waCcsICc3LjAnLCAnLXRuJywgJzgnLCAnLW1hJywgJzIwMCcsICctaW1hZScsICc8aW5maWxlLm1hZT4nLCAnLW9tYWUnLCAnPG91dGZpbGUubWFlPic=

>  <r_lp_tautomer_probability>  (234) 
0.5

>  <r_epik_Ionization_Penalty>  (234) 
4.49672e-06

>  <r_epik_Ionization_Penalty_Charging>  (234) 
0

>  <r_epik_Ionization_Penalty_Neutral>  (234) 
4.49672e-06

>  <r_epik_State_Penalty>  (234) 
0.41068

>  <r_epik_Charging_Adjusted_Penalty>  (234) 
0.41068

>  <i_epik_Tot_Q>  (234) 
0

>  <i_epik_Tot_abs_Q>  (234) 
0

>  <s_lp_Force_Field>  (234) 
OPLS3e

>  <r_lp_Energy>  (234) 
7.7781

>  <b_lp_Chiralities_Consistent>  (234) 
1

>  <s_lp_Variant>  (234) 
63:0-2

>  <s_i_glide_gridfile>  (234) 
pfpi4k_grid

>  <i_i_glide_lignum>  (234) 
12

>  <i_i_glide_rotatable_bonds>  (234) 
3

>  <r_i_docking_score>  (234) 
-4.06422

>  <r_i_glide_ligand_efficiency>  (234) 
-0.22579

>  <r_i_glide_ligand_efficiency_sa>  (234) 
-0.591736

>  <r_i_glide_ligand_efficiency_ln>  (234) 
-1.04469

>  <r_i_glide_gscore>  (234) 
-4.06422

>  <r_i_glide_lipo>  (234) 
-0.17604

>  <r_i_glide_hbond>  (234) 
-0.190443

>  <r_i_glide_metal>  (234) 
-0

>  <r_i_glide_rewards>  (234) 
-1.62006

>  <r_i_glide_evdw>  (234) 
-22.993

>  <r_i_glide_ecoul>  (234) 
-7.78429

>  <r_i_glide_erotb>  (234) 
0.511243

>  <r_i_glide_esite>  (234) 
-0.271619

>  <r_i_glide_emodel>  (234) 
-39.93

>  <r_i_glide_energy>  (234) 
-30.7773

>  <r_i_glide_einternal>  (234) 
0.167738

>  <r_i_glide_intrahb_reward>  (234) 
-0

>  <i_i_glide_confnum>  (234) 
4

>  <i_i_glide_posenum>  (234) 
18

>  <r_i_glide_eff_state_penalty>  (234) 
0

>  <ligand_id>  (234) 
63

>  <original_smiles>  (234) 
N#Cc1nc(-c2noc(-c3[nH]ncc3Cl)n2)no1

>  <smiles>  (234) 
[H]c1c(Cl)c(-c2nc(-c3noc(C#N)n3)no2)nn1[H]

$$$$
63:1:2
     RDKit          3D

 20 22  0  0  1  0  0  0  0  0999 V2000
    3.2810   -1.0687   -3.1548 N   0  0  0  0  0  0  0  0  0  0  0  0
    3.4168   -1.9006   -2.3569 C   0  0  0  0  0  0  0  0  0  0  0  0
    3.6842   -2.9247   -1.4121 C   0  0  0  0  0  0  0  0  0  0  0  0
    2.8213   -3.7184   -0.7848 N   0  0  0  0  0  0  0  0  0  0  0  0
    3.6744   -4.5201   -0.0929 C   0  0  0  0  0  0  0  0  0  0  0  0
    3.1474   -5.6316    0.7392 C   0  0  0  0  0  0  0  0  0  0  0  0
    3.9335   -6.4496    1.4253 N   0  0  0  0  0  0  0  0  0  0  0  0
    3.0147   -7.3083    2.0518 O   0  0  0  0  0  0  0  0  0  0  0  0
    1.7809   -6.8815    1.6707 C   0  0  0  0  0  0  0  0  0  0  0  0
    0.6113   -7.5916    2.1848 C   0  0  0  0  0  0  0  0  0  0  0  0
   -0.5960   -7.0312    2.0902 N   0  0  0  0  0  0  0  0  0  0  0  0
   -1.4379   -7.9342    2.6388 N   0  0  0  0  0  0  0  0  0  0  0  0
   -0.7960   -9.0588    3.0976 C   0  0  0  0  0  0  0  0  0  0  0  0
    0.5160   -8.8658    2.8129 C   0  0  0  0  0  0  0  0  0  0  0  0
    1.7861   -9.9855    3.1446 Cl  0  0  0  0  0  0  0  0  0  0  0  0
    1.8030   -5.8479    0.8356 N   0  0  0  0  0  0  0  0  0  0  0  0
    4.9721   -4.2534   -0.2069 N   0  0  0  0  0  0  0  0  0  0  0  0
    4.9839   -3.1755   -1.1061 O   0  0  0  0  0  0  0  0  0  0  0  0
   -2.4349   -7.7823    2.6845 H   0  0  0  0  0  0  0  0  0  0  0  0
   -1.3177   -9.8760    3.5682 H   0  0  0  0  0  0  0  0  0  0  0  0
  1  2  3  0
  2  3  1  0
  3 18  1  0
  3  4  2  0
  4  5  1  0
  5  6  1  0
  5 17  2  0
  6 16  1  0
  6  7  2  0
  7  8  1  0
  8  9  1  0
  9 16  2  0
  9 10  1  0
 10 11  2  0
 10 14  1  0
 11 12  1  0
 12 19  1  0
 12 13  1  0
 13 20  1  0
 13 14  2  0
 14 15  1  0
 17 18  1  0
M  END
>  <i_m_ct_stereo_status>  (235) 
1

>  <s_m_source_file>  (235) 
/var/tmp/pbs.5076255.sched01/tmptehp0e0j/84lnm28v0z.sdf

>  <i_m_source_file_index>  (235) 
12

>  <i_lp_mmshare_version>  (235) 
48012

>  <i_f3d_flags>  (235) 
0

>  <s_epik_input>  (235) 
TiNDYzFuYyhubzEpLWMybm9jKG4yKS1jM1tuSF1uW2NIXWMzQ2w=

>  <s_epik_cmdline>  (235) 
J2VwaWtfcHl0aG9uJywgJy1waHQnLCAnMi4wJywgJy1waCcsICc3LjAnLCAnLXRuJywgJzgnLCAnLW1hJywgJzIwMCcsICctaW1hZScsICc8aW5maWxlLm1hZT4nLCAnLW9tYWUnLCAnPG91dGZpbGUubWFlPic=

>  <r_lp_tautomer_probability>  (235) 
0.5

>  <r_epik_Ionization_Penalty>  (235) 
4.49672e-06

>  <r_epik_Ionization_Penalty_Charging>  (235) 
0

>  <r_epik_Ionization_Penalty_Neutral>  (235) 
4.49672e-06

>  <r_epik_State_Penalty>  (235) 
0.41068

>  <r_epik_Charging_Adjusted_Penalty>  (235) 
0.41068

>  <i_epik_Tot_Q>  (235) 
0

>  <i_epik_Tot_abs_Q>  (235) 
0

>  <s_lp_Force_Field>  (235) 
OPLS3e

>  <r_lp_Energy>  (235) 
7.7781

>  <b_lp_Chiralities_Consistent>  (235) 
1

>  <s_lp_Variant>  (235) 
63:0-2

>  <s_i_glide_gridfile>  (235) 
pfpi4k_grid

>  <i_i_glide_lignum>  (235) 
12

>  <i_i_glide_rotatable_bonds>  (235) 
3

>  <r_i_docking_score>  (235) 
-3.68752

>  <r_i_glide_ligand_efficiency>  (235) 
-0.204862

>  <r_i_glide_ligand_efficiency_sa>  (235) 
-0.536891

>  <r_i_glide_ligand_efficiency_ln>  (235) 
-0.947857

>  <r_i_glide_gscore>  (235) 
-3.68752

>  <r_i_glide_lipo>  (235) 
-0.0513298

>  <r_i_glide_hbond>  (235) 
-0.218117

>  <r_i_glide_metal>  (235) 
-0

>  <r_i_glide_rewards>  (235) 
-1.61182

>  <r_i_glide_evdw>  (235) 
-27.5159

>  <r_i_glide_ecoul>  (235) 
-5.45333

>  <r_i_glide_erotb>  (235) 
0.511243

>  <r_i_glide_esite>  (235) 
-0.123703

>  <r_i_glide_emodel>  (235) 
-40.42

>  <r_i_glide_energy>  (235) 
-32.9692

>  <r_i_glide_einternal>  (235) 
1.87199

>  <r_i_glide_intrahb_reward>  (235) 
-0

>  <i_i_glide_confnum>  (235) 
4

>  <i_i_glide_posenum>  (235) 
20

>  <r_i_glide_eff_state_penalty>  (235) 
0

>  <ligand_id>  (235) 
63

>  <original_smiles>  (235) 
N#Cc1nc(-c2noc(-c3[nH]ncc3Cl)n2)no1

>  <smiles>  (235) 
[H]c1c(Cl)c(-c2nc(-c3noc(C#N)n3)no2)nn1[H]

$$$$
64:0:0
     RDKit          3D

 30 33  0  0  1  0  0  0  0  0999 V2000
   -9.1886   -4.4836   -5.9063 C   0  0  0  0  0  0  0  0  0  0  0  0
   -9.3803   -5.4437   -7.0169 N   0  0  1  0  0  0  0  0  0  0  0  0
  -10.2655   -4.9636   -8.0976 C   0  0  0  0  0  0  0  0  0  0  0  0
   -9.9751   -5.8547   -9.3057 C   0  0  0  0  0  0  0  0  0  0  0  0
   -8.5164   -6.2281   -9.0741 C   0  0  2  0  0  0  0  0  0  0  0  0
   -8.2933   -7.6997   -8.8249 C   0  0  1  0  0  0  0  0  0  0  0  0
   -8.9735   -8.4619   -7.7033 C   0  0  0  0  0  0  0  0  0  0  0  0
   -7.9287   -7.4221   -7.3701 C   0  0  1  0  0  0  0  0  0  0  0  0
   -6.6163   -7.8347   -6.7154 C   0  0  0  0  0  0  0  0  0  0  0  0
   -5.9413   -7.1860   -5.7104 C   0  0  0  0  0  0  0  0  0  0  0  0
   -4.8364   -7.9258   -5.1925 C   0  0  0  0  0  0  0  0  0  0  0  0
   -4.6689   -9.1347   -5.8082 C   0  0  0  0  0  0  0  0  0  0  0  0
   -5.8164   -9.3603   -7.0922 S   0  0  0  0  0  0  0  0  0  0  0  0
   -8.1417   -5.9496   -7.6338 C   0  0  2  0  0  0  0  0  0  0  0  0
   -8.6863   -3.5738   -6.2554 H   0  0  0  0  0  0  0  0  0  0  0  0
   -8.5866   -4.9428   -5.1162 H   0  0  0  0  0  0  0  0  0  0  0  0
  -10.1670   -4.2106   -5.4924 H   0  0  0  0  0  0  0  0  0  0  0  0
  -11.3264   -4.9704   -7.8157 H   0  0  0  0  0  0  0  0  0  0  0  0
   -9.9428   -3.9441   -8.3181 H   0  0  0  0  0  0  0  0  0  0  0  0
  -10.6150   -6.7430   -9.2751 H   0  0  0  0  0  0  0  0  0  0  0  0
  -10.1732   -5.3658  -10.2673 H   0  0  0  0  0  0  0  0  0  0  0  0
   -7.8084   -5.7921   -9.7751 H   0  0  0  0  0  0  0  0  0  0  0  0
   -7.5428   -8.1602   -9.4778 H   0  0  0  0  0  0  0  0  0  0  0  0
  -10.0347   -8.2731   -7.5190 H   0  0  0  0  0  0  0  0  0  0  0  0
   -8.7068   -9.5109   -7.6123 H   0  0  0  0  0  0  0  0  0  0  0  0
   -6.2075   -6.2242   -5.2960 H   0  0  0  0  0  0  0  0  0  0  0  0
   -4.2369   -7.5869   -4.3628 H   0  0  0  0  0  0  0  0  0  0  0  0
   -3.9368   -9.8809   -5.5543 H   0  0  0  0  0  0  0  0  0  0  0  0
   -7.2906   -5.2931   -7.5379 H   0  0  0  0  0  0  0  0  0  0  0  0
   -9.8360   -6.2707   -6.6604 H   0  0  0  0  0  0  0  0  0  0  0  0
  1  2  1  0
  1 15  1  0
  1 16  1  0
  1 17  1  0
  2 14  1  0
  2  3  1  0
  2 30  1  1
  3  4  1  0
  3 18  1  0
  3 19  1  0
  4  5  1  0
  4 20  1  0
  4 21  1  0
  5 14  1  0
  5  6  1  0
  5 22  1  6
  6  8  1  0
  6  7  1  0
  6 23  1  6
  7  8  1  0
  7 24  1  0
  7 25  1  0
  8  9  1  6
  8 14  1  0
  9 13  1  0
  9 10  2  0
 10 11  1  0
 10 26  1  0
 11 12  2  0
 11 27  1  0
 12 13  1  0
 12 28  1  0
 14 29  1  6
M  CHG  1   2   1
M  END
>  <i_m_ct_stereo_status>  (236) 
1

>  <s_m_source_file>  (236) 
/var/tmp/pbs.5076255.sched01/tmptehp0e0j/84lnm28v0z.sdf

>  <i_m_source_file_index>  (236) 
13

>  <i_lp_mmshare_version>  (236) 
48012

>  <i_f3d_flags>  (236) 
0

>  <s_epik_input>  (236) 
W0NIMl0xW0NIMl1OKFtDSDNdKVtDQEBIXTJbQ0BIXTFbQ0BIXShbQ0gyXTMpW0NAQF0yM2M0W2NIXVtjSF1bY0hdczQ=

>  <s_epik_cmdline>  (236) 
J2VwaWtfcHl0aG9uJywgJy1waHQnLCAnMi4wJywgJy1waCcsICc3LjAnLCAnLXRuJywgJzgnLCAnLW1hJywgJzIwMCcsICctaW1hZScsICc8aW5maWxlLm1hZT4nLCAnLW9tYWUnLCAnPG91dGZpbGUubWFlPic=

>  <r_epik_Ionization_Penalty>  (236) 
0.0015361

>  <r_epik_Ionization_Penalty_Charging>  (236) 
0.0015361

>  <r_epik_Ionization_Penalty_Neutral>  (236) 
0

>  <r_epik_State_Penalty>  (236) 
0.00103076

>  <r_epik_Charging_Adjusted_Penalty>  (236) 
0.00256686

>  <i_epik_Tot_Q>  (236) 
1

>  <i_epik_Tot_abs_Q>  (236) 
1

>  <s_lp_Force_Field>  (236) 
OPLS3e

>  <r_lp_Energy>  (236) 
28.7563

>  <b_lp_Chiralities_Consistent>  (236) 
1

>  <s_lp_Variant>  (236) 
64:0-1

>  <s_i_glide_gridfile>  (236) 
pfpi4k_grid

>  <i_i_glide_lignum>  (236) 
13

>  <i_i_glide_rotatable_bonds>  (236) 
1

>  <r_i_docking_score>  (236) 
-5.12356

>  <r_i_glide_ligand_efficiency>  (236) 
-0.365968

>  <r_i_glide_ligand_efficiency_sa>  (236) 
-0.882036

>  <r_i_glide_ligand_efficiency_ln>  (236) 
-1.40794

>  <r_i_glide_gscore>  (236) 
-5.12356

>  <r_i_glide_lipo>  (236) 
-2.22562

>  <r_i_glide_hbond>  (236) 
0

>  <r_i_glide_metal>  (236) 
-0

>  <r_i_glide_rewards>  (236) 
-2.3525

>  <r_i_glide_evdw>  (236) 
-19.6505

>  <r_i_glide_ecoul>  (236) 
0.329677

>  <r_i_glide_erotb>  (236) 
0.387633

>  <r_i_glide_esite>  (236) 
0

>  <r_i_glide_emodel>  (236) 
-24.288

>  <r_i_glide_energy>  (236) 
-19.3208

>  <r_i_glide_einternal>  (236) 
2.21273

>  <r_i_glide_intrahb_reward>  (236) 
-0

>  <i_i_glide_confnum>  (236) 
2

>  <i_i_glide_posenum>  (236) 
1

>  <r_i_glide_eff_state_penalty>  (236) 
0

>  <ligand_id>  (236) 
64

>  <original_smiles>  (236) 
CN1CCC2C3CC3(c3cccs3)C21

>  <smiles>  (236) 
[H]c1sc(C23C([H])([H])C2([H])C2([H])C([H])([H])C([H])([H])[N+]([H])(C([H])([H])[H])C23[H])c([H])c1[H]

$$$$
64:0:1
     RDKit          3D

 30 33  0  0  1  0  0  0  0  0999 V2000
  -10.2802   -5.2421   -7.6838 C   0  0  0  0  0  0  0  0  0  0  0  0
  -10.0325   -6.6141   -8.1850 N   0  0  1  0  0  0  0  0  0  0  0  0
  -10.7863   -6.9531   -9.4229 C   0  0  0  0  0  0  0  0  0  0  0  0
  -10.0776   -8.1820   -9.9979 C   0  0  0  0  0  0  0  0  0  0  0  0
   -8.6384   -7.9962   -9.5132 C   0  0  2  0  0  0  0  0  0  0  0  0
   -8.1502   -9.0546   -8.5473 C   0  0  1  0  0  0  0  0  0  0  0  0
   -8.8608   -9.3364   -7.2306 C   0  0  0  0  0  0  0  0  0  0  0  0
   -8.1438   -8.0263   -7.4101 C   0  0  1  0  0  0  0  0  0  0  0  0
   -6.9425   -7.6922   -6.5408 C   0  0  0  0  0  0  0  0  0  0  0  0
   -6.8936   -6.7084   -5.5861 C   0  0  0  0  0  0  0  0  0  0  0  0
   -5.6852   -6.6995   -4.8296 C   0  0  0  0  0  0  0  0  0  0  0  0
   -4.8146   -7.6832   -5.2094 C   0  0  0  0  0  0  0  0  0  0  0  0
   -5.4327   -8.6189   -6.5382 S   0  0  0  0  0  0  0  0  0  0  0  0
   -8.6071   -6.9775   -8.3943 C   0  0  2  0  0  0  0  0  0  0  0  0
   -9.9154   -4.5118   -8.4114 H   0  0  0  0  0  0  0  0  0  0  0  0
   -9.7620   -5.1010   -6.7320 H   0  0  0  0  0  0  0  0  0  0  0  0
  -11.3586   -5.1032   -7.5288 H   0  0  0  0  0  0  0  0  0  0  0  0
  -11.8531   -7.1355   -9.2357 H   0  0  0  0  0  0  0  0  0  0  0  0
  -10.6803   -6.1360  -10.1462 H   0  0  0  0  0  0  0  0  0  0  0  0
  -10.5082   -9.1039   -9.5811 H   0  0  0  0  0  0  0  0  0  0  0  0
  -10.1782   -8.2399  -11.0945 H   0  0  0  0  0  0  0  0  0  0  0  0
   -7.9256   -7.7646  -10.3019 H   0  0  0  0  0  0  0  0  0  0  0  0
   -7.2154   -9.5696   -8.8298 H   0  0  0  0  0  0  0  0  0  0  0  0
   -9.9472   -9.3794   -7.2095 H   0  0  0  0  0  0  0  0  0  0  0  0
   -8.4022  -10.0892   -6.6101 H   0  0  0  0  0  0  0  0  0  0  0  0
   -7.6887   -6.0049   -5.3864 H   0  0  0  0  0  0  0  0  0  0  0  0
   -5.5316   -6.0076   -4.0141 H   0  0  0  0  0  0  0  0  0  0  0  0
   -3.8625   -7.9140   -4.7640 H   0  0  0  0  0  0  0  0  0  0  0  0
   -7.9203   -6.1683   -8.6135 H   0  0  0  0  0  0  0  0  0  0  0  0
  -10.3676   -7.2775   -7.4918 H   0  0  0  0  0  0  0  0  0  0  0  0
  1  2  1  0
  1 15  1  0
  1 16  1  0
  1 17  1  0
  2 14  1  0
  2  3  1  0
  2 30  1  1
  3  4  1  0
  3 18  1  0
  3 19  1  0
  4  5  1  0
  4 20  1  0
  4 21  1  0
  5 14  1  0
  5  6  1  0
  5 22  1  6
  6  8  1  0
  6  7  1  0
  6 23  1  6
  7  8  1  0
  7 24  1  0
  7 25  1  0
  8  9  1  1
  8 14  1  0
  9 13  1  0
  9 10  2  0
 10 11  1  0
 10 26  1  0
 11 12  2  0
 11 27  1  0
 12 13  1  0
 12 28  1  0
 14 29  1  6
M  CHG  1   2   1
M  END
>  <i_m_ct_stereo_status>  (237) 
1

>  <s_m_source_file>  (237) 
/var/tmp/pbs.5076255.sched01/tmptehp0e0j/84lnm28v0z.sdf

>  <i_m_source_file_index>  (237) 
13

>  <i_lp_mmshare_version>  (237) 
48012

>  <i_f3d_flags>  (237) 
0

>  <s_epik_input>  (237) 
W0NIMl0xW0NIMl1OKFtDSDNdKVtDQEBIXTJbQ0BIXTFbQ0BIXShbQ0gyXTMpW0NAQF0yM2M0W2NIXVtjSF1bY0hdczQ=

>  <s_epik_cmdline>  (237) 
J2VwaWtfcHl0aG9uJywgJy1waHQnLCAnMi4wJywgJy1waCcsICc3LjAnLCAnLXRuJywgJzgnLCAnLW1hJywgJzIwMCcsICctaW1hZScsICc8aW5maWxlLm1hZT4nLCAnLW9tYWUnLCAnPG91dGZpbGUubWFlPic=

>  <r_epik_Ionization_Penalty>  (237) 
0.0015361

>  <r_epik_Ionization_Penalty_Charging>  (237) 
0.0015361

>  <r_epik_Ionization_Penalty_Neutral>  (237) 
0

>  <r_epik_State_Penalty>  (237) 
0.00103076

>  <r_epik_Charging_Adjusted_Penalty>  (237) 
0.00256686

>  <i_epik_Tot_Q>  (237) 
1

>  <i_epik_Tot_abs_Q>  (237) 
1

>  <s_lp_Force_Field>  (237) 
OPLS3e

>  <r_lp_Energy>  (237) 
28.7563

>  <b_lp_Chiralities_Consistent>  (237) 
1

>  <s_lp_Variant>  (237) 
64:0-1

>  <s_i_glide_gridfile>  (237) 
pfpi4k_grid

>  <i_i_glide_lignum>  (237) 
13

>  <i_i_glide_rotatable_bonds>  (237) 
1

>  <r_i_docking_score>  (237) 
-4.65621

>  <r_i_glide_ligand_efficiency>  (237) 
-0.332586

>  <r_i_glide_ligand_efficiency_sa>  (237) 
-0.80158

>  <r_i_glide_ligand_efficiency_ln>  (237) 
-1.27951

>  <r_i_glide_gscore>  (237) 
-4.65621

>  <r_i_glide_lipo>  (237) 
-1.87527

>  <r_i_glide_hbond>  (237) 
0

>  <r_i_glide_metal>  (237) 
-0

>  <r_i_glide_rewards>  (237) 
-2.00231

>  <r_i_glide_evdw>  (237) 
-19.3492

>  <r_i_glide_ecoul>  (237) 
-1.30755

>  <r_i_glide_erotb>  (237) 
0.387633

>  <r_i_glide_esite>  (237) 
-0.0026713

>  <r_i_glide_emodel>  (237) 
-25.6362

>  <r_i_glide_energy>  (237) 
-20.6567

>  <r_i_glide_einternal>  (237) 
1.19401

>  <r_i_glide_intrahb_reward>  (237) 
-0

>  <i_i_glide_confnum>  (237) 
2

>  <i_i_glide_posenum>  (237) 
7

>  <r_i_glide_eff_state_penalty>  (237) 
0

>  <ligand_id>  (237) 
64

>  <original_smiles>  (237) 
CN1CCC2C3CC3(c3cccs3)C21

>  <smiles>  (237) 
[H]c1sc(C23C([H])([H])C2([H])C2([H])C([H])([H])C([H])([H])[N+]([H])(C([H])([H])[H])C23[H])c([H])c1[H]

$$$$
64:0:2
     RDKit          3D

 30 33  0  0  1  0  0  0  0  0999 V2000
  -10.2651   -4.9087   -7.5176 C   0  0  0  0  0  0  0  0  0  0  0  0
  -10.0793   -6.2434   -8.1294 N   0  0  1  0  0  0  0  0  0  0  0  0
  -10.8778   -6.4623   -9.3657 C   0  0  0  0  0  0  0  0  0  0  0  0
  -10.2247   -7.6520  -10.0636 C   0  0  0  0  0  0  0  0  0  0  0  0
   -8.7690   -7.5425   -9.6192 C   0  0  2  0  0  0  0  0  0  0  0  0
   -8.2810   -8.6933   -8.7640 C   0  0  1  0  0  0  0  0  0  0  0  0
   -8.9509   -9.0607   -7.4475 C   0  0  0  0  0  0  0  0  0  0  0  0
   -8.1814   -7.7624   -7.5531 C   0  0  1  0  0  0  0  0  0  0  0  0
   -6.9346   -7.5307   -6.7097 C   0  0  0  0  0  0  0  0  0  0  0  0
   -5.7391   -8.2013   -6.6398 C   0  0  0  0  0  0  0  0  0  0  0  0
   -4.8872   -7.7594   -5.5804 C   0  0  0  0  0  0  0  0  0  0  0  0
   -5.4519   -6.7483   -4.8421 C   0  0  0  0  0  0  0  0  0  0  0  0
   -7.0094   -6.3093   -5.4561 S   0  0  0  0  0  0  0  0  0  0  0  0
   -8.6691   -6.6213   -8.4205 C   0  0  2  0  0  0  0  0  0  0  0  0
   -9.8927   -4.1365   -8.1898 H   0  0  0  0  0  0  0  0  0  0  0  0
   -9.7244   -4.8504   -6.5723 H   0  0  0  0  0  0  0  0  0  0  0  0
  -11.3265   -4.7282   -7.3288 H   0  0  0  0  0  0  0  0  0  0  0  0
  -11.9413   -6.6262   -9.1641 H   0  0  0  0  0  0  0  0  0  0  0  0
  -10.7713   -5.5907  -10.0159 H   0  0  0  0  0  0  0  0  0  0  0  0
  -10.6720   -8.5894   -9.7103 H   0  0  0  0  0  0  0  0  0  0  0  0
  -10.3627   -7.6164  -11.1520 H   0  0  0  0  0  0  0  0  0  0  0  0
   -8.0736   -7.2635  -10.4124 H   0  0  0  0  0  0  0  0  0  0  0  0
   -7.3887   -9.2158   -9.1137 H   0  0  0  0  0  0  0  0  0  0  0  0
  -10.0352   -9.0424   -7.4071 H   0  0  0  0  0  0  0  0  0  0  0  0
   -8.5015   -9.8728   -6.8924 H   0  0  0  0  0  0  0  0  0  0  0  0
   -5.4347   -9.0257   -7.2839 H   0  0  0  0  0  0  0  0  0  0  0  0
   -3.9336   -8.2089   -5.3632 H   0  0  0  0  0  0  0  0  0  0  0  0
   -5.0460   -6.2715   -3.9686 H   0  0  0  0  0  0  0  0  0  0  0  0
   -7.9722   -5.8023   -8.6000 H   0  0  0  0  0  0  0  0  0  0  0  0
  -10.4170   -6.9447   -7.4776 H   0  0  0  0  0  0  0  0  0  0  0  0
  1  2  1  0
  1 15  1  0
  1 16  1  0
  1 17  1  0
  2 14  1  0
  2  3  1  0
  2 30  1  1
  3  4  1  0
  3 18  1  0
  3 19  1  0
  4  5  1  0
  4 20  1  0
  4 21  1  0
  5 14  1  0
  5  6  1  0
  5 22  1  6
  6  8  1  0
  6  7  1  0
  6 23  1  6
  7  8  1  0
  7 24  1  0
  7 25  1  0
  8  9  1  1
  8 14  1  0
  9 13  1  0
  9 10  2  0
 10 11  1  0
 10 26  1  0
 11 12  2  0
 11 27  1  0
 12 13  1  0
 12 28  1  0
 14 29  1  6
M  CHG  1   2   1
M  END
>  <i_m_ct_stereo_status>  (238) 
1

>  <s_m_source_file>  (238) 
/var/tmp/pbs.5076255.sched01/tmptehp0e0j/84lnm28v0z.sdf

>  <i_m_source_file_index>  (238) 
13

>  <i_lp_mmshare_version>  (238) 
48012

>  <i_f3d_flags>  (238) 
0

>  <s_epik_input>  (238) 
W0NIMl0xW0NIMl1OKFtDSDNdKVtDQEBIXTJbQ0BIXTFbQ0BIXShbQ0gyXTMpW0NAQF0yM2M0W2NIXVtjSF1bY0hdczQ=

>  <s_epik_cmdline>  (238) 
J2VwaWtfcHl0aG9uJywgJy1waHQnLCAnMi4wJywgJy1waCcsICc3LjAnLCAnLXRuJywgJzgnLCAnLW1hJywgJzIwMCcsICctaW1hZScsICc8aW5maWxlLm1hZT4nLCAnLW9tYWUnLCAnPG91dGZpbGUubWFlPic=

>  <r_epik_Ionization_Penalty>  (238) 
0.0015361

>  <r_epik_Ionization_Penalty_Charging>  (238) 
0.0015361

>  <r_epik_Ionization_Penalty_Neutral>  (238) 
0

>  <r_epik_State_Penalty>  (238) 
0.00103076

>  <r_epik_Charging_Adjusted_Penalty>  (238) 
0.00256686

>  <i_epik_Tot_Q>  (238) 
1

>  <i_epik_Tot_abs_Q>  (238) 
1

>  <s_lp_Force_Field>  (238) 
OPLS3e

>  <r_lp_Energy>  (238) 
28.7563

>  <b_lp_Chiralities_Consistent>  (238) 
1

>  <s_lp_Variant>  (238) 
64:0-1

>  <s_i_glide_gridfile>  (238) 
pfpi4k_grid

>  <i_i_glide_lignum>  (238) 
13

>  <i_i_glide_rotatable_bonds>  (238) 
1

>  <r_i_docking_score>  (238) 
-4.46197

>  <r_i_glide_ligand_efficiency>  (238) 
-0.318712

>  <r_i_glide_ligand_efficiency_sa>  (238) 
-0.768141

>  <r_i_glide_ligand_efficiency_ln>  (238) 
-1.22613

>  <r_i_glide_gscore>  (238) 
-4.46197

>  <r_i_glide_lipo>  (238) 
-1.8555

>  <r_i_glide_hbond>  (238) 
0

>  <r_i_glide_metal>  (238) 
-0

>  <r_i_glide_rewards>  (238) 
-2.00231

>  <r_i_glide_evdw>  (238) 
-19.635

>  <r_i_glide_ecoul>  (238) 
-0.0137931

>  <r_i_glide_erotb>  (238) 
0.387633

>  <r_i_glide_esite>  (238) 
-0.00797827

>  <r_i_glide_emodel>  (238) 
-23.927

>  <r_i_glide_energy>  (238) 
-19.6488

>  <r_i_glide_einternal>  (238) 
2.14849

>  <r_i_glide_intrahb_reward>  (238) 
-0

>  <i_i_glide_confnum>  (238) 
2

>  <i_i_glide_posenum>  (238) 
15

>  <r_i_glide_eff_state_penalty>  (238) 
0

>  <ligand_id>  (238) 
64

>  <original_smiles>  (238) 
CN1CCC2C3CC3(c3cccs3)C21

>  <smiles>  (238) 
[H]c1sc(C23C([H])([H])C2([H])C2([H])C([H])([H])C([H])([H])[N+]([H])(C([H])([H])[H])C23[H])c([H])c1[H]

$$$$
65:0:0
     RDKit          3D

 50 55  0  0  1  0  0  0  0  0999 V2000
    3.7868   -0.0130   -4.5758 C   0  0  0  0  0  0  0  0  0  0  0  0
    4.1733   -1.1482   -3.6096 C   0  0  0  0  0  0  0  0  0  0  0  0
    4.7016   -0.6507   -2.2429 C   0  0  0  0  0  0  0  0  0  0  0  0
    4.4961   -1.6360   -1.1419 N   0  0  2  0  0  0  0  0  0  0  0  0
    4.7300   -1.1027    0.2533 C   0  0  1  0  0  0  0  0  0  0  0  0
    3.5406   -0.4067    0.9412 C   0  0  0  0  0  0  0  0  0  0  0  0
    5.3330   -2.2415    1.1112 C   0  0  2  0  0  0  0  0  0  0  0  0
    6.0734   -3.0640    0.0010 C   0  0  1  0  0  0  0  0  0  0  0  0
    5.9099   -4.5570    0.3192 C   0  0  1  0  0  0  0  0  0  0  0  0
    5.6600   -4.4131    1.7515 C   0  0  0  0  0  0  0  0  0  0  0  0
    4.4662   -3.3781    1.7420 C   0  0  2  0  0  0  0  0  0  0  0  0
    3.1794   -3.6279    0.8782 C   0  0  0  0  0  0  0  0  0  0  0  0
    3.2695   -5.0687    0.5177 C   0  0  2  0  0  0  0  0  0  0  0  0
    3.0604   -5.8086    1.9009 C   0  0  0  0  0  0  0  0  0  0  0  0
    2.6935   -6.9802    1.9087 O   0  0  0  0  0  0  0  0  0  0  0  0
    3.2611   -4.9556    3.1774 C   0  0  0  0  0  0  0  0  0  0  0  0
    2.8427   -5.3620    4.4596 C   0  0  0  0  0  0  0  0  0  0  0  0
    3.0151   -4.5809    5.5578 N   0  0  0  0  0  0  0  0  0  0  0  0
    3.6138   -3.3811    5.4770 N   0  0  0  0  0  0  0  0  0  0  0  0
    4.0800   -2.9272    4.2893 C   0  0  0  0  0  0  0  0  0  0  0  0
    3.9307   -3.6875    3.1191 C   0  0  0  0  0  0  0  0  0  0  0  0
    4.6197   -5.1291   -0.3438 C   0  0  1  0  0  0  0  0  0  0  0  0
    4.5672   -4.1987   -1.5981 C   0  0  0  0  0  0  0  0  0  0  0  0
    5.3368   -2.8665   -1.3133 C   0  0  1  0  0  0  0  0  0  0  0  0
    3.4189   -0.4270   -5.5133 H   0  0  0  0  0  0  0  0  0  0  0  0
    4.6154    0.6518   -4.8175 H   0  0  0  0  0  0  0  0  0  0  0  0
    2.9802    0.5877   -4.1598 H   0  0  0  0  0  0  0  0  0  0  0  0
    3.2989   -1.7911   -3.4683 H   0  0  0  0  0  0  0  0  0  0  0  0
    4.9423   -1.7705   -4.0696 H   0  0  0  0  0  0  0  0  0  0  0  0
    5.7532   -0.3776   -2.3013 H   0  0  0  0  0  0  0  0  0  0  0  0
    4.2107    0.2752   -1.9725 H   0  0  0  0  0  0  0  0  0  0  0  0
    5.5208   -0.3555    0.1645 H   0  0  0  0  0  0  0  0  0  0  0  0
    3.8387   -0.1273    1.9512 H   0  0  0  0  0  0  0  0  0  0  0  0
    2.6469   -1.0276    1.0271 H   0  0  0  0  0  0  0  0  0  0  0  0
    3.2670    0.5270    0.4800 H   0  0  0  0  0  0  0  0  0  0  0  0
    6.0376   -1.8450    1.8446 H   0  0  0  0  0  0  0  0  0  0  0  0
    7.1223   -2.7593   -0.0716 H   0  0  0  0  0  0  0  0  0  0  0  0
    6.8008   -5.1362    0.0793 H   0  0  0  0  0  0  0  0  0  0  0  0
    5.5257   -5.3985    2.1914 H   0  0  0  0  0  0  0  0  0  0  0  0
    6.5277   -4.0166    2.2790 H   0  0  0  0  0  0  0  0  0  0  0  0
    2.2548   -3.3927    1.4153 H   0  0  0  0  0  0  0  0  0  0  0  0
    3.0133   -3.0624   -0.0209 H   0  0  0  0  0  0  0  0  0  0  0  0
    2.4338   -5.3549   -0.1209 H   0  0  0  0  0  0  0  0  0  0  0  0
    2.3548   -6.3127    4.6169 H   0  0  0  0  0  0  0  0  0  0  0  0
    4.5739   -1.9659    4.2873 H   0  0  0  0  0  0  0  0  0  0  0  0
    4.7844   -6.1604   -0.6496 H   0  0  0  0  0  0  0  0  0  0  0  0
    5.1010   -4.6982   -2.4026 H   0  0  0  0  0  0  0  0  0  0  0  0
    3.5604   -4.0237   -1.9826 H   0  0  0  0  0  0  0  0  0  0  0  0
    6.0787   -2.7191   -2.0980 H   0  0  0  0  0  0  0  0  0  0  0  0
    3.5244   -1.9179   -1.1762 H   0  0  0  0  0  0  0  0  0  0  0  0
  1  2  1  0
  1 25  1  0
  1 26  1  0
  1 27  1  0
  2  3  1  0
  2 28  1  0
  2 29  1  0
  3  4  1  0
  3 30  1  0
  3 31  1  0
  4 24  1  0
  4  5  1  0
  4 50  1  1
  5  6  1  0
  5  7  1  0
  5 32  1  6
  6 33  1  0
  6 34  1  0
  6 35  1  0
  7 11  1  0
  7  8  1  0
  7 36  1  1
  8 24  1  0
  8  9  1  0
  8 37  1  6
  9 22  1  0
  9 10  1  0
  9 38  1  1
 10 11  1  0
 10 39  1  0
 10 40  1  0
 11 21  1  1
 11 12  1  0
 12 13  1  0
 12 41  1  0
 12 42  1  0
 13 14  1  0
 13 22  1  0
 13 43  1  6
 14 15  2  0
 14 16  1  0
 16 21  2  0
 16 17  1  0
 17 18  2  0
 17 44  1  0
 18 19  1  0
 19 20  2  0
 20 21  1  0
 20 45  1  0
 22 23  1  0
 22 46  1  6
 23 24  1  0
 23 47  1  0
 23 48  1  0
 24 49  1  6
M  CHG  1   4   1
M  END
>  <i_m_ct_stereo_status>  (239) 
1

>  <s_m_source_file>  (239) 
/var/tmp/pbs.5076255.sched01/tmptehp0e0j/84lnm28v0z.sdf

>  <i_m_source_file_index>  (239) 
14

>  <i_lp_mmshare_version>  (239) 
48012

>  <i_f3d_flags>  (239) 
0

>  <s_epik_input>  (239) 
W0NIM11bQ0gyXVtDSDJdTihbQ0BIXTFbQ0gzXSlbQ0BASF0yW0NIMl1bQ0BASF0oW0NASF0oW0NIMl0zKVtDQEBIXTJbQ0BASF0xW0NAXTM0NSlbQ0BIXShbQ0gyXTQpQyg9TyljNmM1W2NIXW5uW2NIXTY=

>  <s_epik_cmdline>  (239) 
J2VwaWtfcHl0aG9uJywgJy1waHQnLCAnMi4wJywgJy1waCcsICc3LjAnLCAnLXRuJywgJzgnLCAnLW1hJywgJzIwMCcsICctaW1hZScsICc8aW5maWxlLm1hZT4nLCAnLW9tYWUnLCAnPG91dGZpbGUubWFlPic=

>  <r_epik_Ionization_Penalty>  (239) 
0.000350969

>  <r_epik_Ionization_Penalty_Charging>  (239) 
0.000347973

>  <r_epik_Ionization_Penalty_Neutral>  (239) 
2.99656e-06

>  <r_epik_State_Penalty>  (239) 
0.00021128

>  <r_epik_Charging_Adjusted_Penalty>  (239) 
0.000559252

>  <i_epik_Tot_Q>  (239) 
1

>  <i_epik_Tot_abs_Q>  (239) 
1

>  <s_lp_Force_Field>  (239) 
OPLS3e

>  <r_lp_Energy>  (239) 
124.04

>  <b_lp_Chiralities_Consistent>  (239) 
1

>  <s_lp_Variant>  (239) 
65:0-1

>  <s_i_glide_gridfile>  (239) 
pfpi4k_grid

>  <i_i_glide_lignum>  (239) 
14

>  <i_i_glide_rotatable_bonds>  (239) 
2

>  <r_i_docking_score>  (239) 
-3.27095

>  <r_i_glide_ligand_efficiency>  (239) 
-0.13629

>  <r_i_glide_ligand_efficiency_sa>  (239) 
-0.393128

>  <r_i_glide_ligand_efficiency_ln>  (239) 
-0.782889

>  <r_i_glide_gscore>  (239) 
-3.27095

>  <r_i_glide_lipo>  (239) 
-0.793165

>  <r_i_glide_hbond>  (239) 
0

>  <r_i_glide_metal>  (239) 
-0

>  <r_i_glide_rewards>  (239) 
-1.2072

>  <r_i_glide_evdw>  (239) 
-19.4208

>  <r_i_glide_ecoul>  (239) 
-2.93035

>  <r_i_glide_erotb>  (239) 
0.177916

>  <r_i_glide_esite>  (239) 
-0.0379152

>  <r_i_glide_emodel>  (239) 
-25.6715

>  <r_i_glide_energy>  (239) 
-22.3511

>  <r_i_glide_einternal>  (239) 
2.07946

>  <r_i_glide_intrahb_reward>  (239) 
-0

>  <i_i_glide_confnum>  (239) 
5

>  <i_i_glide_posenum>  (239) 
5

>  <r_i_glide_eff_state_penalty>  (239) 
0

>  <ligand_id>  (239) 
65

>  <original_smiles>  (239) 
CCCN1C(C)C2C3C4CC25CC(C(=O)c2cnncc25)C4CC31

>  <smiles>  (239) 
[H]c1nnc([H])c2c1C(=O)C1([H])C([H])([H])C23C([H])([H])C2([H])C1([H])C([H])([H])C1([H])C2([H])C3([H])C([H])(C([H])([H])[H])[N+]1([H])C([H])([H])C([H])([H])C([H])([H])[H]

$$$$
65:0:1
     RDKit          3D

 50 55  0  0  1  0  0  0  0  0999 V2000
    3.4292   -0.4356   -5.0054 C   0  0  0  0  0  0  0  0  0  0  0  0
    3.6448   -1.4243   -3.8531 C   0  0  0  0  0  0  0  0  0  0  0  0
    3.7259   -0.7183   -2.4760 C   0  0  0  0  0  0  0  0  0  0  0  0
    3.9701   -1.6212   -1.3209 N   0  0  2  0  0  0  0  0  0  0  0  0
    4.1321   -0.9453    0.0240 C   0  0  1  0  0  0  0  0  0  0  0  0
    2.8549   -0.6219    0.8490 C   0  0  0  0  0  0  0  0  0  0  0  0
    5.1435   -1.7652    0.8575 C   0  0  2  0  0  0  0  0  0  0  0  0
    6.0063   -2.3888   -0.2913 C   0  0  1  0  0  0  0  0  0  0  0  0
    6.3690   -3.8276    0.0815 C   0  0  1  0  0  0  0  0  0  0  0  0
    6.2218   -3.6756    1.5230 C   0  0  0  0  0  0  0  0  0  0  0  0
    4.7588   -3.0807    1.6098 C   0  0  2  0  0  0  0  0  0  0  0  0
    3.5495   -3.7921    0.9010 C   0  0  0  0  0  0  0  0  0  0  0  0
    4.0699   -5.1464    0.5838 C   0  0  2  0  0  0  0  0  0  0  0  0
    4.2472   -5.8148    2.0058 C   0  0  0  0  0  0  0  0  0  0  0  0
    4.3097   -7.0405    2.0853 O   0  0  0  0  0  0  0  0  0  0  0  0
    4.2846   -4.8663    3.2243 C   0  0  0  0  0  0  0  0  0  0  0  0
    4.1447   -5.2956    4.5509 C   0  0  0  0  0  0  0  0  0  0  0  0
    4.1623   -4.4308    5.5994 N   0  0  0  0  0  0  0  0  0  0  0  0
    4.3254   -3.1141    5.4113 N   0  0  0  0  0  0  0  0  0  0  0  0
    4.4981   -2.6090    4.1697 C   0  0  0  0  0  0  0  0  0  0  0  0
    4.4919   -3.4537    3.0441 C   0  0  0  0  0  0  0  0  0  0  0  0
    5.2787   -4.8246   -0.4238 C   0  0  1  0  0  0  0  0  0  0  0  0
    4.8156   -4.0472   -1.6954 C   0  0  0  0  0  0  0  0  0  0  0  0
    5.1420   -2.5199   -1.5188 C   0  0  1  0  0  0  0  0  0  0  0  0
    3.4271   -0.9840   -5.9436 H   0  0  0  0  0  0  0  0  0  0  0  0
    4.2413    0.2914   -5.0861 H   0  0  0  0  0  0  0  0  0  0  0  0
    2.4816    0.1079   -4.9351 H   0  0  0  0  0  0  0  0  0  0  0  0
    2.8278   -2.1510   -3.8364 H   0  0  0  0  0  0  0  0  0  0  0  0
    4.5552   -1.9755   -4.0988 H   0  0  0  0  0  0  0  0  0  0  0  0
    4.4713    0.0791   -2.4994 H   0  0  0  0  0  0  0  0  0  0  0  0
    2.7375   -0.2859   -2.3146 H   0  0  0  0  0  0  0  0  0  0  0  0
    4.6191    0.0088   -0.1630 H   0  0  0  0  0  0  0  0  0  0  0  0
    3.1458   -0.2086    1.8104 H   0  0  0  0  0  0  0  0  0  0  0  0
    2.2274   -1.4878    1.0406 H   0  0  0  0  0  0  0  0  0  0  0  0
    2.2315    0.1388    0.3828 H   0  0  0  0  0  0  0  0  0  0  0  0
    5.7493   -1.1181    1.4939 H   0  0  0  0  0  0  0  0  0  0  0  0
    6.8818   -1.7718   -0.4871 H   0  0  0  0  0  0  0  0  0  0  0  0
    7.3752   -4.1002   -0.2455 H   0  0  0  0  0  0  0  0  0  0  0  0
    6.4666   -4.6191    2.0056 H   0  0  0  0  0  0  0  0  0  0  0  0
    6.9611   -2.9821    1.9253 H   0  0  0  0  0  0  0  0  0  0  0  0
    2.6559   -3.8264    1.5305 H   0  0  0  0  0  0  0  0  0  0  0  0
    3.1275   -3.3634    0.0114 H   0  0  0  0  0  0  0  0  0  0  0  0
    3.3177   -5.7242    0.0490 H   0  0  0  0  0  0  0  0  0  0  0  0
    4.0124   -6.3404    4.7913 H   0  0  0  0  0  0  0  0  0  0  0  0
    4.6499   -1.5442    4.0793 H   0  0  0  0  0  0  0  0  0  0  0  0
    5.7373   -5.7750   -0.6989 H   0  0  0  0  0  0  0  0  0  0  0  0
    5.4064   -4.3994   -2.5379 H   0  0  0  0  0  0  0  0  0  0  0  0
    3.7810   -4.2467   -1.9659 H   0  0  0  0  0  0  0  0  0  0  0  0
    5.7715   -2.1907   -2.3370 H   0  0  0  0  0  0  0  0  0  0  0  0
    3.1363   -2.1952   -1.2472 H   0  0  0  0  0  0  0  0  0  0  0  0
  1  2  1  0
  1 25  1  0
  1 26  1  0
  1 27  1  0
  2  3  1  0
  2 28  1  0
  2 29  1  0
  3  4  1  0
  3 30  1  0
  3 31  1  0
  4 24  1  0
  4  5  1  0
  4 50  1  1
  5  6  1  0
  5  7  1  0
  5 32  1  6
  6 33  1  0
  6 34  1  0
  6 35  1  0
  7 11  1  0
  7  8  1  0
  7 36  1  1
  8 24  1  0
  8  9  1  0
  8 37  1  6
  9 22  1  0
  9 10  1  0
  9 38  1  1
 10 11  1  0
 10 39  1  0
 10 40  1  0
 11 21  1  1
 11 12  1  0
 12 13  1  0
 12 41  1  0
 12 42  1  0
 13 14  1  0
 13 22  1  0
 13 43  1  6
 14 15  2  0
 14 16  1  0
 16 21  2  0
 16 17  1  0
 17 18  2  0
 17 44  1  0
 18 19  1  0
 19 20  2  0
 20 21  1  0
 20 45  1  0
 22 23  1  0
 22 46  1  6
 23 24  1  0
 23 47  1  0
 23 48  1  0
 24 49  1  6
M  CHG  1   4   1
M  END
>  <i_m_ct_stereo_status>  (240) 
1

>  <s_m_source_file>  (240) 
/var/tmp/pbs.5076255.sched01/tmptehp0e0j/84lnm28v0z.sdf

>  <i_m_source_file_index>  (240) 
14

>  <i_lp_mmshare_version>  (240) 
48012

>  <i_f3d_flags>  (240) 
0

>  <s_epik_input>  (240) 
W0NIM11bQ0gyXVtDSDJdTihbQ0BIXTFbQ0gzXSlbQ0BASF0yW0NIMl1bQ0BASF0oW0NASF0oW0NIMl0zKVtDQEBIXTJbQ0BASF0xW0NAXTM0NSlbQ0BIXShbQ0gyXTQpQyg9TyljNmM1W2NIXW5uW2NIXTY=

>  <s_epik_cmdline>  (240) 
J2VwaWtfcHl0aG9uJywgJy1waHQnLCAnMi4wJywgJy1waCcsICc3LjAnLCAnLXRuJywgJzgnLCAnLW1hJywgJzIwMCcsICctaW1hZScsICc8aW5maWxlLm1hZT4nLCAnLW9tYWUnLCAnPG91dGZpbGUubWFlPic=

>  <r_epik_Ionization_Penalty>  (240) 
0.000350969

>  <r_epik_Ionization_Penalty_Charging>  (240) 
0.000347973

>  <r_epik_Ionization_Penalty_Neutral>  (240) 
2.99656e-06

>  <r_epik_State_Penalty>  (240) 
0.00021128

>  <r_epik_Charging_Adjusted_Penalty>  (240) 
0.000559252

>  <i_epik_Tot_Q>  (240) 
1

>  <i_epik_Tot_abs_Q>  (240) 
1

>  <s_lp_Force_Field>  (240) 
OPLS3e

>  <r_lp_Energy>  (240) 
124.04

>  <b_lp_Chiralities_Consistent>  (240) 
1

>  <s_lp_Variant>  (240) 
65:0-1

>  <s_i_glide_gridfile>  (240) 
pfpi4k_grid

>  <i_i_glide_lignum>  (240) 
14

>  <i_i_glide_rotatable_bonds>  (240) 
2

>  <r_i_docking_score>  (240) 
-3.12847

>  <r_i_glide_ligand_efficiency>  (240) 
-0.130353

>  <r_i_glide_ligand_efficiency_sa>  (240) 
-0.376003

>  <r_i_glide_ligand_efficiency_ln>  (240) 
-0.748786

>  <r_i_glide_gscore>  (240) 
-3.12847

>  <r_i_glide_lipo>  (240) 
-0.615262

>  <r_i_glide_hbond>  (240) 
0

>  <r_i_glide_metal>  (240) 
-0

>  <r_i_glide_rewards>  (240) 
-1.22078

>  <r_i_glide_evdw>  (240) 
-18.8579

>  <r_i_glide_ecoul>  (240) 
-3.16338

>  <r_i_glide_erotb>  (240) 
0.177916

>  <r_i_glide_esite>  (240) 
-0.0529453

>  <r_i_glide_emodel>  (240) 
-24.425

>  <r_i_glide_energy>  (240) 
-22.0213

>  <r_i_glide_einternal>  (240) 
2.81154

>  <r_i_glide_intrahb_reward>  (240) 
-0

>  <i_i_glide_confnum>  (240) 
3

>  <i_i_glide_posenum>  (240) 
11

>  <r_i_glide_eff_state_penalty>  (240) 
0

>  <ligand_id>  (240) 
65

>  <original_smiles>  (240) 
CCCN1C(C)C2C3C4CC25CC(C(=O)c2cnncc25)C4CC31

>  <smiles>  (240) 
[H]c1nnc([H])c2c1C(=O)C1([H])C([H])([H])C23C([H])([H])C2([H])C1([H])C([H])([H])C1([H])C2([H])C3([H])C([H])(C([H])([H])[H])[N+]1([H])C([H])([H])C([H])([H])C([H])([H])[H]

$$$$
65:0:2
     RDKit          3D

 50 55  0  0  1  0  0  0  0  0999 V2000
    3.7091   -2.9357   -4.0620 C   0  0  0  0  0  0  0  0  0  0  0  0
    2.6314   -2.0156   -3.4492 C   0  0  0  0  0  0  0  0  0  0  0  0
    3.1381   -1.0273   -2.3682 C   0  0  0  0  0  0  0  0  0  0  0  0
    3.5012   -1.6766   -1.0529 N   0  0  2  0  0  0  0  0  0  0  0  0
    3.8987   -0.7377    0.0687 C   0  0  1  0  0  0  0  0  0  0  0  0
    2.7618   -0.2123    1.0027 C   0  0  0  0  0  0  0  0  0  0  0  0
    5.0253   -1.4211    0.9054 C   0  0  2  0  0  0  0  0  0  0  0  0
    5.6735   -2.3152   -0.2005 C   0  0  1  0  0  0  0  0  0  0  0  0
    6.0789   -3.6720    0.3995 C   0  0  1  0  0  0  0  0  0  0  0  0
    6.1676   -3.2143    1.7756 C   0  0  0  0  0  0  0  0  0  0  0  0
    4.7486   -2.5334    1.9554 C   0  0  2  0  0  0  0  0  0  0  0  0
    3.4282   -3.3192    1.6115 C   0  0  0  0  0  0  0  0  0  0  0  0
    3.8703   -4.7353    1.5151 C   0  0  2  0  0  0  0  0  0  0  0  0
    4.2614   -5.1135    2.9990 C   0  0  0  0  0  0  0  0  0  0  0  0
    4.3122   -6.2854    3.3278 O   0  0  0  0  0  0  0  0  0  0  0  0
    4.5056   -3.9192    3.9571 C   0  0  0  0  0  0  0  0  0  0  0  0
    4.5875   -4.0527    5.3573 C   0  0  0  0  0  0  0  0  0  0  0  0
    4.7899   -2.9949    6.1718 N   0  0  0  0  0  0  0  0  0  0  0  0
    4.9417   -1.7474    5.6812 N   0  0  0  0  0  0  0  0  0  0  0  0
    4.9107   -1.5304    4.3460 C   0  0  0  0  0  0  0  0  0  0  0  0
    4.7043   -2.5924    3.4628 C   0  0  0  0  0  0  0  0  0  0  0  0
    4.9150   -4.7004    0.3090 C   0  0  1  0  0  0  0  0  0  0  0  0
    4.2694   -4.1704   -0.9858 C   0  0  0  0  0  0  0  0  0  0  0  0
    4.6350   -2.6582   -1.2285 C   0  0  1  0  0  0  0  0  0  0  0  0
    3.2481   -3.4598   -4.8814 H   0  0  0  0  0  0  0  0  0  0  0  0
    4.0664   -3.6702   -3.3495 H   0  0  0  0  0  0  0  0  0  0  0  0
    4.5687   -2.3592   -4.4231 H   0  0  0  0  0  0  0  0  0  0  0  0
    2.2019   -1.3786   -4.2271 H   0  0  0  0  0  0  0  0  0  0  0  0
    1.7944   -2.6046   -3.0786 H   0  0  0  0  0  0  0  0  0  0  0  0
    3.9564   -0.4149   -2.7296 H   0  0  0  0  0  0  0  0  0  0  0  0
    2.3193   -0.3298   -2.2141 H   0  0  0  0  0  0  0  0  0  0  0  0
    4.3706    0.1255   -0.3930 H   0  0  0  0  0  0  0  0  0  0  0  0
    3.2337    0.3866    1.7799 H   0  0  0  0  0  0  0  0  0  0  0  0
    2.1761   -1.0070    1.4603 H   0  0  0  0  0  0  0  0  0  0  0  0
    2.0333    0.4895    0.5886 H   0  0  0  0  0  0  0  0  0  0  0  0
    5.7398   -0.6772    1.2902 H   0  0  0  0  0  0  0  0  0  0  0  0
    6.5257   -1.7947   -0.6327 H   0  0  0  0  0  0  0  0  0  0  0  0
    7.0117   -4.0517   -0.0219 H   0  0  0  0  0  0  0  0  0  0  0  0
    6.4660   -4.0600    2.3953 H   0  0  0  0  0  0  0  0  0  0  0  0
    6.9739   -2.4861    1.8754 H   0  0  0  0  0  0  0  0  0  0  0  0
    2.6455   -3.1799    2.3605 H   0  0  0  0  0  0  0  0  0  0  0  0
    2.8692   -3.0772    0.7245 H   0  0  0  0  0  0  0  0  0  0  0  0
    3.0338   -5.3782    1.2371 H   0  0  0  0  0  0  0  0  0  0  0  0
    4.4742   -5.0212    5.8266 H   0  0  0  0  0  0  0  0  0  0  0  0
    5.0638   -0.5127    4.0048 H   0  0  0  0  0  0  0  0  0  0  0  0
    5.3036   -5.7063    0.1510 H   0  0  0  0  0  0  0  0  0  0  0  0
    4.7727   -4.7314   -1.7745 H   0  0  0  0  0  0  0  0  0  0  0  0
    3.2061   -4.3798   -1.0770 H   0  0  0  0  0  0  0  0  0  0  0  0
    5.1152   -2.5523   -2.2003 H   0  0  0  0  0  0  0  0  0  0  0  0
    2.6835   -2.1485   -0.7362 H   0  0  0  0  0  0  0  0  0  0  0  0
  1  2  1  0
  1 25  1  0
  1 26  1  0
  1 27  1  0
  2  3  1  0
  2 28  1  0
  2 29  1  0
  3  4  1  0
  3 30  1  0
  3 31  1  0
  4 24  1  0
  4  5  1  0
  4 50  1  1
  5  6  1  0
  5  7  1  0
  5 32  1  6
  6 33  1  0
  6 34  1  0
  6 35  1  0
  7 11  1  0
  7  8  1  0
  7 36  1  1
  8 24  1  0
  8  9  1  0
  8 37  1  6
  9 22  1  0
  9 10  1  0
  9 38  1  6
 10 11  1  0
 10 39  1  0
 10 40  1  0
 11 21  1  1
 11 12  1  0
 12 13  1  0
 12 41  1  0
 12 42  1  0
 13 14  1  0
 13 22  1  0
 13 43  1  6
 14 15  2  0
 14 16  1  0
 16 21  2  0
 16 17  1  0
 17 18  2  0
 17 44  1  0
 18 19  1  0
 19 20  2  0
 20 21  1  0
 20 45  1  0
 22 23  1  0
 22 46  1  6
 23 24  1  0
 23 47  1  0
 23 48  1  0
 24 49  1  6
M  CHG  1   4   1
M  END
>  <i_m_ct_stereo_status>  (241) 
1

>  <s_m_source_file>  (241) 
/var/tmp/pbs.5076255.sched01/tmptehp0e0j/84lnm28v0z.sdf

>  <i_m_source_file_index>  (241) 
14

>  <i_lp_mmshare_version>  (241) 
48012

>  <i_f3d_flags>  (241) 
0

>  <s_epik_input>  (241) 
W0NIM11bQ0gyXVtDSDJdTihbQ0BIXTFbQ0gzXSlbQ0BASF0yW0NIMl1bQ0BASF0oW0NASF0oW0NIMl0zKVtDQEBIXTJbQ0BASF0xW0NAXTM0NSlbQ0BIXShbQ0gyXTQpQyg9TyljNmM1W2NIXW5uW2NIXTY=

>  <s_epik_cmdline>  (241) 
J2VwaWtfcHl0aG9uJywgJy1waHQnLCAnMi4wJywgJy1waCcsICc3LjAnLCAnLXRuJywgJzgnLCAnLW1hJywgJzIwMCcsICctaW1hZScsICc8aW5maWxlLm1hZT4nLCAnLW9tYWUnLCAnPG91dGZpbGUubWFlPic=

>  <r_epik_Ionization_Penalty>  (241) 
0.000350969

>  <r_epik_Ionization_Penalty_Charging>  (241) 
0.000347973

>  <r_epik_Ionization_Penalty_Neutral>  (241) 
2.99656e-06

>  <r_epik_State_Penalty>  (241) 
0.00021128

>  <r_epik_Charging_Adjusted_Penalty>  (241) 
0.000559252

>  <i_epik_Tot_Q>  (241) 
1

>  <i_epik_Tot_abs_Q>  (241) 
1

>  <s_lp_Force_Field>  (241) 
OPLS3e

>  <r_lp_Energy>  (241) 
124.04

>  <b_lp_Chiralities_Consistent>  (241) 
1

>  <s_lp_Variant>  (241) 
65:0-1

>  <s_i_glide_gridfile>  (241) 
pfpi4k_grid

>  <i_i_glide_lignum>  (241) 
14

>  <i_i_glide_rotatable_bonds>  (241) 
2

>  <r_i_docking_score>  (241) 
-3.11481

>  <r_i_glide_ligand_efficiency>  (241) 
-0.129784

>  <r_i_glide_ligand_efficiency_sa>  (241) 
-0.374361

>  <r_i_glide_ligand_efficiency_ln>  (241) 
-0.745516

>  <r_i_glide_gscore>  (241) 
-3.11481

>  <r_i_glide_lipo>  (241) 
-0.549123

>  <r_i_glide_hbond>  (241) 
-0.0283876

>  <r_i_glide_metal>  (241) 
-0

>  <r_i_glide_rewards>  (241) 
-1.19788

>  <r_i_glide_evdw>  (241) 
-16.9202

>  <r_i_glide_ecoul>  (241) 
-3.86305

>  <r_i_glide_erotb>  (241) 
0.177916

>  <r_i_glide_esite>  (241) 
-0.0918653

>  <r_i_glide_emodel>  (241) 
-20.6167

>  <r_i_glide_energy>  (241) 
-20.7833

>  <r_i_glide_einternal>  (241) 
2.95336

>  <r_i_glide_intrahb_reward>  (241) 
-0

>  <i_i_glide_confnum>  (241) 
3

>  <i_i_glide_posenum>  (241) 
10

>  <r_i_glide_eff_state_penalty>  (241) 
0

>  <ligand_id>  (241) 
65

>  <original_smiles>  (241) 
CCCN1C(C)C2C3C4CC25CC(C(=O)c2cnncc25)C4CC31

>  <smiles>  (241) 
[H]c1nnc([H])c2c1C(=O)C1([H])C([H])([H])C23C([H])([H])C2([H])C1([H])C([H])([H])C1([H])C2([H])C3([H])C([H])(C([H])([H])[H])[N+]1([H])C([H])([H])C([H])([H])C([H])([H])[H]

$$$$
66:0:0
     RDKit          3D

 71 75  0  0  1  0  0  0  0  0999 V2000
   -1.1002    4.0450    8.0740 C   0  0  0  0  0  0  0  0  0  0  0  0
   -0.0416    3.5111    7.3199 O   0  0  0  0  0  0  0  0  0  0  0  0
   -0.4516    2.8662    6.1595 C   0  0  2  0  0  0  0  0  0  0  0  0
    0.8259    2.1959    5.6255 C   0  0  0  0  0  0  0  0  0  0  0  0
    0.5952    1.5396    4.2313 C   0  0  2  0  0  0  0  0  0  0  0  0
   -0.1024    2.5702    3.3074 C   0  0  0  0  0  0  0  0  0  0  0  0
   -1.2910    3.2815    3.9681 C   0  0  0  0  0  0  0  0  0  0  0  0
   -1.7252    4.4570    3.0824 C   0  0  0  0  0  0  0  0  0  0  0  0
   -2.5275    2.3863    4.1716 C   0  0  0  0  0  0  0  0  0  0  0  0
   -0.9041    3.8201    5.2279 O   0  0  0  0  0  0  0  0  0  0  0  0
   -0.2905    0.4077    4.3724 O   0  0  0  0  0  0  0  0  0  0  0  0
    0.4383   -0.8289    4.2057 C   0  0  0  0  0  0  0  0  0  0  0  0
    1.9280   -0.4506    4.2772 C   0  0  1  0  0  0  0  0  0  0  0  0
    2.9583   -1.4181    3.6767 C   0  0  1  0  0  0  0  0  0  0  0  0
    2.8856   -2.8283    4.3094 C   0  0  0  0  0  0  0  0  0  0  0  0
    4.0159   -3.7270    3.7836 C   0  0  0  0  0  0  0  0  0  0  0  0
    4.0561   -3.7621    2.2473 C   0  0  1  0  0  0  0  0  0  0  0  0
    2.8832   -4.6019    1.7084 C   0  0  0  0  0  0  0  0  0  0  0  0
    2.9432   -4.7091    0.2040 C   0  0  1  0  0  0  0  0  0  0  0  0
    1.7959   -5.4187   -0.1645 O   0  0  0  0  0  0  0  0  0  0  0  0
    2.9435   -3.3424   -0.4871 C   0  0  0  0  0  0  0  0  0  0  0  0
    4.1168   -2.5066    0.0470 C   0  0  0  0  0  0  0  0  0  0  0  0
    4.1511   -2.3393    1.5901 C   0  0  2  0  0  0  0  0  0  0  0  0
    5.5476   -1.7011    1.9385 C   0  0  0  0  0  0  0  0  0  0  0  0
    2.9670   -1.4602    2.1235 C   0  0  2  0  0  0  0  0  0  0  0  0
    2.9667   -0.0227    1.5352 C   0  0  0  0  0  0  0  0  0  0  0  0
    1.8408    0.8241    2.0921 C   0  0  0  0  0  0  0  0  0  0  0  0
    1.9318    0.9453    3.6429 C   0  0  1  0  0  0  0  0  0  0  0  0
    3.1974    1.7499    4.0608 C   0  0  0  0  0  0  0  0  0  0  0  0
   -0.7131    4.4989    8.9884 H   0  0  0  0  0  0  0  0  0  0  0  0
   -1.7972    3.2545    8.3434 H   0  0  0  0  0  0  0  0  0  0  0  0
   -1.6079    4.8056    7.4868 H   0  0  0  0  0  0  0  0  0  0  0  0
   -1.2535    2.1576    6.4410 H   0  0  0  0  0  0  0  0  0  0  0  0
    1.6043    2.9537    5.5483 H   0  0  0  0  0  0  0  0  0  0  0  0
    1.1135    1.4938    6.4124 H   0  0  0  0  0  0  0  0  0  0  0  0
    0.6414    3.3152    3.0556 H   0  0  0  0  0  0  0  0  0  0  0  0
   -0.4374    2.1420    2.3615 H   0  0  0  0  0  0  0  0  0  0  0  0
   -2.0431    4.1125    2.0986 H   0  0  0  0  0  0  0  0  0  0  0  0
   -0.9467    5.2056    2.9051 H   0  0  0  0  0  0  0  0  0  0  0  0
   -2.5885    4.9387    3.5211 H   0  0  0  0  0  0  0  0  0  0  0  0
   -2.9356    2.1493    3.1961 H   0  0  0  0  0  0  0  0  0  0  0  0
   -3.3013    2.9378    4.7199 H   0  0  0  0  0  0  0  0  0  0  0  0
   -2.2999    1.4471    4.6782 H   0  0  0  0  0  0  0  0  0  0  0  0
    0.1812   -1.5271    5.0205 H   0  0  0  0  0  0  0  0  0  0  0  0
    0.2087   -1.3254    3.2423 H   0  0  0  0  0  0  0  0  0  0  0  0
    2.1510   -0.3709    5.3385 H   0  0  0  0  0  0  0  0  0  0  0  0
    3.8837   -0.9668    4.0175 H   0  0  0  0  0  0  0  0  0  0  0  0
    2.9753   -2.7374    5.3928 H   0  0  0  0  0  0  0  0  0  0  0  0
    1.9132   -3.2904    4.1147 H   0  0  0  0  0  0  0  0  0  0  0  0
    4.9683   -3.3708    4.1726 H   0  0  0  0  0  0  0  0  0  0  0  0
    3.9043   -4.7366    4.1927 H   0  0  0  0  0  0  0  0  0  0  0  0
    4.9449   -4.3108    1.9520 H   0  0  0  0  0  0  0  0  0  0  0  0
    2.9151   -5.6129    2.1188 H   0  0  0  0  0  0  0  0  0  0  0  0
    1.9130   -4.1916    1.9937 H   0  0  0  0  0  0  0  0  0  0  0  0
    3.8035   -5.2903   -0.1271 H   0  0  0  0  0  0  0  0  0  0  0  0
    1.9252   -5.6343   -1.0593 H   0  0  0  0  0  0  0  0  0  0  0  0
    3.0342   -3.4472   -1.5690 H   0  0  0  0  0  0  0  0  0  0  0  0
    2.0009   -2.8264   -0.3169 H   0  0  0  0  0  0  0  0  0  0  0  0
    5.0252   -3.0105   -0.2713 H   0  0  0  0  0  0  0  0  0  0  0  0
    4.1248   -1.5442   -0.4612 H   0  0  0  0  0  0  0  0  0  0  0  0
    5.6882   -0.7069    1.4974 H   0  0  0  0  0  0  0  0  0  0  0  0
    6.3664   -2.3262    1.5672 H   0  0  0  0  0  0  0  0  0  0  0  0
    5.7146   -1.5804    3.0111 H   0  0  0  0  0  0  0  0  0  0  0  0
    2.0163   -1.9017    1.7994 H   0  0  0  0  0  0  0  0  0  0  0  0
    3.8971    0.5009    1.7273 H   0  0  0  0  0  0  0  0  0  0  0  0
    2.8589   -0.0421    0.4598 H   0  0  0  0  0  0  0  0  0  0  0  0
    1.9315    1.8119    1.6276 H   0  0  0  0  0  0  0  0  0  0  0  0
    0.8881    0.4108    1.7423 H   0  0  0  0  0  0  0  0  0  0  0  0
    4.1333    1.3695    3.6374 H   0  0  0  0  0  0  0  0  0  0  0  0
    3.2738    1.7946    5.1554 H   0  0  0  0  0  0  0  0  0  0  0  0
    3.1207    2.7837    3.7195 H   0  0  0  0  0  0  0  0  0  0  0  0
  1  2  1  0
  1 30  1  0
  1 31  1  0
  1 32  1  0
  2  3  1  0
  3 10  1  0
  3  4  1  0
  3 33  1  1
  4  5  1  0
  4 34  1  0
  4 35  1  0
  5 28  1  0
  5  6  1  0
  5 11  1  1
  6  7  1  0
  6 36  1  0
  6 37  1  0
  7  8  1  0
  7  9  1  0
  7 10  1  0
  8 38  1  0
  8 39  1  0
  8 40  1  0
  9 41  1  0
  9 42  1  0
  9 43  1  0
 11 12  1  0
 12 13  1  0
 12 44  1  0
 12 45  1  0
 13 28  1  0
 13 14  1  0
 13 46  1  1
 14 25  1  0
 14 15  1  0
 14 47  1  1
 15 16  1  0
 15 48  1  0
 15 49  1  0
 16 17  1  0
 16 50  1  0
 16 51  1  0
 17 23  1  0
 17 18  1  0
 17 52  1  1
 18 19  1  0
 18 53  1  0
 18 54  1  0
 19 20  1  0
 19 21  1  0
 19 55  1  1
 20 56  1  0
 21 22  1  0
 21 57  1  0
 21 58  1  0
 22 23  1  0
 22 59  1  0
 22 60  1  0
 23 24  1  6
 23 25  1  0
 24 61  1  0
 24 62  1  0
 24 63  1  0
 25 26  1  0
 25 64  1  6
 26 27  1  0
 26 65  1  0
 26 66  1  0
 27 28  1  0
 27 67  1  0
 27 68  1  0
 28 29  1  6
 29 69  1  0
 29 70  1  0
 29 71  1  0
M  END
>  <i_m_ct_stereo_status>  (242) 
1

>  <s_m_source_file>  (242) 
/var/tmp/pbs.5076255.sched01/tmptehp0e0j/84lnm28v0z.sdf

>  <i_m_source_file_index>  (242) 
15

>  <i_lp_mmshare_version>  (242) 
48012

>  <i_f3d_flags>  (242) 
0

>  <s_epik_input>  (242) 
W0NIMl0xQyhbQ0gzXSkoW0NIM10pT1tDQEhdKE9bQ0gzXSlbQ0gyXVtDQF0xMltDQEBdMyhbQ0gzXSlbQ0BASF0oW0NIMl1PMilbQ0BASF00W0NAQEhdKFtDSDJdW0NIMl0zKVtDQEBdNShbQ0gzXSlbQ0BASF0oW0NIMl1bQ0gyXTQpW0NIMl1bQ0BASF0oW09IXSlbQ0gyXVtDSDJdNQ==

>  <s_epik_cmdline>  (242) 
J2VwaWtfcHl0aG9uJywgJy1waHQnLCAnMi4wJywgJy1waCcsICc3LjAnLCAnLXRuJywgJzgnLCAnLW1hJywgJzIwMCcsICctaW1hZScsICc8aW5maWxlLm1hZT4nLCAnLW9tYWUnLCAnPG91dGZpbGUubWFlPic=

>  <r_lp_tautomer_probability>  (242) 
1

>  <r_epik_Ionization_Penalty>  (242) 
3.25458e-06

>  <r_epik_Ionization_Penalty_Charging>  (242) 
0

>  <r_epik_Ionization_Penalty_Neutral>  (242) 
3.25458e-06

>  <r_epik_State_Penalty>  (242) 
-0

>  <r_epik_Charging_Adjusted_Penalty>  (242) 
0

>  <i_epik_Tot_Q>  (242) 
0

>  <i_epik_Tot_abs_Q>  (242) 
0

>  <s_epik_Chemistry_Notes>  (242) 
This compound contains an acetal/aminal-like group ( X-CH(R)-Y where X, Y are N, S, or O) that may be acid/base labile, releasing an aldehyde.

>  <s_lp_Force_Field>  (242) 
OPLS3e

>  <r_lp_Energy>  (242) 
50.1179

>  <b_lp_Chiralities_Consistent>  (242) 
1

>  <s_lp_Variant>  (242) 
66:0-1

>  <s_i_glide_gridfile>  (242) 
pfpi4k_grid

>  <i_i_glide_lignum>  (242) 
15

>  <i_i_glide_rotatable_bonds>  (242) 
2

>  <r_i_docking_score>  (242) 
-2.91181

>  <r_i_glide_ligand_efficiency>  (242) 
-0.100407

>  <r_i_glide_ligand_efficiency_sa>  (242) 
-0.308483

>  <r_i_glide_ligand_efficiency_ln>  (242) 
-0.666731

>  <r_i_glide_gscore>  (242) 
-2.91181

>  <r_i_glide_lipo>  (242) 
-0.122908

>  <r_i_glide_hbond>  (242) 
-0.377421

>  <r_i_glide_metal>  (242) 
-0

>  <r_i_glide_rewards>  (242) 
-0.636828

>  <r_i_glide_evdw>  (242) 
-19.807

>  <r_i_glide_ecoul>  (242) 
-5.22165

>  <r_i_glide_erotb>  (242) 
0

>  <r_i_glide_esite>  (242) 
-0.00105446

>  <r_i_glide_emodel>  (242) 
-28.6835

>  <r_i_glide_energy>  (242) 
-25.0287

>  <r_i_glide_einternal>  (242) 
0.436966

>  <r_i_glide_intrahb_reward>  (242) 
-0

>  <i_i_glide_confnum>  (242) 
2

>  <i_i_glide_posenum>  (242) 
22

>  <r_i_glide_eff_state_penalty>  (242) 
0

>  <ligand_id>  (242) 
66

>  <original_smiles>  (242) 
COC1CC2(CC(C)(C)O1)OCC1C3CCC4CC(O)CCC4(C)C3CCC12C

>  <smiles>  (242) 
[H]OC1([H])C([H])([H])C([H])([H])C2(C([H])([H])[H])C([H])(C([H])([H])C([H])([H])C3([H])C2([H])C([H])([H])C([H])([H])C2(C([H])([H])[H])C3([H])C([H])([H])OC23C([H])([H])C([H])(OC([H])([H])[H])OC(C([H])([H])[H])(C([H])([H])[H])C3([H])[H])C1([H])[H]

$$$$
66:0:1
     RDKit          3D

 71 75  0  0  1  0  0  0  0  0999 V2000
   -0.5858    4.3688    7.9970 C   0  0  0  0  0  0  0  0  0  0  0  0
    0.3995    3.7522    7.2001 O   0  0  0  0  0  0  0  0  0  0  0  0
   -0.1214    3.0305    6.1266 C   0  0  2  0  0  0  0  0  0  0  0  0
    1.0876    2.2886    5.5150 C   0  0  0  0  0  0  0  0  0  0  0  0
    0.6942    1.5590    4.2047 C   0  0  2  0  0  0  0  0  0  0  0  0
   -0.0697    2.5226    3.2903 C   0  0  0  0  0  0  0  0  0  0  0  0
   -1.1958    3.2959    4.0105 C   0  0  0  0  0  0  0  0  0  0  0  0
   -1.7184    4.4037    3.0970 C   0  0  0  0  0  0  0  0  0  0  0  0
   -2.3862    2.4085    4.4058 C   0  0  0  0  0  0  0  0  0  0  0  0
   -0.6729    3.9191    5.1820 O   0  0  0  0  0  0  0  0  0  0  0  0
   -0.2016    0.4439    4.5282 O   0  0  0  0  0  0  0  0  0  0  0  0
    0.5337   -0.8162    4.3764 C   0  0  0  0  0  0  0  0  0  0  0  0
    2.0221   -0.4466    4.2683 C   0  0  1  0  0  0  0  0  0  0  0  0
    2.9828   -1.4515    3.6441 C   0  0  1  0  0  0  0  0  0  0  0  0
    2.9712   -2.8192    4.3735 C   0  0  0  0  0  0  0  0  0  0  0  0
    4.0345   -3.7689    3.8063 C   0  0  0  0  0  0  0  0  0  0  0  0
    3.9171   -3.9296    2.2708 C   0  0  1  0  0  0  0  0  0  0  0  0
    2.6957   -4.8000    1.8983 C   0  0  0  0  0  0  0  0  0  0  0  0
    2.5891   -5.0279    0.3783 C   0  0  1  0  0  0  0  0  0  0  0  0
    1.4534   -5.8128    0.0989 O   0  0  0  0  0  0  0  0  0  0  0  0
    2.5674   -3.6871   -0.3693 C   0  0  0  0  0  0  0  0  0  0  0  0
    3.7812   -2.8312   -0.0043 C   0  0  0  0  0  0  0  0  0  0  0  0
    3.9541   -2.5544    1.5216 C   0  0  2  0  0  0  0  0  0  0  0  0
    5.3664   -1.9061    1.6912 C   0  0  0  0  0  0  0  0  0  0  0  0
    2.8415   -1.6172    2.0976 C   0  0  2  0  0  0  0  0  0  0  0  0
    2.7949   -0.2278    1.4049 C   0  0  0  0  0  0  0  0  0  0  0  0
    1.7326    0.6739    2.0137 C   0  0  0  0  0  0  0  0  0  0  0  0
    1.9505    0.9058    3.5441 C   0  0  1  0  0  0  0  0  0  0  0  0
    3.2433    1.7268    3.7824 C   0  0  0  0  0  0  0  0  0  0  0  0
   -0.1070    4.8813    8.8334 H   0  0  0  0  0  0  0  0  0  0  0  0
   -1.2698    3.6210    8.3907 H   0  0  0  0  0  0  0  0  0  0  0  0
   -1.1356    5.0954    7.4042 H   0  0  0  0  0  0  0  0  0  0  0  0
   -0.8907    2.3585    6.5293 H   0  0  0  0  0  0  0  0  0  0  0  0
    1.8838    3.0022    5.2941 H   0  0  0  0  0  0  0  0  0  0  0  0
    1.4479    1.6405    6.3041 H   0  0  0  0  0  0  0  0  0  0  0  0
    0.6490    3.2514    2.9109 H   0  0  0  0  0  0  0  0  0  0  0  0
   -0.4966    2.0368    2.4127 H   0  0  0  0  0  0  0  0  0  0  0  0
   -2.1253    3.9976    2.1663 H   0  0  0  0  0  0  0  0  0  0  0  0
   -0.9580    5.1415    2.8090 H   0  0  0  0  0  0  0  0  0  0  0  0
   -2.5441    4.9189    3.5742 H   0  0  0  0  0  0  0  0  0  0  0  0
   -2.9063    2.0694    3.5107 H   0  0  0  0  0  0  0  0  0  0  0  0
   -3.1170    2.9900    4.9907 H   0  0  0  0  0  0  0  0  0  0  0  0
   -2.1081    1.5215    4.9624 H   0  0  0  0  0  0  0  0  0  0  0  0
    0.3600   -1.4582    5.2531 H   0  0  0  0  0  0  0  0  0  0  0  0
    0.2023   -1.3722    3.4826 H   0  0  0  0  0  0  0  0  0  0  0  0
    2.3509   -0.2822    5.2956 H   0  0  0  0  0  0  0  0  0  0  0  0
    3.9555   -1.0128    3.8401 H   0  0  0  0  0  0  0  0  0  0  0  0
    3.1671   -2.6578    5.4359 H   0  0  0  0  0  0  0  0  0  0  0  0
    1.9852   -3.2859    4.3156 H   0  0  0  0  0  0  0  0  0  0  0  0
    5.0280   -3.3913    4.0634 H   0  0  0  0  0  0  0  0  0  0  0  0
    3.9662   -4.7484    4.2977 H   0  0  0  0  0  0  0  0  0  0  0  0
    4.7825   -4.4979    1.9444 H   0  0  0  0  0  0  0  0  0  0  0  0
    2.7660   -5.7654    2.3984 H   0  0  0  0  0  0  0  0  0  0  0  0
    1.7654   -4.3511    2.2574 H   0  0  0  0  0  0  0  0  0  0  0  0
    3.4581   -5.6064    0.0361 H   0  0  0  0  0  0  0  0  0  0  0  0
    1.5696   -6.6761    0.4409 H   0  0  0  0  0  0  0  0  0  0  0  0
    2.5522   -3.8603   -1.4493 H   0  0  0  0  0  0  0  0  0  0  0  0
    1.6655   -3.1085   -0.1619 H   0  0  0  0  0  0  0  0  0  0  0  0
    4.6611   -3.3612   -0.3669 H   0  0  0  0  0  0  0  0  0  0  0  0
    3.7430   -1.9024   -0.5696 H   0  0  0  0  0  0  0  0  0  0  0  0
    5.4601   -0.9433    1.1738 H   0  0  0  0  0  0  0  0  0  0  0  0
    6.1516   -2.5537    1.2856 H   0  0  0  0  0  0  0  0  0  0  0  0
    5.6384   -1.7169    2.7302 H   0  0  0  0  0  0  0  0  0  0  0  0
    1.8627   -2.0692    1.9076 H   0  0  0  0  0  0  0  0  0  0  0  0
    3.7525    0.2814    1.4755 H   0  0  0  0  0  0  0  0  0  0  0  0
    2.5966   -0.3139    0.3341 H   0  0  0  0  0  0  0  0  0  0  0  0
    1.7706    1.6283    1.4837 H   0  0  0  0  0  0  0  0  0  0  0  0
    0.7478    0.2504    1.7954 H   0  0  0  0  0  0  0  0  0  0  0  0
    4.1377    1.2970    3.3202 H   0  0  0  0  0  0  0  0  0  0  0  0
    3.4224    1.8715    4.8517 H   0  0  0  0  0  0  0  0  0  0  0  0
    3.1561    2.7319    3.3628 H   0  0  0  0  0  0  0  0  0  0  0  0
  1  2  1  0
  1 30  1  0
  1 31  1  0
  1 32  1  0
  2  3  1  0
  3 10  1  0
  3  4  1  0
  3 33  1  1
  4  5  1  0
  4 34  1  0
  4 35  1  0
  5 28  1  0
  5  6  1  0
  5 11  1  1
  6  7  1  0
  6 36  1  0
  6 37  1  0
  7  8  1  0
  7  9  1  0
  7 10  1  0
  8 38  1  0
  8 39  1  0
  8 40  1  0
  9 41  1  0
  9 42  1  0
  9 43  1  0
 11 12  1  0
 12 13  1  0
 12 44  1  0
 12 45  1  0
 13 28  1  0
 13 14  1  0
 13 46  1  1
 14 25  1  0
 14 15  1  0
 14 47  1  6
 15 16  1  0
 15 48  1  0
 15 49  1  0
 16 17  1  0
 16 50  1  0
 16 51  1  0
 17 23  1  0
 17 18  1  0
 17 52  1  6
 18 19  1  0
 18 53  1  0
 18 54  1  0
 19 20  1  0
 19 21  1  0
 19 55  1  6
 20 56  1  0
 21 22  1  0
 21 57  1  0
 21 58  1  0
 22 23  1  0
 22 59  1  0
 22 60  1  0
 23 24  1  6
 23 25  1  0
 24 61  1  0
 24 62  1  0
 24 63  1  0
 25 26  1  0
 25 64  1  1
 26 27  1  0
 26 65  1  0
 26 66  1  0
 27 28  1  0
 27 67  1  0
 27 68  1  0
 28 29  1  6
 29 69  1  0
 29 70  1  0
 29 71  1  0
M  END
>  <i_m_ct_stereo_status>  (243) 
1

>  <s_m_source_file>  (243) 
/var/tmp/pbs.5076255.sched01/tmptehp0e0j/84lnm28v0z.sdf

>  <i_m_source_file_index>  (243) 
15

>  <i_lp_mmshare_version>  (243) 
48012

>  <i_f3d_flags>  (243) 
0

>  <s_epik_input>  (243) 
W0NIMl0xQyhbQ0gzXSkoW0NIM10pT1tDQEhdKE9bQ0gzXSlbQ0gyXVtDQF0xMltDQEBdMyhbQ0gzXSlbQ0BASF0oW0NIMl1PMilbQ0BASF00W0NAQEhdKFtDSDJdW0NIMl0zKVtDQEBdNShbQ0gzXSlbQ0BASF0oW0NIMl1bQ0gyXTQpW0NIMl1bQ0BASF0oW09IXSlbQ0gyXVtDSDJdNQ==

>  <s_epik_cmdline>  (243) 
J2VwaWtfcHl0aG9uJywgJy1waHQnLCAnMi4wJywgJy1waCcsICc3LjAnLCAnLXRuJywgJzgnLCAnLW1hJywgJzIwMCcsICctaW1hZScsICc8aW5maWxlLm1hZT4nLCAnLW9tYWUnLCAnPG91dGZpbGUubWFlPic=

>  <r_lp_tautomer_probability>  (243) 
1

>  <r_epik_Ionization_Penalty>  (243) 
3.25458e-06

>  <r_epik_Ionization_Penalty_Charging>  (243) 
0

>  <r_epik_Ionization_Penalty_Neutral>  (243) 
3.25458e-06

>  <r_epik_State_Penalty>  (243) 
-0

>  <r_epik_Charging_Adjusted_Penalty>  (243) 
0

>  <i_epik_Tot_Q>  (243) 
0

>  <i_epik_Tot_abs_Q>  (243) 
0

>  <s_epik_Chemistry_Notes>  (243) 
This compound contains an acetal/aminal-like group ( X-CH(R)-Y where X, Y are N, S, or O) that may be acid/base labile, releasing an aldehyde.

>  <s_lp_Force_Field>  (243) 
OPLS3e

>  <r_lp_Energy>  (243) 
50.1179

>  <b_lp_Chiralities_Consistent>  (243) 
1

>  <s_lp_Variant>  (243) 
66:0-1

>  <s_i_glide_gridfile>  (243) 
pfpi4k_grid

>  <i_i_glide_lignum>  (243) 
15

>  <i_i_glide_rotatable_bonds>  (243) 
2

>  <r_i_docking_score>  (243) 
-2.45234

>  <r_i_glide_ligand_efficiency>  (243) 
-0.0845635

>  <r_i_glide_ligand_efficiency_sa>  (243) 
-0.259806

>  <r_i_glide_ligand_efficiency_ln>  (243) 
-0.561524

>  <r_i_glide_gscore>  (243) 
-2.45234

>  <r_i_glide_lipo>  (243) 
-0.0874014

>  <r_i_glide_hbond>  (243) 
-0.200942

>  <r_i_glide_metal>  (243) 
-0

>  <r_i_glide_rewards>  (243) 
-0.636828

>  <r_i_glide_evdw>  (243) 
-19.5369

>  <r_i_glide_ecoul>  (243) 
-3.66141

>  <r_i_glide_erotb>  (243) 
0

>  <r_i_glide_esite>  (243) 
-0.00111576

>  <r_i_glide_emodel>  (243) 
-25.4409

>  <r_i_glide_energy>  (243) 
-23.1983

>  <r_i_glide_einternal>  (243) 
0.376892

>  <r_i_glide_intrahb_reward>  (243) 
-0

>  <i_i_glide_confnum>  (243) 
1

>  <i_i_glide_posenum>  (243) 
31

>  <r_i_glide_eff_state_penalty>  (243) 
0

>  <ligand_id>  (243) 
66

>  <original_smiles>  (243) 
COC1CC2(CC(C)(C)O1)OCC1C3CCC4CC(O)CCC4(C)C3CCC12C

>  <smiles>  (243) 
[H]OC1([H])C([H])([H])C([H])([H])C2(C([H])([H])[H])C([H])(C([H])([H])C([H])([H])C3([H])C2([H])C([H])([H])C([H])([H])C2(C([H])([H])[H])C3([H])C([H])([H])OC23C([H])([H])C([H])(OC([H])([H])[H])OC(C([H])([H])[H])(C([H])([H])[H])C3([H])[H])C1([H])[H]

$$$$
66:0:2
     RDKit          3D

 71 75  0  0  1  0  0  0  0  0999 V2000
    5.9616  -10.1845    1.4762 C   0  0  0  0  0  0  0  0  0  0  0  0
    5.9659   -8.8376    1.9133 O   0  0  0  0  0  0  0  0  0  0  0  0
    4.6851   -8.3112    2.0423 C   0  0  2  0  0  0  0  0  0  0  0  0
    4.9033   -6.8634    2.5205 C   0  0  0  0  0  0  0  0  0  0  0  0
    3.5697   -6.1737    2.9072 C   0  0  2  0  0  0  0  0  0  0  0  0
    2.7572   -7.1130    3.8289 C   0  0  0  0  0  0  0  0  0  0  0  0
    2.6598   -8.5574    3.3067 C   0  0  0  0  0  0  0  0  0  0  0  0
    2.0853   -9.4630    4.4026 C   0  0  0  0  0  0  0  0  0  0  0  0
    1.7788   -8.6915    2.0506 C   0  0  0  0  0  0  0  0  0  0  0  0
    3.9752   -9.0241    3.0257 O   0  0  0  0  0  0  0  0  0  0  0  0
    2.7835   -5.9392    1.7213 O   0  0  0  0  0  0  0  0  0  0  0  0
    2.8067   -4.5230    1.3835 C   0  0  0  0  0  0  0  0  0  0  0  0
    3.9145   -3.9032    2.2539 C   0  0  1  0  0  0  0  0  0  0  0  0
    3.8790   -2.3844    2.5130 C   0  0  1  0  0  0  0  0  0  0  0  0
    3.8857   -1.5629    1.2030 C   0  0  0  0  0  0  0  0  0  0  0  0
    3.9826   -0.0584    1.4942 C   0  0  0  0  0  0  0  0  0  0  0  0
    2.8815    0.4163    2.4743 C   0  0  1  0  0  0  0  0  0  0  0  0
    1.4982    0.4526    1.7789 C   0  0  0  0  0  0  0  0  0  0  0  0
    0.4083    0.9923    2.7134 C   0  0  1  0  0  0  0  0  0  0  0  0
   -0.8537    0.9411    2.0728 O   0  0  0  0  0  0  0  0  0  0  0  0
    0.3356    0.1494    3.9894 C   0  0  0  0  0  0  0  0  0  0  0  0
    1.7023    0.1205    4.6933 C   0  0  0  0  0  0  0  0  0  0  0  0
    2.8775   -0.3966    3.8116 C   0  0  2  0  0  0  0  0  0  0  0  0
    4.1921   -0.1036    4.6080 C   0  0  0  0  0  0  0  0  0  0  0  0
    2.7535   -1.9264    3.4864 C   0  0  2  0  0  0  0  0  0  0  0  0
    2.7221   -2.8125    4.7623 C   0  0  0  0  0  0  0  0  0  0  0  0
    2.6505   -4.2914    4.4138 C   0  0  0  0  0  0  0  0  0  0  0  0
    3.8422   -4.7587    3.5190 C   0  0  1  0  0  0  0  0  0  0  0  0
    5.1734   -4.6888    4.3186 C   0  0  0  0  0  0  0  0  0  0  0  0
    6.9899  -10.5207    1.2690 H   0  0  0  0  0  0  0  0  0  0  0  0
    5.3640  -10.2553    0.6111 H   0  0  0  0  0  0  0  0  0  0  0  0
    5.5067  -10.8429    2.2262 H   0  0  0  0  0  0  0  0  0  0  0  0
    4.1841   -8.3907    1.0716 H   0  0  0  0  0  0  0  0  0  0  0  0
    5.5694   -6.8741    3.3965 H   0  0  0  0  0  0  0  0  0  0  0  0
    5.4576   -6.3733    1.7197 H   0  0  0  0  0  0  0  0  0  0  0  0
    3.2711   -7.1342    4.7983 H   0  0  0  0  0  0  0  0  0  0  0  0
    1.7555   -6.7451    4.0190 H   0  0  0  0  0  0  0  0  0  0  0  0
    1.0756   -9.1609    4.6845 H   0  0  0  0  0  0  0  0  0  0  0  0
    2.6743   -9.4731    5.3234 H   0  0  0  0  0  0  0  0  0  0  0  0
    2.0145  -10.5026    4.0687 H   0  0  0  0  0  0  0  0  0  0  0  0
    0.7372   -8.4811    2.2741 H   0  0  0  0  0  0  0  0  0  0  0  0
    1.8192   -9.7216    1.6729 H   0  0  0  0  0  0  0  0  0  0  0  0
    2.0594   -8.0165    1.2452 H   0  0  0  0  0  0  0  0  0  0  0  0
    3.0369   -4.3840    0.3216 H   0  0  0  0  0  0  0  0  0  0  0  0
    1.8439   -4.0416    1.5930 H   0  0  0  0  0  0  0  0  0  0  0  0
    4.8504   -4.1059    1.7304 H   0  0  0  0  0  0  0  0  0  0  0  0
    4.8332   -2.2007    2.9999 H   0  0  0  0  0  0  0  0  0  0  0  0
    4.7450   -1.8613    0.5972 H   0  0  0  0  0  0  0  0  0  0  0  0
    3.0016   -1.7687    0.5967 H   0  0  0  0  0  0  0  0  0  0  0  0
    4.9718    0.1423    1.9089 H   0  0  0  0  0  0  0  0  0  0  0  0
    3.9369    0.5102    0.5594 H   0  0  0  0  0  0  0  0  0  0  0  0
    3.1079    1.4503    2.7244 H   0  0  0  0  0  0  0  0  0  0  0  0
    1.5509    1.0798    0.8913 H   0  0  0  0  0  0  0  0  0  0  0  0
    1.2127   -0.5351    1.4202 H   0  0  0  0  0  0  0  0  0  0  0  0
    0.6208    2.0343    2.9562 H   0  0  0  0  0  0  0  0  0  0  0  0
   -0.7418    1.1018    1.1512 H   0  0  0  0  0  0  0  0  0  0  0  0
   -0.4081    0.5723    4.6676 H   0  0  0  0  0  0  0  0  0  0  0  0
   -0.0043   -0.8611    3.7642 H   0  0  0  0  0  0  0  0  0  0  0  0
    1.9227    1.1436    4.9931 H   0  0  0  0  0  0  0  0  0  0  0  0
    1.6229   -0.4400    5.6204 H   0  0  0  0  0  0  0  0  0  0  0  0
    4.2378   -0.6353    5.5638 H   0  0  0  0  0  0  0  0  0  0  0  0
    4.2808    0.9616    4.8387 H   0  0  0  0  0  0  0  0  0  0  0  0
    5.0990   -0.3720    4.0684 H   0  0  0  0  0  0  0  0  0  0  0  0
    1.7985   -2.0988    2.9844 H   0  0  0  0  0  0  0  0  0  0  0  0
    3.6119   -2.6499    5.3662 H   0  0  0  0  0  0  0  0  0  0  0  0
    1.8751   -2.5781    5.4114 H   0  0  0  0  0  0  0  0  0  0  0  0
    2.6495   -4.8470    5.3571 H   0  0  0  0  0  0  0  0  0  0  0  0
    1.6868   -4.4947    3.9416 H   0  0  0  0  0  0  0  0  0  0  0  0
    5.3806   -3.7095    4.7672 H   0  0  0  0  0  0  0  0  0  0  0  0
    6.0166   -4.9812    3.6874 H   0  0  0  0  0  0  0  0  0  0  0  0
    5.1715   -5.3911    5.1516 H   0  0  0  0  0  0  0  0  0  0  0  0
  1  2  1  0
  1 30  1  0
  1 31  1  0
  1 32  1  0
  2  3  1  0
  3 10  1  0
  3  4  1  0
  3 33  1  6
  4  5  1  0
  4 34  1  0
  4 35  1  0
  5 28  1  0
  5  6  1  0
  5 11  1  6
  6  7  1  0
  6 36  1  0
  6 37  1  0
  7  8  1  0
  7  9  1  0
  7 10  1  0
  8 38  1  0
  8 39  1  0
  8 40  1  0
  9 41  1  0
  9 42  1  0
  9 43  1  0
 11 12  1  0
 12 13  1  0
 12 44  1  0
 12 45  1  0
 13 28  1  0
 13 14  1  0
 13 46  1  6
 14 25  1  0
 14 15  1  0
 14 47  1  1
 15 16  1  0
 15 48  1  0
 15 49  1  0
 16 17  1  0
 16 50  1  0
 16 51  1  0
 17 23  1  0
 17 18  1  0
 17 52  1  1
 18 19  1  0
 18 53  1  0
 18 54  1  0
 19 20  1  0
 19 21  1  0
 19 55  1  1
 20 56  1  0
 21 22  1  0
 21 57  1  0
 21 58  1  0
 22 23  1  0
 22 59  1  0
 22 60  1  0
 23 24  1  1
 23 25  1  0
 24 61  1  0
 24 62  1  0
 24 63  1  0
 25 26  1  0
 25 64  1  6
 26 27  1  0
 26 65  1  0
 26 66  1  0
 27 28  1  0
 27 67  1  0
 27 68  1  0
 28 29  1  1
 29 69  1  0
 29 70  1  0
 29 71  1  0
M  END
>  <i_m_ct_stereo_status>  (244) 
1

>  <s_m_source_file>  (244) 
/var/tmp/pbs.5076255.sched01/tmptehp0e0j/84lnm28v0z.sdf

>  <i_m_source_file_index>  (244) 
15

>  <i_lp_mmshare_version>  (244) 
48012

>  <i_f3d_flags>  (244) 
0

>  <s_epik_input>  (244) 
W0NIMl0xQyhbQ0gzXSkoW0NIM10pT1tDQEhdKE9bQ0gzXSlbQ0gyXVtDQF0xMltDQEBdMyhbQ0gzXSlbQ0BASF0oW0NIMl1PMilbQ0BASF00W0NAQEhdKFtDSDJdW0NIMl0zKVtDQEBdNShbQ0gzXSlbQ0BASF0oW0NIMl1bQ0gyXTQpW0NIMl1bQ0BASF0oW09IXSlbQ0gyXVtDSDJdNQ==

>  <s_epik_cmdline>  (244) 
J2VwaWtfcHl0aG9uJywgJy1waHQnLCAnMi4wJywgJy1waCcsICc3LjAnLCAnLXRuJywgJzgnLCAnLW1hJywgJzIwMCcsICctaW1hZScsICc8aW5maWxlLm1hZT4nLCAnLW9tYWUnLCAnPG91dGZpbGUubWFlPic=

>  <r_lp_tautomer_probability>  (244) 
1

>  <r_epik_Ionization_Penalty>  (244) 
3.25458e-06

>  <r_epik_Ionization_Penalty_Charging>  (244) 
0

>  <r_epik_Ionization_Penalty_Neutral>  (244) 
3.25458e-06

>  <r_epik_State_Penalty>  (244) 
-0

>  <r_epik_Charging_Adjusted_Penalty>  (244) 
0

>  <i_epik_Tot_Q>  (244) 
0

>  <i_epik_Tot_abs_Q>  (244) 
0

>  <s_epik_Chemistry_Notes>  (244) 
This compound contains an acetal/aminal-like group ( X-CH(R)-Y where X, Y are N, S, or O) that may be acid/base labile, releasing an aldehyde.

>  <s_lp_Force_Field>  (244) 
OPLS3e

>  <r_lp_Energy>  (244) 
50.1179

>  <b_lp_Chiralities_Consistent>  (244) 
1

>  <s_lp_Variant>  (244) 
66:0-1

>  <s_i_glide_gridfile>  (244) 
pfpi4k_grid

>  <i_i_glide_lignum>  (244) 
15

>  <i_i_glide_rotatable_bonds>  (244) 
2

>  <r_i_docking_score>  (244) 
-2.02124

>  <r_i_glide_ligand_efficiency>  (244) 
-0.069698

>  <r_i_glide_ligand_efficiency_sa>  (244) 
-0.214134

>  <r_i_glide_ligand_efficiency_ln>  (244) 
-0.462813

>  <r_i_glide_gscore>  (244) 
-2.02124

>  <r_i_glide_lipo>  (244) 
-0.0950396

>  <r_i_glide_hbond>  (244) 
-0.110543

>  <r_i_glide_metal>  (244) 
-0

>  <r_i_glide_rewards>  (244) 
-0.638869

>  <r_i_glide_evdw>  (244) 
-19.7035

>  <r_i_glide_ecoul>  (244) 
-1.27744

>  <r_i_glide_erotb>  (244) 
0

>  <r_i_glide_esite>  (244) 
0

>  <r_i_glide_emodel>  (244) 
-23.0909

>  <r_i_glide_energy>  (244) 
-20.981

>  <r_i_glide_einternal>  (244) 
0.960499

>  <r_i_glide_intrahb_reward>  (244) 
-0

>  <i_i_glide_confnum>  (244) 
2

>  <i_i_glide_posenum>  (244) 
2

>  <r_i_glide_eff_state_penalty>  (244) 
0

>  <ligand_id>  (244) 
66

>  <original_smiles>  (244) 
COC1CC2(CC(C)(C)O1)OCC1C3CCC4CC(O)CCC4(C)C3CCC12C

>  <smiles>  (244) 
[H]OC1([H])C([H])([H])C([H])([H])C2(C([H])([H])[H])C([H])(C([H])([H])C([H])([H])C3([H])C2([H])C([H])([H])C([H])([H])C2(C([H])([H])[H])C3([H])C([H])([H])OC23C([H])([H])C([H])(OC([H])([H])[H])OC(C([H])([H])[H])(C([H])([H])[H])C3([H])[H])C1([H])[H]

$$$$
67:0:0
     RDKit          3D

 86 93  0  0  1  0  0  0  0  0999 V2000
    4.5215   -5.0568    4.1748 C   0  0  0  0  0  0  0  0  0  0  0  0
    4.1732   -4.1451    2.9873 C   0  0  2  0  0  0  0  0  0  0  0  0
    5.3565   -3.2341    2.6592 C   0  0  0  0  0  0  0  0  0  0  0  0
    5.2409   -1.8953    2.6214 C   0  0  0  0  0  0  0  0  0  0  0  0
    6.1049   -1.1009    1.6800 C   0  0  0  0  0  0  0  0  0  0  0  0
    5.4889   -1.2136    0.2702 C   0  0  0  0  0  0  0  0  0  0  0  0
    6.2040   -1.4322   -0.7123 O   0  0  0  0  0  0  0  0  0  0  0  0
    3.9584   -1.0651    0.1009 C   0  0  0  0  0  0  0  0  0  0  0  0
    3.1113   -2.1754    0.7877 C   0  0  0  0  0  0  0  0  0  0  0  0
    2.8220   -1.9995    2.3304 C   0  0  2  0  0  0  0  0  0  0  0  0
    1.4702   -1.2528    2.4782 C   0  0  0  0  0  0  0  0  0  0  0  0
    3.9491   -1.2091    3.0330 C   0  0  1  0  0  0  0  0  0  0  0  0
    3.7880   -1.1241    4.5742 C   0  0  0  0  0  0  0  0  0  0  0  0
    2.9078   -2.2081    5.2054 C   0  0  0  0  0  0  0  0  0  0  0  0
    2.3947   -3.2562    4.5263 C   0  0  0  0  0  0  0  0  0  0  0  0
    1.5268   -4.2421    5.1596 C   0  0  0  0  0  0  0  0  0  0  0  0
    1.1397   -5.4235    4.6516 C   0  0  0  0  0  0  0  0  0  0  0  0
    1.5147   -6.0021    3.4602 O   0  0  0  0  0  0  0  0  0  0  0  0
    0.5792   -7.0882    3.7172 C   0  0  2  0  0  0  0  0  0  0  0  0
    0.2357   -6.5671    5.1011 C   0  0  1  0  0  0  0  0  0  0  0  0
    0.7875   -7.4122    6.2599 C   0  0  0  0  0  0  0  0  0  0  0  0
    2.2021   -7.9456    5.9584 C   0  0  0  0  0  0  0  0  0  0  0  0
    2.4331   -8.6820    4.5917 C   0  0  2  0  0  0  0  0  0  0  0  0
    3.8420   -8.3416    3.9761 C   0  0  1  0  0  0  0  0  0  0  0  0
    5.0117   -8.4067    5.0099 C   0  0  0  0  0  0  0  0  0  0  0  0
    6.4203   -8.5713    4.4015 C   0  0  0  0  0  0  0  0  0  0  0  0
    6.4382   -7.9497    3.0018 C   0  0  0  0  0  0  0  0  0  0  0  0
    7.1626   -6.8481    2.7268 C   0  0  0  0  0  0  0  0  0  0  0  0
    7.0012   -6.1005    1.4778 C   0  0  0  0  0  0  0  0  0  0  0  0
    7.7948   -5.2436    1.1162 O   0  0  0  0  0  0  0  0  0  0  0  0
    5.7952   -6.4406    0.6993 C   0  0  0  0  0  0  0  0  0  0  0  0
    5.0949   -7.5581    0.9455 C   0  0  0  0  0  0  0  0  0  0  0  0
    5.4569   -8.6154    1.9952 C   0  0  1  0  0  0  0  0  0  0  0  0
    6.2287   -9.7221    1.2625 C   0  0  0  0  0  0  0  0  0  0  0  0
    4.2353   -9.2340    2.7600 C   0  0  2  0  0  0  0  0  0  0  0  0
    2.9892   -9.5638    1.9044 C   0  0  0  0  0  0  0  0  0  0  0  0
    1.8459   -8.5488    2.0798 C   0  0  0  0  0  0  0  0  0  0  0  0
    1.2953   -8.4588    3.5357 C   0  0  2  0  0  0  0  0  0  0  0  0
    0.2425   -9.5738    3.7148 C   0  0  0  0  0  0  0  0  0  0  0  0
    2.8028   -3.3920    3.0463 C   0  0  2  0  0  0  0  0  0  0  0  0
    5.3366   -5.7058    3.8884 H   0  0  0  0  0  0  0  0  0  0  0  0
    3.7144   -5.6871    4.4291 H   0  0  0  0  0  0  0  0  0  0  0  0
    4.8401   -4.4554    5.0524 H   0  0  0  0  0  0  0  0  0  0  0  0
    4.0768   -4.7573    2.1060 H   0  0  0  0  0  0  0  0  0  0  0  0
    6.2239   -3.6762    2.2030 H   0  0  0  0  0  0  0  0  0  0  0  0
    6.1606   -0.0556    2.0065 H   0  0  0  0  0  0  0  0  0  0  0  0
    7.0982   -1.5383    1.6533 H   0  0  0  0  0  0  0  0  0  0  0  0
    3.6442   -0.0779    0.4492 H   0  0  0  0  0  0  0  0  0  0  0  0
    3.7511   -1.1023   -0.9693 H   0  0  0  0  0  0  0  0  0  0  0  0
    2.1699   -2.2567    0.2639 H   0  0  0  0  0  0  0  0  0  0  0  0
    3.5878   -3.1344    0.5781 H   0  0  0  0  0  0  0  0  0  0  0  0
    1.2373   -1.0216    3.5169 H   0  0  0  0  0  0  0  0  0  0  0  0
    0.6504   -1.8657    2.0963 H   0  0  0  0  0  0  0  0  0  0  0  0
    1.4813   -0.3137    1.9163 H   0  0  0  0  0  0  0  0  0  0  0  0
    3.9747   -0.1766    2.6524 H   0  0  0  0  0  0  0  0  0  0  0  0
    4.7585   -1.1171    5.0524 H   0  0  0  0  0  0  0  0  0  0  0  0
    3.3151   -0.1748    4.8002 H   0  0  0  0  0  0  0  0  0  0  0  0
    2.6816   -2.0773    6.2567 H   0  0  0  0  0  0  0  0  0  0  0  0
    1.1141   -3.9778    6.1195 H   0  0  0  0  0  0  0  0  0  0  0  0
   -0.2524   -6.9624    3.0211 H   0  0  0  0  0  0  0  0  0  0  0  0
   -0.8287   -6.3241    5.1886 H   0  0  0  0  0  0  0  0  0  0  0  0
    0.7867   -6.8346    7.1939 H   0  0  0  0  0  0  0  0  0  0  0  0
    0.1173   -8.2541    6.4559 H   0  0  0  0  0  0  0  0  0  0  0  0
    2.8919   -7.0919    6.0228 H   0  0  0  0  0  0  0  0  0  0  0  0
    2.4936   -8.5998    6.7674 H   0  0  0  0  0  0  0  0  0  0  0  0
    2.4404   -9.7592    4.8381 H   0  0  0  0  0  0  0  0  0  0  0  0
    3.7692   -7.3598    3.5851 H   0  0  0  0  0  0  0  0  0  0  0  0
    4.9944   -7.4884    5.5698 H   0  0  0  0  0  0  0  0  0  0  0  0
    4.8722   -9.1878    5.7635 H   0  0  0  0  0  0  0  0  0  0  0  0
    7.1755   -8.0963    5.0316 H   0  0  0  0  0  0  0  0  0  0  0  0
    6.6676   -9.6242    4.3102 H   0  0  0  0  0  0  0  0  0  0  0  0
    7.8315   -6.4200    3.4710 H   0  0  0  0  0  0  0  0  0  0  0  0
    5.4908   -5.7298   -0.0562 H   0  0  0  0  0  0  0  0  0  0  0  0
    4.2096   -7.7501    0.3490 H   0  0  0  0  0  0  0  0  0  0  0  0
    7.1091   -9.3192    0.7473 H   0  0  0  0  0  0  0  0  0  0  0  0
    5.5868  -10.2150    0.5197 H   0  0  0  0  0  0  0  0  0  0  0  0
    6.5789  -10.4827    1.9706 H   0  0  0  0  0  0  0  0  0  0  0  0
    4.5756  -10.2080    3.1417 H   0  0  0  0  0  0  0  0  0  0  0  0
    3.2391   -9.6555    0.8508 H   0  0  0  0  0  0  0  0  0  0  0  0
    2.6222  -10.5651    2.1783 H   0  0  0  0  0  0  0  0  0  0  0  0
    2.1923   -7.5814    1.7172 H   0  0  0  0  0  0  0  0  0  0  0  0
    1.0391   -8.8186    1.4101 H   0  0  0  0  0  0  0  0  0  0  0  0
    0.6553  -10.5711    3.5175 H   0  0  0  0  0  0  0  0  0  0  0  0
   -0.6283   -9.4338    3.0517 H   0  0  0  0  0  0  0  0  0  0  0  0
   -0.1540   -9.5977    4.7418 H   0  0  0  0  0  0  0  0  0  0  0  0
    2.0321   -3.9623    2.5259 H   0  0  0  0  0  0  0  0  0  0  0  0
  1  2  1  0
  1 41  1  0
  1 42  1  0
  1 43  1  0
  2 40  1  0
  2  3  1  0
  2 44  1  6
  3  4  2  0
  3 45  1  0
  4 12  1  0
  4  5  1  0
  5  6  1  0
  5 46  1  0
  5 47  1  0
  6  7  2  0
  6  8  1  0
  8  9  1  0
  8 48  1  0
  8 49  1  0
  9 10  1  0
  9 50  1  0
  9 51  1  0
 10 40  1  0
 10 11  1  6
 10 12  1  0
 11 52  1  0
 11 53  1  0
 11 54  1  0
 12 13  1  0
 12 55  1  6
 13 14  1  0
 13 56  1  0
 13 57  1  0
 14 15  2  0
 14 58  1  0
 15 16  1  0
 15 40  1  0
 16 17  2  3
 16 59  1  0
 17 20  1  0
 17 18  1  0
 18 19  1  0
 19 38  1  0
 19 20  1  0
 19 60  1  6
 20 21  1  0
 20 61  1  6
 21 22  1  0
 21 62  1  0
 21 63  1  0
 22 23  1  0
 22 64  1  0
 22 65  1  0
 23 38  1  0
 23 24  1  0
 23 66  1  1
 24 35  1  0
 24 25  1  0
 24 67  1  6
 25 26  1  0
 25 68  1  0
 25 69  1  0
 26 27  1  0
 26 70  1  0
 26 71  1  0
 27 33  1  0
 27 28  2  0
 28 29  1  0
 28 72  1  0
 29 30  2  0
 29 31  1  0
 31 32  2  0
 31 73  1  0
 32 33  1  0
 32 74  1  0
 33 34  1  6
 33 35  1  0
 34 75  1  0
 34 76  1  0
 34 77  1  0
 35 36  1  0
 35 78  1  1
 36 37  1  0
 36 79  1  0
 36 80  1  0
 37 38  1  0
 37 81  1  0
 37 82  1  0
 38 39  1  6
 39 83  1  0
 39 84  1  0
 39 85  1  0
 40 86  1  6
M  END
>  <i_m_ct_stereo_status>  (245) 
1

>  <s_m_source_file>  (245) 
/var/tmp/pbs.5076255.sched01/tmptehp0e0j/84lnm28v0z.sdf

>  <i_m_source_file_index>  (245) 
16

>  <i_lp_mmshare_version>  (245) 
48012

>  <i_f3d_flags>  (245) 
0

>  <s_epik_input>  (245) 
W0NIMl0xW0NIMl1DKD1PKVtDSDJdQyhbQ0BIXTJbQ0BAXTEzW0NIM10pPVtDSF1bQ0BASF0oW0NIM10pW0NASF0zQyg9W0NIXVtDSDJdMikvW0NIXT1DKFxPNClbQ0BIXShbQ0gyXVtDSDJdNSlbQ0BASF00W0NAQF0oW0NIM10pKFtDSDJdW0NIMl1bQ0BIXTY3KVtDQEhdNVtDQEhdNltDSDJdW0NIMl1DKFtDQEBdNzhbQ0gzXSk9W0NIXUMoPU8pW0NIXT1bQ0hdOA==

>  <s_epik_cmdline>  (245) 
J2VwaWtfcHl0aG9uJywgJy1waHQnLCAnMi4wJywgJy1waCcsICc3LjAnLCAnLXRuJywgJzgnLCAnLW1hJywgJzIwMCcsICctaW1hZScsICc8aW5maWxlLm1hZT4nLCAnLW9tYWUnLCAnPG91dGZpbGUubWFlPic=

>  <r_lp_tautomer_probability>  (245) 
1

>  <r_epik_Ionization_Penalty>  (245) 
3.12714e-13

>  <r_epik_Ionization_Penalty_Charging>  (245) 
0

>  <r_epik_Ionization_Penalty_Neutral>  (245) 
3.12714e-13

>  <r_epik_State_Penalty>  (245) 
-0

>  <r_epik_Charging_Adjusted_Penalty>  (245) 
0

>  <i_epik_Tot_Q>  (245) 
0

>  <i_epik_Tot_abs_Q>  (245) 
0

>  <s_lp_Force_Field>  (245) 
OPLS3e

>  <r_lp_Energy>  (245) 
106.681

>  <b_lp_Chiralities_Consistent>  (245) 
1

>  <s_lp_Variant>  (245) 
67:0-1

>  <s_i_glide_gridfile>  (245) 
pfpi4k_grid

>  <i_i_glide_lignum>  (245) 
16

>  <i_i_glide_rotatable_bonds>  (245) 
1

>  <r_i_docking_score>  (245) 
-2.74109

>  <r_i_glide_ligand_efficiency>  (245) 
-0.0685274

>  <r_i_glide_ligand_efficiency_sa>  (245) 
-0.23436

>  <r_i_glide_ligand_efficiency_ln>  (245) 
-0.584595

>  <r_i_glide_gscore>  (245) 
-2.74109

>  <r_i_glide_lipo>  (245) 
-0.417918

>  <r_i_glide_hbond>  (245) 
-0.111157

>  <r_i_glide_metal>  (245) 
-0

>  <r_i_glide_rewards>  (245) 
-0.207878

>  <r_i_glide_evdw>  (245) 
-33.6387

>  <r_i_glide_ecoul>  (245) 
-2.62265

>  <r_i_glide_erotb>  (245) 
0.0711925

>  <r_i_glide_esite>  (245) 
0

>  <r_i_glide_emodel>  (245) 
-40.0168

>  <r_i_glide_energy>  (245) 
-36.2614

>  <r_i_glide_einternal>  (245) 
0.337656

>  <r_i_glide_intrahb_reward>  (245) 
-0

>  <i_i_glide_confnum>  (245) 
5

>  <i_i_glide_posenum>  (245) 
10

>  <r_i_glide_eff_state_penalty>  (245) 
0

>  <ligand_id>  (245) 
67

>  <original_smiles>  (245) 
CC1C=C2CC(=O)CCC3(C)C2CC=C(C=C2OC4C2CCC2C5CCC6=CC(=O)C=CC6(C)C5CCC24C)C13

>  <smiles>  (245) 
[H]C(=C1OC2([H])C1([H])C([H])([H])C([H])([H])C1([H])C3([H])C([H])([H])C([H])([H])C4=C([H])C(=O)C([H])=C([H])C4(C([H])([H])[H])C3([H])C([H])([H])C([H])([H])C21C([H])([H])[H])C1=C([H])C([H])([H])C2([H])C3=C([H])C([H])(C([H])([H])[H])C1([H])C2(C([H])([H])[H])C([H])([H])C([H])([H])C(=O)C3([H])[H]

$$$$
67:0:1
     RDKit          3D

 86 93  0  0  1  0  0  0  0  0999 V2000
    3.7960  -10.3750    4.0722 C   0  0  0  0  0  0  0  0  0  0  0  0
    3.0858   -9.3302    4.9453 C   0  0  2  0  0  0  0  0  0  0  0  0
    1.9347   -9.9541    5.7080 C   0  0  0  0  0  0  0  0  0  0  0  0
    0.6971   -9.4309    5.6992 C   0  0  0  0  0  0  0  0  0  0  0  0
   -0.1891   -9.5657    6.9023 C   0  0  0  0  0  0  0  0  0  0  0  0
    0.2346   -8.4895    7.9227 C   0  0  0  0  0  0  0  0  0  0  0  0
    0.2359   -8.7334    9.1292 O   0  0  0  0  0  0  0  0  0  0  0  0
    0.5536   -7.0595    7.4333 C   0  0  0  0  0  0  0  0  0  0  0  0
    1.7590   -6.9397    6.4516 C   0  0  0  0  0  0  0  0  0  0  0  0
    1.4951   -7.2803    4.9403 C   0  0  2  0  0  0  0  0  0  0  0  0
    1.1219   -5.9827    4.2205 C   0  0  0  0  0  0  0  0  0  0  0  0
    0.3470   -8.2796    4.7838 C   0  0  1  0  0  0  0  0  0  0  0  0
    0.0775   -8.7017    3.3155 C   0  0  0  0  0  0  0  0  0  0  0  0
    1.2551   -8.5039    2.3566 C   0  0  0  0  0  0  0  0  0  0  0  0
    2.4835   -8.1433    2.7688 C   0  0  0  0  0  0  0  0  0  0  0  0
    3.5287   -7.8023    1.8097 C   0  0  0  0  0  0  0  0  0  0  0  0
    3.6936   -6.6174    1.1997 C   0  0  0  0  0  0  0  0  0  0  0  0
    2.8701   -5.4984    1.2914 O   0  0  0  0  0  0  0  0  0  0  0  0
    3.6874   -4.8890    0.2529 C   0  0  2  0  0  0  0  0  0  0  0  0
    4.6824   -6.0414    0.2201 C   0  0  1  0  0  0  0  0  0  0  0  0
    6.0565   -5.7477    0.8194 C   0  0  0  0  0  0  0  0  0  0  0  0
    5.9407   -4.8384    2.0592 C   0  0  0  0  0  0  0  0  0  0  0  0
    5.0994   -3.5226    1.9304 C   0  0  2  0  0  0  0  0  0  0  0  0
    4.3007   -3.2486    3.2370 C   0  0  1  0  0  0  0  0  0  0  0  0
    5.1307   -3.3910    4.5380 C   0  0  0  0  0  0  0  0  0  0  0  0
    4.5436   -2.6497    5.7544 C   0  0  0  0  0  0  0  0  0  0  0  0
    3.0522   -2.5189    5.6430 C   0  0  0  0  0  0  0  0  0  0  0  0
    2.2344   -3.2117    6.4659 C   0  0  0  0  0  0  0  0  0  0  0  0
    0.7965   -3.2817    6.1887 C   0  0  0  0  0  0  0  0  0  0  0  0
    0.0093   -3.7575    7.0050 O   0  0  0  0  0  0  0  0  0  0  0  0
    0.3445   -2.8569    4.8622 C   0  0  0  0  0  0  0  0  0  0  0  0
    1.1632   -2.1918    4.0265 C   0  0  0  0  0  0  0  0  0  0  0  0
    2.5594   -1.7264    4.4134 C   0  0  1  0  0  0  0  0  0  0  0  0
    2.4234   -0.2613    4.8460 C   0  0  0  0  0  0  0  0  0  0  0  0
    3.5995   -1.8639    3.2414 C   0  0  2  0  0  0  0  0  0  0  0  0
    3.1542   -1.4089    1.8324 C   0  0  0  0  0  0  0  0  0  0  0  0
    2.8975   -2.6065    0.9249 C   0  0  0  0  0  0  0  0  0  0  0  0
    4.1502   -3.4816    0.6831 C   0  0  2  0  0  0  0  0  0  0  0  0
    4.9420   -2.8473   -0.5007 C   0  0  0  0  0  0  0  0  0  0  0  0
    2.7290   -7.9640    4.2644 C   0  0  2  0  0  0  0  0  0  0  0  0
    4.1333  -11.2118    4.6895 H   0  0  0  0  0  0  0  0  0  0  0  0
    4.6780   -9.9549    3.5818 H   0  0  0  0  0  0  0  0  0  0  0  0
    3.1320  -10.7862    3.3057 H   0  0  0  0  0  0  0  0  0  0  0  0
    3.7904   -9.0717    5.7300 H   0  0  0  0  0  0  0  0  0  0  0  0
    2.2138  -10.6559    6.4800 H   0  0  0  0  0  0  0  0  0  0  0  0
   -1.2394   -9.4550    6.6337 H   0  0  0  0  0  0  0  0  0  0  0  0
   -0.0706  -10.5545    7.3345 H   0  0  0  0  0  0  0  0  0  0  0  0
   -0.3471   -6.6098    7.0115 H   0  0  0  0  0  0  0  0  0  0  0  0
    0.7784   -6.4788    8.3301 H   0  0  0  0  0  0  0  0  0  0  0  0
    2.1697   -5.9360    6.5286 H   0  0  0  0  0  0  0  0  0  0  0  0
    2.5565   -7.5543    6.8608 H   0  0  0  0  0  0  0  0  0  0  0  0
    0.8635   -6.0804    3.1680 H   0  0  0  0  0  0  0  0  0  0  0  0
    1.9398   -5.2633    4.2743 H   0  0  0  0  0  0  0  0  0  0  0  0
    0.2262   -5.5968    4.7001 H   0  0  0  0  0  0  0  0  0  0  0  0
   -0.5813   -7.8363    5.1433 H   0  0  0  0  0  0  0  0  0  0  0  0
   -0.2911   -9.7260    3.2753 H   0  0  0  0  0  0  0  0  0  0  0  0
   -0.7263   -8.0761    2.9273 H   0  0  0  0  0  0  0  0  0  0  0  0
    1.0328   -8.6312    1.3022 H   0  0  0  0  0  0  0  0  0  0  0  0
    4.2508   -8.5775    1.6060 H   0  0  0  0  0  0  0  0  0  0  0  0
    3.1052   -4.8849   -0.6656 H   0  0  0  0  0  0  0  0  0  0  0  0
    4.6917   -6.5264   -0.7768 H   0  0  0  0  0  0  0  0  0  0  0  0
    6.6002   -6.6582    1.0670 H   0  0  0  0  0  0  0  0  0  0  0  0
    6.6760   -5.2459    0.0893 H   0  0  0  0  0  0  0  0  0  0  0  0
    5.5493   -5.4425    2.8783 H   0  0  0  0  0  0  0  0  0  0  0  0
    6.9488   -4.5828    2.3458 H   0  0  0  0  0  0  0  0  0  0  0  0
    5.8150   -2.6890    1.8320 H   0  0  0  0  0  0  0  0  0  0  0  0
    3.5159   -4.0105    3.2687 H   0  0  0  0  0  0  0  0  0  0  0  0
    5.1811   -4.4414    4.7949 H   0  0  0  0  0  0  0  0  0  0  0  0
    6.1639   -3.0644    4.3999 H   0  0  0  0  0  0  0  0  0  0  0  0
    4.8247   -3.1616    6.6783 H   0  0  0  0  0  0  0  0  0  0  0  0
    4.9555   -1.6480    5.8039 H   0  0  0  0  0  0  0  0  0  0  0  0
    2.6295   -3.8055    7.2881 H   0  0  0  0  0  0  0  0  0  0  0  0
   -0.6293   -3.1904    4.5277 H   0  0  0  0  0  0  0  0  0  0  0  0
    0.8266   -1.9567    3.0355 H   0  0  0  0  0  0  0  0  0  0  0  0
    1.7130   -0.1736    5.6726 H   0  0  0  0  0  0  0  0  0  0  0  0
    2.0485    0.3584    4.0320 H   0  0  0  0  0  0  0  0  0  0  0  0
    3.3712    0.1538    5.1914 H   0  0  0  0  0  0  0  0  0  0  0  0
    4.3836   -1.1553    3.4870 H   0  0  0  0  0  0  0  0  0  0  0  0
    2.2505   -0.8065    1.8760 H   0  0  0  0  0  0  0  0  0  0  0  0
    3.9126   -0.7465    1.3855 H   0  0  0  0  0  0  0  0  0  0  0  0
    2.0829   -3.2004    1.3396 H   0  0  0  0  0  0  0  0  0  0  0  0
    2.5510   -2.2547   -0.0320 H   0  0  0  0  0  0  0  0  0  0  0  0
    5.2134   -1.8059   -0.2968 H   0  0  0  0  0  0  0  0  0  0  0  0
    4.3689   -2.8468   -1.4363 H   0  0  0  0  0  0  0  0  0  0  0  0
    5.8835   -3.3692   -0.7146 H   0  0  0  0  0  0  0  0  0  0  0  0
    3.5847   -7.2984    4.3494 H   0  0  0  0  0  0  0  0  0  0  0  0
  1  2  1  0
  1 41  1  0
  1 42  1  0
  1 43  1  0
  2 40  1  0
  2  3  1  0
  2 44  1  1
  3  4  2  0
  3 45  1  0
  4 12  1  0
  4  5  1  0
  5  6  1  0
  5 46  1  0
  5 47  1  0
  6  7  2  0
  6  8  1  0
  8  9  1  0
  8 48  1  0
  8 49  1  0
  9 10  1  0
  9 50  1  0
  9 51  1  0
 10 40  1  0
 10 11  1  6
 10 12  1  0
 11 52  1  0
 11 53  1  0
 11 54  1  0
 12 13  1  0
 12 55  1  1
 13 14  1  0
 13 56  1  0
 13 57  1  0
 14 15  2  0
 14 58  1  0
 15 16  1  0
 15 40  1  0
 16 17  2  3
 16 59  1  0
 17 20  1  0
 17 18  1  0
 18 19  1  0
 19 38  1  0
 19 20  1  0
 19 60  1  6
 20 21  1  0
 20 61  1  6
 21 22  1  0
 21 62  1  0
 21 63  1  0
 22 23  1  0
 22 64  1  0
 22 65  1  0
 23 38  1  0
 23 24  1  0
 23 66  1  6
 24 35  1  0
 24 25  1  0
 24 67  1  1
 25 26  1  0
 25 68  1  0
 25 69  1  0
 26 27  1  0
 26 70  1  0
 26 71  1  0
 27 33  1  0
 27 28  2  0
 28 29  1  0
 28 72  1  0
 29 30  2  0
 29 31  1  0
 31 32  2  0
 31 73  1  0
 32 33  1  0
 32 74  1  0
 33 34  1  1
 33 35  1  0
 34 75  1  0
 34 76  1  0
 34 77  1  0
 35 36  1  0
 35 78  1  1
 36 37  1  0
 36 79  1  0
 36 80  1  0
 37 38  1  0
 37 81  1  0
 37 82  1  0
 38 39  1  6
 39 83  1  0
 39 84  1  0
 39 85  1  0
 40 86  1  6
M  END
>  <i_m_ct_stereo_status>  (246) 
1

>  <s_m_source_file>  (246) 
/var/tmp/pbs.5076255.sched01/tmptehp0e0j/84lnm28v0z.sdf

>  <i_m_source_file_index>  (246) 
16

>  <i_lp_mmshare_version>  (246) 
48012

>  <i_f3d_flags>  (246) 
0

>  <s_epik_input>  (246) 
W0NIMl0xW0NIMl1DKD1PKVtDSDJdQyhbQ0BIXTJbQ0BAXTEzW0NIM10pPVtDSF1bQ0BASF0oW0NIM10pW0NASF0zQyg9W0NIXVtDSDJdMikvW0NIXT1DKFxPNClbQ0BIXShbQ0gyXVtDSDJdNSlbQ0BASF00W0NAQF0oW0NIM10pKFtDSDJdW0NIMl1bQ0BIXTY3KVtDQEhdNVtDQEhdNltDSDJdW0NIMl1DKFtDQEBdNzhbQ0gzXSk9W0NIXUMoPU8pW0NIXT1bQ0hdOA==

>  <s_epik_cmdline>  (246) 
J2VwaWtfcHl0aG9uJywgJy1waHQnLCAnMi4wJywgJy1waCcsICc3LjAnLCAnLXRuJywgJzgnLCAnLW1hJywgJzIwMCcsICctaW1hZScsICc8aW5maWxlLm1hZT4nLCAnLW9tYWUnLCAnPG91dGZpbGUubWFlPic=

>  <r_lp_tautomer_probability>  (246) 
1

>  <r_epik_Ionization_Penalty>  (246) 
3.12714e-13

>  <r_epik_Ionization_Penalty_Charging>  (246) 
0

>  <r_epik_Ionization_Penalty_Neutral>  (246) 
3.12714e-13

>  <r_epik_State_Penalty>  (246) 
-0

>  <r_epik_Charging_Adjusted_Penalty>  (246) 
0

>  <i_epik_Tot_Q>  (246) 
0

>  <i_epik_Tot_abs_Q>  (246) 
0

>  <s_lp_Force_Field>  (246) 
OPLS3e

>  <r_lp_Energy>  (246) 
106.681

>  <b_lp_Chiralities_Consistent>  (246) 
1

>  <s_lp_Variant>  (246) 
67:0-1

>  <s_i_glide_gridfile>  (246) 
pfpi4k_grid

>  <i_i_glide_lignum>  (246) 
16

>  <i_i_glide_rotatable_bonds>  (246) 
1

>  <r_i_docking_score>  (246) 
-2.55983

>  <r_i_glide_ligand_efficiency>  (246) 
-0.0639957

>  <r_i_glide_ligand_efficiency_sa>  (246) 
-0.218862

>  <r_i_glide_ligand_efficiency_ln>  (246) 
-0.545936

>  <r_i_glide_gscore>  (246) 
-2.55983

>  <r_i_glide_lipo>  (246) 
-0.442484

>  <r_i_glide_hbond>  (246) 
0

>  <r_i_glide_metal>  (246) 
-0

>  <r_i_glide_rewards>  (246) 
0

>  <r_i_glide_evdw>  (246) 
-29.4432

>  <r_i_glide_ecoul>  (246) 
-4.44611

>  <r_i_glide_erotb>  (246) 
0.0711925

>  <r_i_glide_esite>  (246) 
-0.0494639

>  <r_i_glide_emodel>  (246) 
-37.2771

>  <r_i_glide_energy>  (246) 
-33.8893

>  <r_i_glide_einternal>  (246) 
3.24715

>  <r_i_glide_intrahb_reward>  (246) 
-0

>  <i_i_glide_confnum>  (246) 
4

>  <i_i_glide_posenum>  (246) 
24

>  <r_i_glide_eff_state_penalty>  (246) 
0

>  <ligand_id>  (246) 
67

>  <original_smiles>  (246) 
CC1C=C2CC(=O)CCC3(C)C2CC=C(C=C2OC4C2CCC2C5CCC6=CC(=O)C=CC6(C)C5CCC24C)C13

>  <smiles>  (246) 
[H]C(=C1OC2([H])C1([H])C([H])([H])C([H])([H])C1([H])C3([H])C([H])([H])C([H])([H])C4=C([H])C(=O)C([H])=C([H])C4(C([H])([H])[H])C3([H])C([H])([H])C([H])([H])C21C([H])([H])[H])C1=C([H])C([H])([H])C2([H])C3=C([H])C([H])(C([H])([H])[H])C1([H])C2(C([H])([H])[H])C([H])([H])C([H])([H])C(=O)C3([H])[H]

$$$$
67:0:2
     RDKit          3D

 86 93  0  0  1  0  0  0  0  0999 V2000
    4.7345   -4.9844    3.5033 C   0  0  0  0  0  0  0  0  0  0  0  0
    4.9603   -4.7524    2.0030 C   0  0  2  0  0  0  0  0  0  0  0  0
    6.0787   -3.7441    1.8049 C   0  0  0  0  0  0  0  0  0  0  0  0
    5.9312   -2.6207    1.0732 C   0  0  0  0  0  0  0  0  0  0  0  0
    7.0994   -2.0553    0.3044 C   0  0  0  0  0  0  0  0  0  0  0  0
    7.2557   -2.8898   -0.9850 C   0  0  0  0  0  0  0  0  0  0  0  0
    8.3604   -3.2776   -1.3468 O   0  0  0  0  0  0  0  0  0  0  0  0
    6.0049   -3.2637   -1.8140 C   0  0  0  0  0  0  0  0  0  0  0  0
    5.0094   -4.2054   -1.0942 C   0  0  0  0  0  0  0  0  0  0  0  0
    3.9895   -3.5356   -0.1019 C   0  0  2  0  0  0  0  0  0  0  0  0
    2.7006   -3.2338   -0.9021 C   0  0  0  0  0  0  0  0  0  0  0  0
    4.5640   -2.2355    0.5198 C   0  0  1  0  0  0  0  0  0  0  0  0
    3.6562   -1.5880    1.5910 C   0  0  0  0  0  0  0  0  0  0  0  0
    2.6454   -2.5359    2.2561 C   0  0  0  0  0  0  0  0  0  0  0  0
    2.6087   -3.8695    2.0353 C   0  0  0  0  0  0  0  0  0  0  0  0
    1.5881   -4.7118    2.6512 C   0  0  0  0  0  0  0  0  0  0  0  0
    1.5417   -6.0570    2.6116 C   0  0  0  0  0  0  0  0  0  0  0  0
    2.4547   -6.9193    2.0528 O   0  0  0  0  0  0  0  0  0  0  0  0
    1.5436   -8.0239    2.3505 C   0  0  2  0  0  0  0  0  0  0  0  0
    0.5911   -7.1303    3.1209 C   0  0  1  0  0  0  0  0  0  0  0  0
    0.5912   -7.3392    4.6411 C   0  0  0  0  0  0  0  0  0  0  0  0
    2.0170   -7.5885    5.1783 C   0  0  0  0  0  0  0  0  0  0  0  0
    2.8697   -8.6917    4.4712 C   0  0  2  0  0  0  0  0  0  0  0  0
    4.3881   -8.2797    4.3738 C   0  0  1  0  0  0  0  0  0  0  0  0
    4.9738   -7.6821    5.6908 C   0  0  0  0  0  0  0  0  0  0  0  0
    6.5133   -7.7175    5.7848 C   0  0  0  0  0  0  0  0  0  0  0  0
    7.1175   -7.6758    4.3858 C   0  0  0  0  0  0  0  0  0  0  0  0
    7.8323   -6.5973    3.9447 C   0  0  0  0  0  0  0  0  0  0  0  0
    8.2100   -6.4448    2.5401 C   0  0  0  0  0  0  0  0  0  0  0  0
    9.0007   -5.5862    2.1605 O   0  0  0  0  0  0  0  0  0  0  0  0
    7.5220   -7.3282    1.6022 C   0  0  0  0  0  0  0  0  0  0  0  0
    6.8303   -8.4175    2.0247 C   0  0  0  0  0  0  0  0  0  0  0  0
    6.7363   -8.8710    3.4872 C   0  0  1  0  0  0  0  0  0  0  0  0
    7.8098   -9.9582    3.6783 C   0  0  0  0  0  0  0  0  0  0  0  0
    5.3224   -9.4294    3.9051 C   0  0  2  0  0  0  0  0  0  0  0  0
    4.6183  -10.3481    2.8833 C   0  0  0  0  0  0  0  0  0  0  0  0
    3.4613   -9.6530    2.1458 C   0  0  0  0  0  0  0  0  0  0  0  0
    2.3160   -9.1576    3.0790 C   0  0  2  0  0  0  0  0  0  0  0  0
    1.3553  -10.3493    3.3113 C   0  0  0  0  0  0  0  0  0  0  0  0
    3.6846   -4.4707    1.1290 C   0  0  2  0  0  0  0  0  0  0  0  0
    5.6328   -5.3982    3.9492 H   0  0  0  0  0  0  0  0  0  0  0  0
    3.9591   -5.7127    3.6613 H   0  0  0  0  0  0  0  0  0  0  0  0
    4.5044   -4.0452    4.0302 H   0  0  0  0  0  0  0  0  0  0  0  0
    5.3387   -5.6682    1.5850 H   0  0  0  0  0  0  0  0  0  0  0  0
    7.0859   -4.0701    2.0350 H   0  0  0  0  0  0  0  0  0  0  0  0
    6.9512   -0.9954    0.0794 H   0  0  0  0  0  0  0  0  0  0  0  0
    8.0185   -2.1831    0.8834 H   0  0  0  0  0  0  0  0  0  0  0  0
    5.5038   -2.3611   -2.1694 H   0  0  0  0  0  0  0  0  0  0  0  0
    6.3684   -3.7950   -2.6965 H   0  0  0  0  0  0  0  0  0  0  0  0
    4.4539   -4.6985   -1.8771 H   0  0  0  0  0  0  0  0  0  0  0  0
    5.5686   -5.0019   -0.6021 H   0  0  0  0  0  0  0  0  0  0  0  0
    1.9855   -2.6870   -0.2964 H   0  0  0  0  0  0  0  0  0  0  0  0
    2.2233   -4.1611   -1.2228 H   0  0  0  0  0  0  0  0  0  0  0  0
    2.9167   -2.6270   -1.7844 H   0  0  0  0  0  0  0  0  0  0  0  0
    4.7128   -1.4840   -0.2676 H   0  0  0  0  0  0  0  0  0  0  0  0
    4.2557   -1.1134    2.3561 H   0  0  0  0  0  0  0  0  0  0  0  0
    3.0714   -0.8147    1.1071 H   0  0  0  0  0  0  0  0  0  0  0  0
    1.9170   -2.0692    2.9025 H   0  0  0  0  0  0  0  0  0  0  0  0
    0.7720   -4.2263    3.1516 H   0  0  0  0  0  0  0  0  0  0  0  0
    1.1085   -8.3634    1.4072 H   0  0  0  0  0  0  0  0  0  0  0  0
   -0.4104   -7.1448    2.6802 H   0  0  0  0  0  0  0  0  0  0  0  0
    0.1449   -6.4744    5.1485 H   0  0  0  0  0  0  0  0  0  0  0  0
   -0.0559   -8.1802    4.9174 H   0  0  0  0  0  0  0  0  0  0  0  0
    2.5519   -6.6381    5.1219 H   0  0  0  0  0  0  0  0  0  0  0  0
    1.9506   -7.8161    6.2370 H   0  0  0  0  0  0  0  0  0  0  0  0
    2.8473   -9.5587    5.1309 H   0  0  0  0  0  0  0  0  0  0  0  0
    4.4467   -7.5137    3.6035 H   0  0  0  0  0  0  0  0  0  0  0  0
    4.6540   -6.6517    5.7529 H   0  0  0  0  0  0  0  0  0  0  0  0
    4.5528   -8.1631    6.5619 H   0  0  0  0  0  0  0  0  0  0  0  0
    6.8742   -6.8826    6.3872 H   0  0  0  0  0  0  0  0  0  0  0  0
    6.8351   -8.6409    6.2708 H   0  0  0  0  0  0  0  0  0  0  0  0
    8.0699   -5.7903    4.6206 H   0  0  0  0  0  0  0  0  0  0  0  0
    7.5567   -7.0563    0.5612 H   0  0  0  0  0  0  0  0  0  0  0  0
    6.3198   -9.0228    1.2864 H   0  0  0  0  0  0  0  0  0  0  0  0
    8.8083   -9.5722    3.4317 H   0  0  0  0  0  0  0  0  0  0  0  0
    7.6064  -10.8211    3.0410 H   0  0  0  0  0  0  0  0  0  0  0  0
    7.8424  -10.2945    4.7198 H   0  0  0  0  0  0  0  0  0  0  0  0
    5.5058  -10.0665    4.7745 H   0  0  0  0  0  0  0  0  0  0  0  0
    5.3172  -10.7660    2.1614 H   0  0  0  0  0  0  0  0  0  0  0  0
    4.2243  -11.2281    3.4027 H   0  0  0  0  0  0  0  0  0  0  0  0
    3.8886   -8.8424    1.5609 H   0  0  0  0  0  0  0  0  0  0  0  0
    3.0448  -10.3248    1.4042 H   0  0  0  0  0  0  0  0  0  0  0  0
    1.8679  -11.2195    3.7352 H   0  0  0  0  0  0  0  0  0  0  0  0
    0.8730  -10.6632    2.3739 H   0  0  0  0  0  0  0  0  0  0  0  0
    0.5484  -10.0846    4.0033 H   0  0  0  0  0  0  0  0  0  0  0  0
    3.3128   -5.4007    0.6944 H   0  0  0  0  0  0  0  0  0  0  0  0
  1  2  1  0
  1 41  1  0
  1 42  1  0
  1 43  1  0
  2 40  1  0
  2  3  1  0
  2 44  1  6
  3  4  2  0
  3 45  1  0
  4 12  1  0
  4  5  1  0
  5  6  1  0
  5 46  1  0
  5 47  1  0
  6  7  2  0
  6  8  1  0
  8  9  1  0
  8 48  1  0
  8 49  1  0
  9 10  1  0
  9 50  1  0
  9 51  1  0
 10 40  1  0
 10 11  1  6
 10 12  1  0
 11 52  1  0
 11 53  1  0
 11 54  1  0
 12 13  1  0
 12 55  1  6
 13 14  1  0
 13 56  1  0
 13 57  1  0
 14 15  2  0
 14 58  1  0
 15 16  1  0
 15 40  1  0
 16 17  2  3
 16 59  1  0
 17 20  1  0
 17 18  1  0
 18 19  1  0
 19 38  1  0
 19 20  1  0
 19 60  1  6
 20 21  1  0
 20 61  1  6
 21 22  1  0
 21 62  1  0
 21 63  1  0
 22 23  1  0
 22 64  1  0
 22 65  1  0
 23 38  1  0
 23 24  1  0
 23 66  1  1
 24 35  1  0
 24 25  1  0
 24 67  1  6
 25 26  1  0
 25 68  1  0
 25 69  1  0
 26 27  1  0
 26 70  1  0
 26 71  1  0
 27 33  1  0
 27 28  2  0
 28 29  1  0
 28 72  1  0
 29 30  2  0
 29 31  1  0
 31 32  2  0
 31 73  1  0
 32 33  1  0
 32 74  1  0
 33 34  1  6
 33 35  1  0
 34 75  1  0
 34 76  1  0
 34 77  1  0
 35 36  1  0
 35 78  1  1
 36 37  1  0
 36 79  1  0
 36 80  1  0
 37 38  1  0
 37 81  1  0
 37 82  1  0
 38 39  1  1
 39 83  1  0
 39 84  1  0
 39 85  1  0
 40 86  1  6
M  END
>  <i_m_ct_stereo_status>  (247) 
1

>  <s_m_source_file>  (247) 
/var/tmp/pbs.5076255.sched01/tmptehp0e0j/84lnm28v0z.sdf

>  <i_m_source_file_index>  (247) 
16

>  <i_lp_mmshare_version>  (247) 
48012

>  <i_f3d_flags>  (247) 
0

>  <s_epik_input>  (247) 
W0NIMl0xW0NIMl1DKD1PKVtDSDJdQyhbQ0BIXTJbQ0BAXTEzW0NIM10pPVtDSF1bQ0BASF0oW0NIM10pW0NASF0zQyg9W0NIXVtDSDJdMikvW0NIXT1DKFxPNClbQ0BIXShbQ0gyXVtDSDJdNSlbQ0BASF00W0NAQF0oW0NIM10pKFtDSDJdW0NIMl1bQ0BIXTY3KVtDQEhdNVtDQEhdNltDSDJdW0NIMl1DKFtDQEBdNzhbQ0gzXSk9W0NIXUMoPU8pW0NIXT1bQ0hdOA==

>  <s_epik_cmdline>  (247) 
J2VwaWtfcHl0aG9uJywgJy1waHQnLCAnMi4wJywgJy1waCcsICc3LjAnLCAnLXRuJywgJzgnLCAnLW1hJywgJzIwMCcsICctaW1hZScsICc8aW5maWxlLm1hZT4nLCAnLW9tYWUnLCAnPG91dGZpbGUubWFlPic=

>  <r_lp_tautomer_probability>  (247) 
1

>  <r_epik_Ionization_Penalty>  (247) 
3.12714e-13

>  <r_epik_Ionization_Penalty_Charging>  (247) 
0

>  <r_epik_Ionization_Penalty_Neutral>  (247) 
3.12714e-13

>  <r_epik_State_Penalty>  (247) 
-0

>  <r_epik_Charging_Adjusted_Penalty>  (247) 
0

>  <i_epik_Tot_Q>  (247) 
0

>  <i_epik_Tot_abs_Q>  (247) 
0

>  <s_lp_Force_Field>  (247) 
OPLS3e

>  <r_lp_Energy>  (247) 
106.681

>  <b_lp_Chiralities_Consistent>  (247) 
1

>  <s_lp_Variant>  (247) 
67:0-1

>  <s_i_glide_gridfile>  (247) 
pfpi4k_grid

>  <i_i_glide_lignum>  (247) 
16

>  <i_i_glide_rotatable_bonds>  (247) 
1

>  <r_i_docking_score>  (247) 
-2.35754

>  <r_i_glide_ligand_efficiency>  (247) 
-0.0589386

>  <r_i_glide_ligand_efficiency_sa>  (247) 
-0.201567

>  <r_i_glide_ligand_efficiency_ln>  (247) 
-0.502795

>  <r_i_glide_gscore>  (247) 
-2.35754

>  <r_i_glide_lipo>  (247) 
-0.656993

>  <r_i_glide_hbond>  (247) 
0

>  <r_i_glide_metal>  (247) 
-0

>  <r_i_glide_rewards>  (247) 
0

>  <r_i_glide_evdw>  (247) 
-35.625

>  <r_i_glide_ecoul>  (247) 
0.291678

>  <r_i_glide_erotb>  (247) 
0.0711925

>  <r_i_glide_esite>  (247) 
-0.0342442

>  <r_i_glide_emodel>  (247) 
-38.0761

>  <r_i_glide_energy>  (247) 
-35.3333

>  <r_i_glide_einternal>  (247) 
1.04744

>  <r_i_glide_intrahb_reward>  (247) 
-0

>  <i_i_glide_confnum>  (247) 
5

>  <i_i_glide_posenum>  (247) 
26

>  <r_i_glide_eff_state_penalty>  (247) 
0

>  <ligand_id>  (247) 
67

>  <original_smiles>  (247) 
CC1C=C2CC(=O)CCC3(C)C2CC=C(C=C2OC4C2CCC2C5CCC6=CC(=O)C=CC6(C)C5CCC24C)C13

>  <smiles>  (247) 
[H]C(=C1OC2([H])C1([H])C([H])([H])C([H])([H])C1([H])C3([H])C([H])([H])C([H])([H])C4=C([H])C(=O)C([H])=C([H])C4(C([H])([H])[H])C3([H])C([H])([H])C([H])([H])C21C([H])([H])[H])C1=C([H])C([H])([H])C2([H])C3=C([H])C([H])(C([H])([H])[H])C1([H])C2(C([H])([H])[H])C([H])([H])C([H])([H])C(=O)C3([H])[H]

$$$$
67:1:0
     RDKit          3D

 86 93  0  0  1  0  0  0  0  0999 V2000
    0.9810   -0.8843    3.0866 C   0  0  0  0  0  0  0  0  0  0  0  0
    0.1411    0.2070    3.7772 C   0  0  2  0  0  0  0  0  0  0  0  0
    0.6509    1.5951    3.4174 C   0  0  0  0  0  0  0  0  0  0  0  0
    0.9163    2.5390    4.3418 C   0  0  0  0  0  0  0  0  0  0  0  0
    0.7091    3.9950    4.0082 C   0  0  0  0  0  0  0  0  0  0  0  0
   -0.8040    4.2609    4.1347 C   0  0  0  0  0  0  0  0  0  0  0  0
   -1.3983    4.9380    3.2949 O   0  0  0  0  0  0  0  0  0  0  0  0
   -1.5927    3.7052    5.3440 C   0  0  0  0  0  0  0  0  0  0  0  0
   -1.6806    2.1502    5.4335 C   0  0  0  0  0  0  0  0  0  0  0  0
   -0.4309    1.4026    6.0410 C   0  0  2  0  0  0  0  0  0  0  0  0
   -0.7114    1.2265    7.5567 C   0  0  0  0  0  0  0  0  0  0  0  0
    0.8548    2.2261    5.8281 C   0  0  1  0  0  0  0  0  0  0  0  0
    2.1443    1.5487    6.3612 C   0  0  0  0  0  0  0  0  0  0  0  0
    2.0824    0.0351    6.4255 C   0  0  0  0  0  0  0  0  0  0  0  0
    1.0533   -0.6944    5.9635 C   0  0  0  0  0  0  0  0  0  0  0  0
    1.0546   -2.1502    6.0723 C   0  0  0  0  0  0  0  0  0  0  0  0
    2.0809   -3.0214    6.1266 C   0  0  0  0  0  0  0  0  0  0  0  0
    1.9960   -4.3988    6.2721 O   0  0  0  0  0  0  0  0  0  0  0  0
    3.4194   -4.4044    6.5668 C   0  0  2  0  0  0  0  0  0  0  0  0
    3.5937   -2.9430    6.1609 C   0  0  1  0  0  0  0  0  0  0  0  0
    4.2607   -2.7023    4.8116 C   0  0  0  0  0  0  0  0  0  0  0  0
    3.8762   -3.7855    3.7864 C   0  0  0  0  0  0  0  0  0  0  0  0
    4.0739   -5.2732    4.2243 C   0  0  2  0  0  0  0  0  0  0  0  0
    2.9948   -6.1976    3.5816 C   0  0  1  0  0  0  0  0  0  0  0  0
    2.7830   -5.9462    2.0618 C   0  0  0  0  0  0  0  0  0  0  0  0
    2.1472   -7.1329    1.3139 C   0  0  0  0  0  0  0  0  0  0  0  0
    1.2732   -7.9428    2.2469 C   0  0  0  0  0  0  0  0  0  0  0  0
   -0.0703   -7.9420    2.1047 C   0  0  0  0  0  0  0  0  0  0  0  0
   -0.9434   -8.5000    3.1421 C   0  0  0  0  0  0  0  0  0  0  0  0
   -2.1456   -8.6510    2.9417 O   0  0  0  0  0  0  0  0  0  0  0  0
   -0.3150   -8.7874    4.4422 C   0  0  0  0  0  0  0  0  0  0  0  0
    1.0277   -8.8004    4.5789 C   0  0  0  0  0  0  0  0  0  0  0  0
    2.0190   -8.5909    3.4291 C   0  0  1  0  0  0  0  0  0  0  0  0
    2.4939   -9.9934    2.9811 C   0  0  0  0  0  0  0  0  0  0  0  0
    3.2644   -7.7087    3.8203 C   0  0  2  0  0  0  0  0  0  0  0  0
    3.9194   -7.9934    5.1926 C   0  0  0  0  0  0  0  0  0  0  0  0
    3.6358   -6.8827    6.2107 C   0  0  0  0  0  0  0  0  0  0  0  0
    4.1798   -5.4935    5.7801 C   0  0  2  0  0  0  0  0  0  0  0  0
    5.6859   -5.4403    6.1704 C   0  0  0  0  0  0  0  0  0  0  0  0
   -0.1341    0.0321    5.3159 C   0  0  2  0  0  0  0  0  0  0  0  0
    0.9471   -0.7612    2.0022 H   0  0  0  0  0  0  0  0  0  0  0  0
    0.5955   -1.8813    3.3059 H   0  0  0  0  0  0  0  0  0  0  0  0
    2.0298   -0.8464    3.3871 H   0  0  0  0  0  0  0  0  0  0  0  0
   -0.8379    0.1645    3.3035 H   0  0  0  0  0  0  0  0  0  0  0  0
    0.5325    1.8867    2.3819 H   0  0  0  0  0  0  0  0  0  0  0  0
    1.2798    4.6493    4.6663 H   0  0  0  0  0  0  0  0  0  0  0  0
    1.0206    4.1885    2.9812 H   0  0  0  0  0  0  0  0  0  0  0  0
   -1.2044    4.1379    6.2668 H   0  0  0  0  0  0  0  0  0  0  0  0
   -2.6089    4.0899    5.2391 H   0  0  0  0  0  0  0  0  0  0  0  0
   -2.5748    1.8944    6.0040 H   0  0  0  0  0  0  0  0  0  0  0  0
   -1.9073    1.7862    4.4317 H   0  0  0  0  0  0  0  0  0  0  0  0
    0.1297    0.7981    8.1018 H   0  0  0  0  0  0  0  0  0  0  0  0
   -1.5639    0.5709    7.7213 H   0  0  0  0  0  0  0  0  0  0  0  0
   -0.9367    2.1832    8.0335 H   0  0  0  0  0  0  0  0  0  0  0  0
    0.7857    3.1689    6.3730 H   0  0  0  0  0  0  0  0  0  0  0  0
    3.0106    1.8404    5.7697 H   0  0  0  0  0  0  0  0  0  0  0  0
    2.3303    1.8888    7.3791 H   0  0  0  0  0  0  0  0  0  0  0  0
    2.9271   -0.4415    6.9009 H   0  0  0  0  0  0  0  0  0  0  0  0
    0.0838   -2.6089    6.1363 H   0  0  0  0  0  0  0  0  0  0  0  0
    3.5378   -4.5171    7.6463 H   0  0  0  0  0  0  0  0  0  0  0  0
    4.0189   -2.3656    6.9807 H   0  0  0  0  0  0  0  0  0  0  0  0
    4.0223   -1.7121    4.4263 H   0  0  0  0  0  0  0  0  0  0  0  0
    5.3412   -2.6974    4.9399 H   0  0  0  0  0  0  0  0  0  0  0  0
    2.8300   -3.6231    3.5287 H   0  0  0  0  0  0  0  0  0  0  0  0
    4.4337   -3.6083    2.8685 H   0  0  0  0  0  0  0  0  0  0  0  0
    5.0208   -5.5973    3.7861 H   0  0  0  0  0  0  0  0  0  0  0  0
    2.0530   -5.9644    4.0783 H   0  0  0  0  0  0  0  0  0  0  0  0
    2.1266   -5.0845    1.9434 H   0  0  0  0  0  0  0  0  0  0  0  0
    3.7183   -5.6819    1.5686 H   0  0  0  0  0  0  0  0  0  0  0  0
    1.5679   -6.7742    0.4636 H   0  0  0  0  0  0  0  0  0  0  0  0
    2.9310   -7.7893    0.9297 H   0  0  0  0  0  0  0  0  0  0  0  0
   -0.5447   -7.4585    1.2661 H   0  0  0  0  0  0  0  0  0  0  0  0
   -0.9613   -8.9876    5.2830 H   0  0  0  0  0  0  0  0  0  0  0  0
    1.4428   -9.0139    5.5517 H   0  0  0  0  0  0  0  0  0  0  0  0
    1.6489  -10.6209    2.6852 H   0  0  0  0  0  0  0  0  0  0  0  0
    3.0146  -10.5192    3.7818 H   0  0  0  0  0  0  0  0  0  0  0  0
    3.1666   -9.9522    2.1218 H   0  0  0  0  0  0  0  0  0  0  0  0
    4.0449   -7.9733    3.1046 H   0  0  0  0  0  0  0  0  0  0  0  0
    3.6122   -8.9588    5.5915 H   0  0  0  0  0  0  0  0  0  0  0  0
    4.9988   -8.0928    5.0645 H   0  0  0  0  0  0  0  0  0  0  0  0
    2.5609   -6.8413    6.3696 H   0  0  0  0  0  0  0  0  0  0  0  0
    4.0556   -7.1616    7.1735 H   0  0  0  0  0  0  0  0  0  0  0  0
    6.2601   -6.2375    5.6907 H   0  0  0  0  0  0  0  0  0  0  0  0
    5.8320   -5.5450    7.2489 H   0  0  0  0  0  0  0  0  0  0  0  0
    6.1630   -4.5036    5.8791 H   0  0  0  0  0  0  0  0  0  0  0  0
   -1.0119   -0.6055    5.4329 H   0  0  0  0  0  0  0  0  0  0  0  0
  1  2  1  0
  1 41  1  0
  1 42  1  0
  1 43  1  0
  2 40  1  0
  2  3  1  0
  2 44  1  6
  3  4  2  0
  3 45  1  0
  4 12  1  0
  4  5  1  0
  5  6  1  0
  5 46  1  0
  5 47  1  0
  6  7  2  0
  6  8  1  0
  8  9  1  0
  8 48  1  0
  8 49  1  0
  9 10  1  0
  9 50  1  0
  9 51  1  0
 10 40  1  0
 10 11  1  1
 10 12  1  0
 11 52  1  0
 11 53  1  0
 11 54  1  0
 12 13  1  0
 12 55  1  1
 13 14  1  0
 13 56  1  0
 13 57  1  0
 14 15  2  0
 14 58  1  0
 15 16  1  0
 15 40  1  0
 16 17  2  3
 16 59  1  0
 17 20  1  0
 17 18  1  0
 18 19  1  0
 19 38  1  0
 19 20  1  0
 19 60  1  1
 20 21  1  0
 20 61  1  1
 21 22  1  0
 21 62  1  0
 21 63  1  0
 22 23  1  0
 22 64  1  0
 22 65  1  0
 23 38  1  0
 23 24  1  0
 23 66  1  6
 24 35  1  0
 24 25  1  0
 24 67  1  1
 25 26  1  0
 25 68  1  0
 25 69  1  0
 26 27  1  0
 26 70  1  0
 26 71  1  0
 27 33  1  0
 27 28  2  0
 28 29  1  0
 28 72  1  0
 29 30  2  0
 29 31  1  0
 31 32  2  0
 31 73  1  0
 32 33  1  0
 32 74  1  0
 33 34  1  6
 33 35  1  0
 34 75  1  0
 34 76  1  0
 34 77  1  0
 35 36  1  0
 35 78  1  6
 36 37  1  0
 36 79  1  0
 36 80  1  0
 37 38  1  0
 37 81  1  0
 37 82  1  0
 38 39  1  1
 39 83  1  0
 39 84  1  0
 39 85  1  0
 40 86  1  6
M  END
>  <i_m_ct_stereo_status>  (248) 
1

>  <s_m_source_file>  (248) 
/var/tmp/pbs.5076255.sched01/tmptehp0e0j/84lnm28v0z.sdf

>  <i_m_source_file_index>  (248) 
17

>  <i_lp_mmshare_version>  (248) 
48012

>  <i_f3d_flags>  (248) 
0

>  <s_epik_input>  (248) 
W0NIMl0xW0NIMl1DKD1PKVtDSDJdQyhbQ0BIXTJbQ0BAXTEzW0NIM10pPVtDSF1bQ0BASF0oW0NIM10pW0NASF0zQyg9W0NIXVtDSDJdMikvW0NIXT1DKFxPNClbQ0BIXShbQ0gyXVtDSDJdNSlbQ0BASF00W0NAQF0oW0NIM10pKFtDSDJdW0NIMl1bQ0BIXTY3KVtDQEhdNVtDQEhdNltDSDJdW0NIMl1DKFtDQEBdNzhbQ0gzXSk9W0NIXUMoPU8pW0NIXT1bQ0hdOA==

>  <s_epik_cmdline>  (248) 
J2VwaWtfcHl0aG9uJywgJy1waHQnLCAnMi4wJywgJy1waCcsICc3LjAnLCAnLXRuJywgJzgnLCAnLW1hJywgJzIwMCcsICctaW1hZScsICc8aW5maWxlLm1hZT4nLCAnLW9tYWUnLCAnPG91dGZpbGUubWFlPic=

>  <r_lp_tautomer_probability>  (248) 
1

>  <r_epik_Ionization_Penalty>  (248) 
3.12714e-13

>  <r_epik_Ionization_Penalty_Charging>  (248) 
0

>  <r_epik_Ionization_Penalty_Neutral>  (248) 
3.12714e-13

>  <r_epik_State_Penalty>  (248) 
-0

>  <r_epik_Charging_Adjusted_Penalty>  (248) 
0

>  <i_epik_Tot_Q>  (248) 
0

>  <i_epik_Tot_abs_Q>  (248) 
0

>  <s_lp_Force_Field>  (248) 
OPLS3e

>  <r_lp_Energy>  (248) 
109.259

>  <b_lp_Chiralities_Consistent>  (248) 
1

>  <s_lp_Variant>  (248) 
67:0-2

>  <s_i_glide_gridfile>  (248) 
pfpi4k_grid

>  <i_i_glide_lignum>  (248) 
17

>  <i_i_glide_rotatable_bonds>  (248) 
1

>  <r_i_docking_score>  (248) 
-2.08895

>  <r_i_glide_ligand_efficiency>  (248) 
-0.0522238

>  <r_i_glide_ligand_efficiency_sa>  (248) 
-0.178603

>  <r_i_glide_ligand_efficiency_ln>  (248) 
-0.445512

>  <r_i_glide_gscore>  (248) 
-2.08895

>  <r_i_glide_lipo>  (248) 
-0.00523738

>  <r_i_glide_hbond>  (248) 
-0.16

>  <r_i_glide_metal>  (248) 
-0

>  <r_i_glide_rewards>  (248) 
0

>  <r_i_glide_evdw>  (248) 
-30.0642

>  <r_i_glide_ecoul>  (248) 
-2.39626

>  <r_i_glide_erotb>  (248) 
0.0711925

>  <r_i_glide_esite>  (248) 
-0.13226

>  <r_i_glide_emodel>  (248) 
-35.9116

>  <r_i_glide_energy>  (248) 
-32.4604

>  <r_i_glide_einternal>  (248) 
1.77846

>  <r_i_glide_intrahb_reward>  (248) 
-0

>  <i_i_glide_confnum>  (248) 
3

>  <i_i_glide_posenum>  (248) 
6

>  <r_i_glide_eff_state_penalty>  (248) 
0

>  <ligand_id>  (248) 
67

>  <original_smiles>  (248) 
CC1C=C2CC(=O)CCC3(C)C2CC=C(C=C2OC4C2CCC2C5CCC6=CC(=O)C=CC6(C)C5CCC24C)C13

>  <smiles>  (248) 
[H]C(=C1OC2([H])C1([H])C([H])([H])C([H])([H])C1([H])C3([H])C([H])([H])C([H])([H])C4=C([H])C(=O)C([H])=C([H])C4(C([H])([H])[H])C3([H])C([H])([H])C([H])([H])C21C([H])([H])[H])C1=C([H])C([H])([H])C2([H])C3=C([H])C([H])(C([H])([H])[H])C1([H])C2(C([H])([H])[H])C([H])([H])C([H])([H])C(=O)C3([H])[H]

$$$$
67:1:1
     RDKit          3D

 86 93  0  0  1  0  0  0  0  0999 V2000
    0.5589    0.5885    7.3877 C   0  0  0  0  0  0  0  0  0  0  0  0
    1.1399    1.2846    6.1297 C   0  0  2  0  0  0  0  0  0  0  0  0
    0.7954    2.7635    6.1467 C   0  0  0  0  0  0  0  0  0  0  0  0
    0.2250    3.3935    5.0978 C   0  0  0  0  0  0  0  0  0  0  0  0
    0.5293    4.8452    4.8363 C   0  0  0  0  0  0  0  0  0  0  0  0
    1.9105    4.9069    4.1436 C   0  0  0  0  0  0  0  0  0  0  0  0
    2.7370    5.7518    4.4927 O   0  0  0  0  0  0  0  0  0  0  0  0
    2.2606    3.9048    3.0141 C   0  0  0  0  0  0  0  0  0  0  0  0
    2.2905    2.4010    3.4170 C   0  0  0  0  0  0  0  0  0  0  0  0
    0.9089    1.6553    3.5203 C   0  0  2  0  0  0  0  0  0  0  0  0
    0.6633    0.9670    2.1477 C   0  0  0  0  0  0  0  0  0  0  0  0
   -0.2393    2.6237    3.8611 C   0  0  1  0  0  0  0  0  0  0  0  0
   -1.6216    1.9254    4.0458 C   0  0  0  0  0  0  0  0  0  0  0  0
   -1.5502    0.4547    4.4688 C   0  0  0  0  0  0  0  0  0  0  0  0
   -0.3845   -0.1805    4.7501 C   0  0  0  0  0  0  0  0  0  0  0  0
   -0.3340   -1.5940    5.0784 C   0  0  0  0  0  0  0  0  0  0  0  0
    0.7175   -2.3452    5.4968 C   0  0  0  0  0  0  0  0  0  0  0  0
    0.6781   -3.6702    5.8610 O   0  0  0  0  0  0  0  0  0  0  0  0
    1.9668   -3.4930    6.5107 C   0  0  2  0  0  0  0  0  0  0  0  0
    2.1818   -2.1153    5.8899 C   0  0  1  0  0  0  0  0  0  0  0  0
    3.2093   -2.0626    4.7565 C   0  0  0  0  0  0  0  0  0  0  0  0
    3.1410   -3.3088    3.8826 C   0  0  0  0  0  0  0  0  0  0  0  0
    3.2851   -4.6647    4.6318 C   0  0  2  0  0  0  0  0  0  0  0  0
    2.4683   -5.7746    3.9156 C   0  0  1  0  0  0  0  0  0  0  0  0
    2.6612   -5.7894    2.3720 C   0  0  0  0  0  0  0  0  0  0  0  0
    2.3313   -7.1416    1.7089 C   0  0  0  0  0  0  0  0  0  0  0  0
    1.2776   -7.8743    2.5248 C   0  0  0  0  0  0  0  0  0  0  0  0
    0.0235   -8.0333    2.0543 C   0  0  0  0  0  0  0  0  0  0  0  0
   -1.0556   -8.5160    2.9246 C   0  0  0  0  0  0  0  0  0  0  0  0
   -2.1508   -8.8383    2.4686 O   0  0  0  0  0  0  0  0  0  0  0  0
   -0.7837   -8.5236    4.3642 C   0  0  0  0  0  0  0  0  0  0  0  0
    0.4680   -8.3705    4.8373 C   0  0  0  0  0  0  0  0  0  0  0  0
    1.7187   -8.2431    3.9567 C   0  0  1  0  0  0  0  0  0  0  0  0
    2.3803   -9.6382    3.9069 C   0  0  0  0  0  0  0  0  0  0  0  0
    2.7537   -7.1873    4.4860 C   0  0  2  0  0  0  0  0  0  0  0  0
    3.0275   -7.1800    6.0087 C   0  0  0  0  0  0  0  0  0  0  0  0
    2.4135   -5.9613    6.7053 C   0  0  0  0  0  0  0  0  0  0  0  0
    2.9721   -4.6113    6.1763 C   0  0  2  0  0  0  0  0  0  0  0  0
    4.3031   -4.3339    6.9307 C   0  0  0  0  0  0  0  0  0  0  0  0
    0.8953    0.6348    4.7133 C   0  0  2  0  0  0  0  0  0  0  0  0
    0.9798    1.0367    8.2894 H   0  0  0  0  0  0  0  0  0  0  0  0
    0.7863   -0.4714    7.4457 H   0  0  0  0  0  0  0  0  0  0  0  0
   -0.5260    0.6981    7.4443 H   0  0  0  0  0  0  0  0  0  0  0  0
    2.2161    1.2632    6.2367 H   0  0  0  0  0  0  0  0  0  0  0  0
    1.2675    3.3471    6.9299 H   0  0  0  0  0  0  0  0  0  0  0  0
   -0.2409    5.3131    4.2197 H   0  0  0  0  0  0  0  0  0  0  0  0
    0.5857    5.3699    5.7914 H   0  0  0  0  0  0  0  0  0  0  0  0
    1.5862    4.0553    2.1739 H   0  0  0  0  0  0  0  0  0  0  0  0
    3.2519    4.1838    2.6475 H   0  0  0  0  0  0  0  0  0  0  0  0
    2.9300    1.8750    2.7087 H   0  0  0  0  0  0  0  0  0  0  0  0
    2.8466    2.3278    4.3494 H   0  0  0  0  0  0  0  0  0  0  0  0
   -0.3066    0.4773    2.0717 H   0  0  0  0  0  0  0  0  0  0  0  0
    1.4166    0.2025    1.9478 H   0  0  0  0  0  0  0  0  0  0  0  0
    0.7099    1.6849    1.3297 H   0  0  0  0  0  0  0  0  0  0  0  0
   -0.3649    3.3370    3.0370 H   0  0  0  0  0  0  0  0  0  0  0  0
   -2.2430    2.4844    4.7464 H   0  0  0  0  0  0  0  0  0  0  0  0
   -2.1399    1.9474    3.0845 H   0  0  0  0  0  0  0  0  0  0  0  0
   -2.4934   -0.0778    4.4862 H   0  0  0  0  0  0  0  0  0  0  0  0
   -1.2554   -2.1382    4.9715 H   0  0  0  0  0  0  0  0  0  0  0  0
    1.7960   -3.4037    7.5842 H   0  0  0  0  0  0  0  0  0  0  0  0
    2.3964   -1.4090    6.6770 H   0  0  0  0  0  0  0  0  0  0  0  0
    3.1336   -1.2103    4.1026 H   0  0  0  0  0  0  0  0  0  0  0  0
    4.2099   -1.9691    5.1823 H   0  0  0  0  0  0  0  0  0  0  0  0
    2.1813   -3.2830    3.3657 H   0  0  0  0  0  0  0  0  0  0  0  0
    3.9053   -3.2365    3.1138 H   0  0  0  0  0  0  0  0  0  0  0  0
    4.3338   -4.9540    4.5255 H   0  0  0  0  0  0  0  0  0  0  0  0
    1.4144   -5.5572    4.1037 H   0  0  0  0  0  0  0  0  0  0  0  0
    2.0115   -5.0310    1.9390 H   0  0  0  0  0  0  0  0  0  0  0  0
    3.6774   -5.4993    2.1006 H   0  0  0  0  0  0  0  0  0  0  0  0
    1.9892   -6.9871    0.6872 H   0  0  0  0  0  0  0  0  0  0  0  0
    3.2251   -7.7642    1.6685 H   0  0  0  0  0  0  0  0  0  0  0  0
   -0.2382   -7.7449    1.0479 H   0  0  0  0  0  0  0  0  0  0  0  0
   -1.6210   -8.6617    5.0325 H   0  0  0  0  0  0  0  0  0  0  0  0
    0.6222   -8.3841    5.9057 H   0  0  0  0  0  0  0  0  0  0  0  0
    1.6884  -10.3898    3.5225 H   0  0  0  0  0  0  0  0  0  0  0  0
    2.6966   -9.9689    4.8950 H   0  0  0  0  0  0  0  0  0  0  0  0
    3.2563   -9.6547    3.2554 H   0  0  0  0  0  0  0  0  0  0  0  0
    3.7116   -7.4709    4.0520 H   0  0  0  0  0  0  0  0  0  0  0  0
    2.6881   -8.0953    6.4853 H   0  0  0  0  0  0  0  0  0  0  0  0
    4.1085   -7.1759    6.1797 H   0  0  0  0  0  0  0  0  0  0  0  0
    1.3330   -6.0097    6.5731 H   0  0  0  0  0  0  0  0  0  0  0  0
    2.5761   -6.0353    7.7781 H   0  0  0  0  0  0  0  0  0  0  0  0
    5.0386   -5.1243    6.7677 H   0  0  0  0  0  0  0  0  0  0  0  0
    4.1567   -4.2435    8.0121 H   0  0  0  0  0  0  0  0  0  0  0  0
    4.7836   -3.4105    6.6131 H   0  0  0  0  0  0  0  0  0  0  0  0
    1.6747   -0.0408    4.4922 H   0  0  0  0  0  0  0  0  0  0  0  0
  1  2  1  0
  1 41  1  0
  1 42  1  0
  1 43  1  0
  2 40  1  0
  2  3  1  0
  2 44  1  1
  3  4  2  0
  3 45  1  0
  4 12  1  0
  4  5  1  0
  5  6  1  0
  5 46  1  0
  5 47  1  0
  6  7  2  0
  6  8  1  0
  8  9  1  0
  8 48  1  0
  8 49  1  0
  9 10  1  0
  9 50  1  0
  9 51  1  0
 10 40  1  0
 10 11  1  6
 10 12  1  0
 11 52  1  0
 11 53  1  0
 11 54  1  0
 12 13  1  0
 12 55  1  6
 13 14  1  0
 13 56  1  0
 13 57  1  0
 14 15  2  0
 14 58  1  0
 15 16  1  0
 15 40  1  0
 16 17  2  3
 16 59  1  0
 17 20  1  0
 17 18  1  0
 18 19  1  0
 19 38  1  0
 19 20  1  0
 19 60  1  1
 20 21  1  0
 20 61  1  1
 21 22  1  0
 21 62  1  0
 21 63  1  0
 22 23  1  0
 22 64  1  0
 22 65  1  0
 23 38  1  0
 23 24  1  0
 23 66  1  1
 24 35  1  0
 24 25  1  0
 24 67  1  6
 25 26  1  0
 25 68  1  0
 25 69  1  0
 26 27  1  0
 26 70  1  0
 26 71  1  0
 27 33  1  0
 27 28  2  0
 28 29  1  0
 28 72  1  0
 29 30  2  0
 29 31  1  0
 31 32  2  0
 31 73  1  0
 32 33  1  0
 32 74  1  0
 33 34  1  6
 33 35  1  0
 34 75  1  0
 34 76  1  0
 34 77  1  0
 35 36  1  0
 35 78  1  6
 36 37  1  0
 36 79  1  0
 36 80  1  0
 37 38  1  0
 37 81  1  0
 37 82  1  0
 38 39  1  1
 39 83  1  0
 39 84  1  0
 39 85  1  0
 40 86  1  6
M  END
>  <i_m_ct_stereo_status>  (249) 
1

>  <s_m_source_file>  (249) 
/var/tmp/pbs.5076255.sched01/tmptehp0e0j/84lnm28v0z.sdf

>  <i_m_source_file_index>  (249) 
17

>  <i_lp_mmshare_version>  (249) 
48012

>  <i_f3d_flags>  (249) 
0

>  <s_epik_input>  (249) 
W0NIMl0xW0NIMl1DKD1PKVtDSDJdQyhbQ0BIXTJbQ0BAXTEzW0NIM10pPVtDSF1bQ0BASF0oW0NIM10pW0NASF0zQyg9W0NIXVtDSDJdMikvW0NIXT1DKFxPNClbQ0BIXShbQ0gyXVtDSDJdNSlbQ0BASF00W0NAQF0oW0NIM10pKFtDSDJdW0NIMl1bQ0BIXTY3KVtDQEhdNVtDQEhdNltDSDJdW0NIMl1DKFtDQEBdNzhbQ0gzXSk9W0NIXUMoPU8pW0NIXT1bQ0hdOA==

>  <s_epik_cmdline>  (249) 
J2VwaWtfcHl0aG9uJywgJy1waHQnLCAnMi4wJywgJy1waCcsICc3LjAnLCAnLXRuJywgJzgnLCAnLW1hJywgJzIwMCcsICctaW1hZScsICc8aW5maWxlLm1hZT4nLCAnLW9tYWUnLCAnPG91dGZpbGUubWFlPic=

>  <r_lp_tautomer_probability>  (249) 
1

>  <r_epik_Ionization_Penalty>  (249) 
3.12714e-13

>  <r_epik_Ionization_Penalty_Charging>  (249) 
0

>  <r_epik_Ionization_Penalty_Neutral>  (249) 
3.12714e-13

>  <r_epik_State_Penalty>  (249) 
-0

>  <r_epik_Charging_Adjusted_Penalty>  (249) 
0

>  <i_epik_Tot_Q>  (249) 
0

>  <i_epik_Tot_abs_Q>  (249) 
0

>  <s_lp_Force_Field>  (249) 
OPLS3e

>  <r_lp_Energy>  (249) 
109.259

>  <b_lp_Chiralities_Consistent>  (249) 
1

>  <s_lp_Variant>  (249) 
67:0-2

>  <s_i_glide_gridfile>  (249) 
pfpi4k_grid

>  <i_i_glide_lignum>  (249) 
17

>  <i_i_glide_rotatable_bonds>  (249) 
1

>  <r_i_docking_score>  (249) 
-1.8791

>  <r_i_glide_ligand_efficiency>  (249) 
-0.0469775

>  <r_i_glide_ligand_efficiency_sa>  (249) 
-0.160661

>  <r_i_glide_ligand_efficiency_ln>  (249) 
-0.400757

>  <r_i_glide_gscore>  (249) 
-1.8791

>  <r_i_glide_lipo>  (249) 
0

>  <r_i_glide_hbond>  (249) 
0

>  <r_i_glide_metal>  (249) 
-0

>  <r_i_glide_rewards>  (249) 
0

>  <r_i_glide_evdw>  (249) 
-33.5407

>  <r_i_glide_ecoul>  (249) 
-1.367

>  <r_i_glide_erotb>  (249) 
0.0711925

>  <r_i_glide_esite>  (249) 
-0.0682077

>  <r_i_glide_emodel>  (249) 
-37.8691

>  <r_i_glide_energy>  (249) 
-34.9077

>  <r_i_glide_einternal>  (249) 
0.0087849

>  <r_i_glide_intrahb_reward>  (249) 
-0

>  <i_i_glide_confnum>  (249) 
3

>  <i_i_glide_posenum>  (249) 
21

>  <r_i_glide_eff_state_penalty>  (249) 
0

>  <ligand_id>  (249) 
67

>  <original_smiles>  (249) 
CC1C=C2CC(=O)CCC3(C)C2CC=C(C=C2OC4C2CCC2C5CCC6=CC(=O)C=CC6(C)C5CCC24C)C13

>  <smiles>  (249) 
[H]C(=C1OC2([H])C1([H])C([H])([H])C([H])([H])C1([H])C3([H])C([H])([H])C([H])([H])C4=C([H])C(=O)C([H])=C([H])C4(C([H])([H])[H])C3([H])C([H])([H])C([H])([H])C21C([H])([H])[H])C1=C([H])C([H])([H])C2([H])C3=C([H])C([H])(C([H])([H])[H])C1([H])C2(C([H])([H])[H])C([H])([H])C([H])([H])C(=O)C3([H])[H]

$$$$
68:0:0
     RDKit          3D

 51 57  0  0  1  0  0  0  0  0999 V2000
    5.2607   -1.1351    2.8581 C   0  0  0  0  0  0  0  0  0  0  0  0
    4.6807   -1.0132    1.6192 C   0  0  0  0  0  0  0  0  0  0  0  0
    5.1161   -1.6863    0.4014 C   0  0  0  0  0  0  0  0  0  0  0  0
    6.3262   -2.2214    0.2556 C   0  0  0  0  0  0  0  0  0  0  0  0
    6.7566   -3.0687    1.2203 N   0  0  0  0  0  0  0  0  0  0  0  0
    6.4128   -4.1891    0.3276 C   0  0  2  0  0  0  0  0  0  0  0  0
    7.3069   -5.3353    0.7868 C   0  0  0  0  0  0  0  0  0  0  0  0
    6.9497   -5.7477    2.2524 C   0  0  0  0  0  0  0  0  0  0  0  0
    5.4237   -5.8451    2.6016 C   0  0  1  0  0  0  0  0  0  0  0  0
    4.8692   -4.9243    3.7447 C   0  0  1  0  0  0  0  0  0  0  0  0
    4.7068   -3.4901    3.2544 C   0  0  0  0  0  0  0  0  0  0  0  0
    5.2462   -2.3409    3.6827 C   0  0  0  0  0  0  0  0  0  0  0  0
    3.4808   -5.4773    4.1081 C   0  0  0  0  0  0  0  0  0  0  0  0
    2.5055   -5.3539    2.9144 C   0  0  0  0  0  0  0  0  0  0  0  0
    3.0362   -5.9507    1.6403 N   0  0  1  0  0  0  0  0  0  0  0  0
    2.1826   -5.5672    0.4805 C   0  0  0  0  0  0  0  0  0  0  0  0
    2.5212   -4.1552    0.0155 C   0  0  0  0  0  0  0  0  0  0  0  0
    3.7756   -3.7262   -0.0893 C   0  0  0  0  0  0  0  0  0  0  0  0
    4.0961   -2.2831   -0.5582 C   0  0  2  0  0  0  0  0  0  0  0  0
    4.6577   -2.3143   -1.9982 C   0  0  0  0  0  0  0  0  0  0  0  0
    5.9815   -3.0970   -2.1222 C   0  0  0  0  0  0  0  0  0  0  0  0
    6.8084   -3.1956   -0.8227 C   0  0  1  0  0  0  0  0  0  0  0  0
    4.9225   -4.7189    0.2574 C   0  0  2  0  0  0  0  0  0  0  0  0
    4.5177   -5.7996    1.3417 C   0  0  1  0  0  0  0  0  0  0  0  0
    6.2688   -0.7457    2.8180 H   0  0  0  0  0  0  0  0  0  0  0  0
    5.0132   -0.1286    1.1302 H   0  0  0  0  0  0  0  0  0  0  0  0
    7.7415   -2.9970    1.4456 H   0  0  0  0  0  0  0  0  0  0  0  0
    7.1868   -6.1876    0.1101 H   0  0  0  0  0  0  0  0  0  0  0  0
    8.3602   -5.0445    0.7342 H   0  0  0  0  0  0  0  0  0  0  0  0
    7.4084   -6.7205    2.4110 H   0  0  0  0  0  0  0  0  0  0  0  0
    7.4437   -5.0870    2.9646 H   0  0  0  0  0  0  0  0  0  0  0  0
    5.3244   -6.8552    3.0014 H   0  0  0  0  0  0  0  0  0  0  0  0
    5.5213   -4.9617    4.6190 H   0  0  0  0  0  0  0  0  0  0  0  0
    4.1587   -3.4062    2.3469 H   0  0  0  0  0  0  0  0  0  0  0  0
    5.8033   -2.3292    4.6095 H   0  0  0  0  0  0  0  0  0  0  0  0
    3.5575   -6.5187    4.4201 H   0  0  0  0  0  0  0  0  0  0  0  0
    3.0778   -4.9359    4.9675 H   0  0  0  0  0  0  0  0  0  0  0  0
    1.5736   -5.8762    3.1614 H   0  0  0  0  0  0  0  0  0  0  0  0
    2.2205   -4.3092    2.7602 H   0  0  0  0  0  0  0  0  0  0  0  0
    2.3884   -6.2568   -0.3352 H   0  0  0  0  0  0  0  0  0  0  0  0
    1.1222   -5.6611    0.7361 H   0  0  0  0  0  0  0  0  0  0  0  0
    1.7093   -3.4833   -0.2514 H   0  0  0  0  0  0  0  0  0  0  0  0
    3.1846   -1.6852   -0.5476 H   0  0  0  0  0  0  0  0  0  0  0  0
    3.9156   -2.7058   -2.7045 H   0  0  0  0  0  0  0  0  0  0  0  0
    4.8238   -1.2789   -2.3040 H   0  0  0  0  0  0  0  0  0  0  0  0
    5.7593   -4.1079   -2.4750 H   0  0  0  0  0  0  0  0  0  0  0  0
    6.5758   -2.5962   -2.8979 H   0  0  0  0  0  0  0  0  0  0  0  0
    7.8821   -3.1791   -1.0209 H   0  0  0  0  0  0  0  0  0  0  0  0
    4.9136   -5.2970   -0.6741 H   0  0  0  0  0  0  0  0  0  0  0  0
    4.7336   -6.7444    0.8317 H   0  0  0  0  0  0  0  0  0  0  0  0
    2.9125   -6.9358    1.7522 H   0  0  0  0  0  0  0  0  0  0  0  0
  1 12  1  0
  1  2  2  3
  1 25  1  0
  2  3  1  0
  2 26  1  0
  3 19  1  0
  3  4  2  0
  4 22  1  0
  4  5  1  0
  6  5  1  1
  5 27  1  0
  6 22  1  0
  6 23  1  0
  6  7  1  0
  7  8  1  0
  7 28  1  0
  7 29  1  0
  8  9  1  0
  8 30  1  0
  8 31  1  0
  9 24  1  0
  9 10  1  0
  9 32  1  1
 10 11  1  0
 10 13  1  0
 10 33  1  1
 11 12  2  3
 11 34  1  0
 12 35  1  0
 13 14  1  0
 13 36  1  0
 13 37  1  0
 14 15  1  0
 14 38  1  0
 14 39  1  0
 15 24  1  0
 15 16  1  0
 15 51  1  1
 16 17  1  0
 16 40  1  0
 16 41  1  0
 17 18  2  0
 17 42  1  0
 18 19  1  0
 18 23  1  0
 19 20  1  0
 19 43  1  6
 20 21  1  0
 20 44  1  0
 20 45  1  0
 21 22  1  0
 21 46  1  0
 21 47  1  0
 22 48  1  6
 23 24  1  0
 23 49  1  6
 24 50  1  6
M  CHG  1  15   1
M  END
>  <i_m_ct_stereo_status>  (250) 
1

>  <s_m_source_file>  (250) 
/var/tmp/pbs.5076255.sched01/tmptehp0e0j/84lnm28v0z.sdf

>  <i_m_source_file_index>  (250) 
18

>  <i_lp_mmshare_version>  (250) 
48012

>  <i_f3d_flags>  (250) 
0

>  <s_epik_input>  (250) 
W0NIXT0xW0NIMl1OMltDSDJdW0NIMl1bQ0BIXShcW0NIXT1bQ0hdL1tDSF09W0NIXVwzKVtDQEhdKFtDSDJdW0NIMl00KVtDQEBIXTJbQ0BIXTVDMVtDQEhdKFtDSDJdW0NIMl02KUMzPUMoW05IXTcpW0NASF02W0NAXTQ1Nw==

>  <s_epik_cmdline>  (250) 
J2VwaWtfcHl0aG9uJywgJy1waHQnLCAnMi4wJywgJy1waCcsICc3LjAnLCAnLXRuJywgJzgnLCAnLW1hJywgJzIwMCcsICctaW1hZScsICc8aW5maWxlLm1hZT4nLCAnLW9tYWUnLCAnPG91dGZpbGUubWFlPic=

>  <r_epik_Ionization_Penalty>  (250) 
0.00614195

>  <r_epik_Ionization_Penalty_Charging>  (250) 
0.00614041

>  <r_epik_Ionization_Penalty_Neutral>  (250) 
1.53692e-06

>  <r_epik_State_Penalty>  (250) 
0.00452711

>  <r_epik_Charging_Adjusted_Penalty>  (250) 
0.0106675

>  <i_epik_Tot_Q>  (250) 
1

>  <i_epik_Tot_abs_Q>  (250) 
1

>  <s_lp_Force_Field>  (250) 
OPLS3e

>  <r_lp_Energy>  (250) 
156.678

>  <b_lp_Chiralities_Consistent>  (250) 
1

>  <s_lp_Variant>  (250) 
68:0-1

>  <s_i_glide_gridfile>  (250) 
pfpi4k_grid

>  <i_i_glide_lignum>  (250) 
18

>  <i_i_glide_rotatable_bonds>  (250) 
0

>  <r_i_docking_score>  (250) 
-0.386571

>  <r_i_glide_ligand_efficiency>  (250) 
-0.0161071

>  <r_i_glide_ligand_efficiency_sa>  (250) 
-0.046461

>  <r_i_glide_ligand_efficiency_ln>  (250) 
-0.0925242

>  <r_i_glide_gscore>  (250) 
-0.386571

>  <r_i_glide_lipo>  (250) 
-0.984876

>  <r_i_glide_hbond>  (250) 
0

>  <r_i_glide_metal>  (250) 
-0

>  <r_i_glide_rewards>  (250) 
-1.23093

>  <r_i_glide_evdw>  (250) 
-21.6394

>  <r_i_glide_ecoul>  (250) 
-0.73121

>  <r_i_glide_erotb>  (250) 
0

>  <r_i_glide_esite>  (250) 
0

>  <r_i_glide_emodel>  (250) 
-10.8752

>  <r_i_glide_energy>  (250) 
-22.3706

>  <r_i_glide_einternal>  (250) 
0

>  <r_i_glide_intrahb_reward>  (250) 
-0

>  <i_i_glide_confnum>  (250) 
2

>  <i_i_glide_posenum>  (250) 
24

>  <r_i_glide_eff_state_penalty>  (250) 
0

>  <ligand_id>  (250) 
68

>  <original_smiles>  (250) 
C1=CC2=C3NC45CCC6C(C=C1)CCN1CC=C(C2CCC34)C5C61

>  <smiles>  (250) 
[H]C1=C([H])C2=C3N([H])C45C([H])([H])C([H])([H])C6([H])C([H])(C([H])=C1[H])C([H])([H])C([H])([H])[N+]1([H])C([H])([H])C([H])=C(C2([H])C([H])([H])C([H])([H])C34[H])C5([H])C61[H]

$$$$
68:0:1
     RDKit          3D

 51 57  0  0  1  0  0  0  0  0999 V2000
    7.5360   -4.0981    0.4616 C   0  0  0  0  0  0  0  0  0  0  0  0
    7.2805   -2.9077   -0.1846 C   0  0  0  0  0  0  0  0  0  0  0  0
    6.0815   -2.5935   -0.9456 C   0  0  0  0  0  0  0  0  0  0  0  0
    5.2397   -3.5302   -1.4036 C   0  0  0  0  0  0  0  0  0  0  0  0
    4.7938   -4.4546   -0.5267 N   0  0  0  0  0  0  0  0  0  0  0  0
    3.5382   -3.6889   -0.4257 C   0  0  2  0  0  0  0  0  0  0  0  0
    2.4959   -4.7087    0.0130 C   0  0  0  0  0  0  0  0  0  0  0  0
    2.8347   -5.2567    1.4377 C   0  0  0  0  0  0  0  0  0  0  0  0
    3.2795   -4.1918    2.5023 C   0  0  1  0  0  0  0  0  0  0  0  0
    4.6979   -4.3627    3.1424 C   0  0  1  0  0  0  0  0  0  0  0  0
    5.7863   -3.9337    2.1625 C   0  0  0  0  0  0  0  0  0  0  0  0
    6.8208   -4.5938    1.6403 C   0  0  0  0  0  0  0  0  0  0  0  0
    4.7311   -3.4278    4.3634 C   0  0  0  0  0  0  0  0  0  0  0  0
    4.6007   -1.9441    3.9414 C   0  0  0  0  0  0  0  0  0  0  0  0
    3.4041   -1.6716    3.0587 N   0  0  1  0  0  0  0  0  0  0  0  0
    3.4746   -0.2966    2.4711 C   0  0  0  0  0  0  0  0  0  0  0  0
    4.4406   -0.2791    1.2906 C   0  0  0  0  0  0  0  0  0  0  0  0
    4.4462   -1.2605    0.3782 C   0  0  0  0  0  0  0  0  0  0  0  0
    5.4182   -1.2314   -0.8247 C   0  0  2  0  0  0  0  0  0  0  0  0
    4.6441   -0.8867   -2.1132 C   0  0  0  0  0  0  0  0  0  0  0  0
    3.5658   -1.9256   -2.4840 C   0  0  0  0  0  0  0  0  0  0  0  0
    3.8169   -3.3387   -1.9298 C   0  0  1  0  0  0  0  0  0  0  0  0
    3.4354   -2.4263    0.5322 C   0  0  2  0  0  0  0  0  0  0  0  0
    3.0330   -2.7312    2.0301 C   0  0  1  0  0  0  0  0  0  0  0  0
    7.6061   -4.8910   -0.2674 H   0  0  0  0  0  0  0  0  0  0  0  0
    7.7362   -2.9000   -1.1431 H   0  0  0  0  0  0  0  0  0  0  0  0
    4.6769   -5.3895   -0.9066 H   0  0  0  0  0  0  0  0  0  0  0  0
    1.5125   -4.2450   -0.0144 H   0  0  0  0  0  0  0  0  0  0  0  0
    2.4439   -5.5380   -0.6933 H   0  0  0  0  0  0  0  0  0  0  0  0
    1.9317   -5.7455    1.7936 H   0  0  0  0  0  0  0  0  0  0  0  0
    3.5786   -6.0540    1.3792 H   0  0  0  0  0  0  0  0  0  0  0  0
    2.5922   -4.3613    3.3298 H   0  0  0  0  0  0  0  0  0  0  0  0
    4.8610   -5.3937    3.4592 H   0  0  0  0  0  0  0  0  0  0  0  0
    5.6290   -2.9559    1.7564 H   0  0  0  0  0  0  0  0  0  0  0  0
    7.0739   -5.5844    2.0038 H   0  0  0  0  0  0  0  0  0  0  0  0
    3.9346   -3.6919    5.0588 H   0  0  0  0  0  0  0  0  0  0  0  0
    5.6688   -3.5707    4.9153 H   0  0  0  0  0  0  0  0  0  0  0  0
    4.4883   -1.3290    4.8393 H   0  0  0  0  0  0  0  0  0  0  0  0
    5.5180   -1.6002    3.4597 H   0  0  0  0  0  0  0  0  0  0  0  0
    2.4871   -0.0091    2.0981 H   0  0  0  0  0  0  0  0  0  0  0  0
    3.7847    0.4288    3.2278 H   0  0  0  0  0  0  0  0  0  0  0  0
    5.1242    0.5440    1.1968 H   0  0  0  0  0  0  0  0  0  0  0  0
    6.1766   -0.4695   -0.6521 H   0  0  0  0  0  0  0  0  0  0  0  0
    4.2148    0.1212   -2.0693 H   0  0  0  0  0  0  0  0  0  0  0  0
    5.3680   -0.8372   -2.9205 H   0  0  0  0  0  0  0  0  0  0  0  0
    2.5989   -1.5693   -2.1442 H   0  0  0  0  0  0  0  0  0  0  0  0
    3.4848   -1.9689   -3.5721 H   0  0  0  0  0  0  0  0  0  0  0  0
    3.4776   -4.0961   -2.6292 H   0  0  0  0  0  0  0  0  0  0  0  0
    2.5528   -1.9102    0.1455 H   0  0  0  0  0  0  0  0  0  0  0  0
    1.9419   -2.6439    2.0172 H   0  0  0  0  0  0  0  0  0  0  0  0
    2.6307   -1.6566    3.6792 H   0  0  0  0  0  0  0  0  0  0  0  0
  1 12  1  0
  1  2  2  3
  1 25  1  0
  2  3  1  0
  2 26  1  0
  3 19  1  0
  3  4  2  0
  4 22  1  0
  4  5  1  0
  6  5  1  1
  5 27  1  0
  6 22  1  0
  6 23  1  0
  6  7  1  0
  7  8  1  0
  7 28  1  0
  7 29  1  0
  8  9  1  0
  8 30  1  0
  8 31  1  0
  9 24  1  0
  9 10  1  0
  9 32  1  1
 10 11  1  0
 10 13  1  0
 10 33  1  1
 11 12  2  3
 11 34  1  0
 12 35  1  0
 13 14  1  0
 13 36  1  0
 13 37  1  0
 14 15  1  0
 14 38  1  0
 14 39  1  0
 15 24  1  0
 15 16  1  0
 15 51  1  1
 16 17  1  0
 16 40  1  0
 16 41  1  0
 17 18  2  0
 17 42  1  0
 18 19  1  0
 18 23  1  0
 19 20  1  0
 19 43  1  1
 20 21  1  0
 20 44  1  0
 20 45  1  0
 21 22  1  0
 21 46  1  0
 21 47  1  0
 22 48  1  6
 23 24  1  0
 23 49  1  6
 24 50  1  6
M  CHG  1  15   1
M  END
>  <i_m_ct_stereo_status>  (251) 
1

>  <s_m_source_file>  (251) 
/var/tmp/pbs.5076255.sched01/tmptehp0e0j/84lnm28v0z.sdf

>  <i_m_source_file_index>  (251) 
18

>  <i_lp_mmshare_version>  (251) 
48012

>  <i_f3d_flags>  (251) 
0

>  <s_epik_input>  (251) 
W0NIXT0xW0NIMl1OMltDSDJdW0NIMl1bQ0BIXShcW0NIXT1bQ0hdL1tDSF09W0NIXVwzKVtDQEhdKFtDSDJdW0NIMl00KVtDQEBIXTJbQ0BIXTVDMVtDQEhdKFtDSDJdW0NIMl02KUMzPUMoW05IXTcpW0NASF02W0NAXTQ1Nw==

>  <s_epik_cmdline>  (251) 
J2VwaWtfcHl0aG9uJywgJy1waHQnLCAnMi4wJywgJy1waCcsICc3LjAnLCAnLXRuJywgJzgnLCAnLW1hJywgJzIwMCcsICctaW1hZScsICc8aW5maWxlLm1hZT4nLCAnLW9tYWUnLCAnPG91dGZpbGUubWFlPic=

>  <r_epik_Ionization_Penalty>  (251) 
0.00614195

>  <r_epik_Ionization_Penalty_Charging>  (251) 
0.00614041

>  <r_epik_Ionization_Penalty_Neutral>  (251) 
1.53692e-06

>  <r_epik_State_Penalty>  (251) 
0.00452711

>  <r_epik_Charging_Adjusted_Penalty>  (251) 
0.0106675

>  <i_epik_Tot_Q>  (251) 
1

>  <i_epik_Tot_abs_Q>  (251) 
1

>  <s_lp_Force_Field>  (251) 
OPLS3e

>  <r_lp_Energy>  (251) 
156.678

>  <b_lp_Chiralities_Consistent>  (251) 
1

>  <s_lp_Variant>  (251) 
68:0-1

>  <s_i_glide_gridfile>  (251) 
pfpi4k_grid

>  <i_i_glide_lignum>  (251) 
18

>  <i_i_glide_rotatable_bonds>  (251) 
0

>  <r_i_docking_score>  (251) 
0.033799

>  <r_i_glide_ligand_efficiency>  (251) 
0.00140829

>  <r_i_glide_ligand_efficiency_sa>  (251) 
0.00406222

>  <r_i_glide_ligand_efficiency_ln>  (251) 
0.00808966

>  <r_i_glide_gscore>  (251) 
0.033799

>  <r_i_glide_lipo>  (251) 
-0.612892

>  <r_i_glide_hbond>  (251) 
0

>  <r_i_glide_metal>  (251) 
-0

>  <r_i_glide_rewards>  (251) 
-1.23093

>  <r_i_glide_evdw>  (251) 
-20.9309

>  <r_i_glide_ecoul>  (251) 
-3.20353

>  <r_i_glide_erotb>  (251) 
0

>  <r_i_glide_esite>  (251) 
-0.000529014

>  <r_i_glide_emodel>  (251) 
-11.0531

>  <r_i_glide_energy>  (251) 
-24.1344

>  <r_i_glide_einternal>  (251) 
0

>  <r_i_glide_intrahb_reward>  (251) 
-0

>  <i_i_glide_confnum>  (251) 
1

>  <i_i_glide_posenum>  (251) 
1

>  <r_i_glide_eff_state_penalty>  (251) 
0

>  <ligand_id>  (251) 
68

>  <original_smiles>  (251) 
C1=CC2=C3NC45CCC6C(C=C1)CCN1CC=C(C2CCC34)C5C61

>  <smiles>  (251) 
[H]C1=C([H])C2=C3N([H])C45C([H])([H])C([H])([H])C6([H])C([H])(C([H])=C1[H])C([H])([H])C([H])([H])[N+]1([H])C([H])([H])C([H])=C(C2([H])C([H])([H])C([H])([H])C34[H])C5([H])C61[H]

$$$$
68:0:2
     RDKit          3D

 51 57  0  0  1  0  0  0  0  0999 V2000
    4.8150   -1.6934    3.9771 C   0  0  0  0  0  0  0  0  0  0  0  0
    4.2093   -1.2487    2.8486 C   0  0  0  0  0  0  0  0  0  0  0  0
    4.6568   -1.4847    1.4739 C   0  0  0  0  0  0  0  0  0  0  0  0
    5.9283   -1.7257    1.1794 C   0  0  0  0  0  0  0  0  0  0  0  0
    6.4928   -2.7680    1.8282 N   0  0  0  0  0  0  0  0  0  0  0  0
    6.3194   -3.5769    0.6315 C   0  0  2  0  0  0  0  0  0  0  0  0
    7.3974   -4.6393    0.7491 C   0  0  0  0  0  0  0  0  0  0  0  0
    7.1602   -5.5487    1.9982 C   0  0  0  0  0  0  0  0  0  0  0  0
    5.6856   -5.9919    2.2788 C   0  0  1  0  0  0  0  0  0  0  0  0
    5.0388   -5.5796    3.6446 C   0  0  1  0  0  0  0  0  0  0  0  0
    4.6457   -4.1110    3.6423 C   0  0  0  0  0  0  0  0  0  0  0  0
    5.0245   -3.0844    4.4166 C   0  0  0  0  0  0  0  0  0  0  0  0
    3.7636   -6.4273    3.7949 C   0  0  0  0  0  0  0  0  0  0  0  0
    2.7422   -6.0950    2.6864 C   0  0  0  0  0  0  0  0  0  0  0  0
    3.3104   -6.1570    1.2959 N   0  0  1  0  0  0  0  0  0  0  0  0
    2.3643   -5.5702    0.3114 C   0  0  0  0  0  0  0  0  0  0  0  0
    2.4783   -4.0600    0.3155 C   0  0  0  0  0  0  0  0  0  0  0  0
    3.6482   -3.4254    0.3667 C   0  0  0  0  0  0  0  0  0  0  0  0
    3.7048   -1.8885    0.3715 C   0  0  2  0  0  0  0  0  0  0  0  0
    4.2246   -1.3642   -0.9850 C   0  0  0  0  0  0  0  0  0  0  0  0
    5.6380   -1.8588   -1.3356 C   0  0  0  0  0  0  0  0  0  0  0  0
    6.5140   -2.2265   -0.1270 C   0  0  1  0  0  0  0  0  0  0  0  0
    4.9323   -4.2853    0.3944 C   0  0  2  0  0  0  0  0  0  0  0  0
    4.7406   -5.6991    1.0815 C   0  0  1  0  0  0  0  0  0  0  0  0
    5.7425   -1.1610    4.0931 H   0  0  0  0  0  0  0  0  0  0  0  0
    4.3361   -0.2798    2.7017 H   0  0  0  0  0  0  0  0  0  0  0  0
    7.4434   -2.6094    2.1215 H   0  0  0  0  0  0  0  0  0  0  0  0
    7.3876   -5.2497   -0.1500 H   0  0  0  0  0  0  0  0  0  0  0  0
    8.3915   -4.1858    0.8025 H   0  0  0  0  0  0  0  0  0  0  0  0
    7.7726   -6.4381    1.8468 H   0  0  0  0  0  0  0  0  0  0  0  0
    7.5794   -5.0837    2.8921 H   0  0  0  0  0  0  0  0  0  0  0  0
    5.7589   -7.0776    2.3371 H   0  0  0  0  0  0  0  0  0  0  0  0
    5.7208   -5.7910    4.4736 H   0  0  0  0  0  0  0  0  0  0  0  0
    4.0582   -3.8334    2.7963 H   0  0  0  0  0  0  0  0  0  0  0  0
    5.6156   -3.2693    5.3082 H   0  0  0  0  0  0  0  0  0  0  0  0
    4.0115   -7.4905    3.7616 H   0  0  0  0  0  0  0  0  0  0  0  0
    3.3165   -6.2570    4.7758 H   0  0  0  0  0  0  0  0  0  0  0  0
    1.9111   -6.7999    2.7453 H   0  0  0  0  0  0  0  0  0  0  0  0
    2.2938   -5.1145    2.8661 H   0  0  0  0  0  0  0  0  0  0  0  0
    2.6310   -5.8992   -0.6844 H   0  0  0  0  0  0  0  0  0  0  0  0
    1.3404   -5.8993    0.5035 H   0  0  0  0  0  0  0  0  0  0  0  0
    1.5914   -3.4655    0.2284 H   0  0  0  0  0  0  0  0  0  0  0  0
    2.7233   -1.4628    0.5707 H   0  0  0  0  0  0  0  0  0  0  0  0
    3.5151   -1.6248   -1.7802 H   0  0  0  0  0  0  0  0  0  0  0  0
    4.2169   -0.2751   -0.9377 H   0  0  0  0  0  0  0  0  0  0  0  0
    5.5688   -2.7269   -1.9882 H   0  0  0  0  0  0  0  0  0  0  0  0
    6.1236   -1.0854   -1.9243 H   0  0  0  0  0  0  0  0  0  0  0  0
    7.5656   -1.9735   -0.2844 H   0  0  0  0  0  0  0  0  0  0  0  0
    4.9750   -4.5355   -0.6677 H   0  0  0  0  0  0  0  0  0  0  0  0
    5.0771   -6.3892    0.3069 H   0  0  0  0  0  0  0  0  0  0  0  0
    3.3383   -7.1482    1.0891 H   0  0  0  0  0  0  0  0  0  0  0  0
  1 12  1  0
  1  2  2  3
  1 25  1  0
  2  3  1  0
  2 26  1  0
  3 19  1  0
  3  4  2  0
  4 22  1  0
  4  5  1  0
  6  5  1  1
  5 27  1  0
  6 22  1  0
  6 23  1  0
  6  7  1  0
  7  8  1  0
  7 28  1  0
  7 29  1  0
  8  9  1  0
  8 30  1  0
  8 31  1  0
  9 24  1  0
  9 10  1  0
  9 32  1  1
 10 11  1  0
 10 13  1  0
 10 33  1  1
 11 12  2  3
 11 34  1  0
 12 35  1  0
 13 14  1  0
 13 36  1  0
 13 37  1  0
 14 15  1  0
 14 38  1  0
 14 39  1  0
 15 24  1  0
 15 16  1  0
 15 51  1  6
 16 17  1  0
 16 40  1  0
 16 41  1  0
 17 18  2  0
 17 42  1  0
 18 19  1  0
 18 23  1  0
 19 20  1  0
 19 43  1  1
 20 21  1  0
 20 44  1  0
 20 45  1  0
 21 22  1  0
 21 46  1  0
 21 47  1  0
 22 48  1  6
 23 24  1  0
 23 49  1  6
 24 50  1  6
M  CHG  1  15   1
M  END
>  <i_m_ct_stereo_status>  (252) 
1

>  <s_m_source_file>  (252) 
/var/tmp/pbs.5076255.sched01/tmptehp0e0j/84lnm28v0z.sdf

>  <i_m_source_file_index>  (252) 
18

>  <i_lp_mmshare_version>  (252) 
48012

>  <i_f3d_flags>  (252) 
0

>  <s_epik_input>  (252) 
W0NIXT0xW0NIMl1OMltDSDJdW0NIMl1bQ0BIXShcW0NIXT1bQ0hdL1tDSF09W0NIXVwzKVtDQEhdKFtDSDJdW0NIMl00KVtDQEBIXTJbQ0BIXTVDMVtDQEhdKFtDSDJdW0NIMl02KUMzPUMoW05IXTcpW0NASF02W0NAXTQ1Nw==

>  <s_epik_cmdline>  (252) 
J2VwaWtfcHl0aG9uJywgJy1waHQnLCAnMi4wJywgJy1waCcsICc3LjAnLCAnLXRuJywgJzgnLCAnLW1hJywgJzIwMCcsICctaW1hZScsICc8aW5maWxlLm1hZT4nLCAnLW9tYWUnLCAnPG91dGZpbGUubWFlPic=

>  <r_epik_Ionization_Penalty>  (252) 
0.00614195

>  <r_epik_Ionization_Penalty_Charging>  (252) 
0.00614041

>  <r_epik_Ionization_Penalty_Neutral>  (252) 
1.53692e-06

>  <r_epik_State_Penalty>  (252) 
0.00452711

>  <r_epik_Charging_Adjusted_Penalty>  (252) 
0.0106675

>  <i_epik_Tot_Q>  (252) 
1

>  <i_epik_Tot_abs_Q>  (252) 
1

>  <s_lp_Force_Field>  (252) 
OPLS3e

>  <r_lp_Energy>  (252) 
156.678

>  <b_lp_Chiralities_Consistent>  (252) 
1

>  <s_lp_Variant>  (252) 
68:0-1

>  <s_i_glide_gridfile>  (252) 
pfpi4k_grid

>  <i_i_glide_lignum>  (252) 
18

>  <i_i_glide_rotatable_bonds>  (252) 
0

>  <r_i_docking_score>  (252) 
1.12968

>  <r_i_glide_ligand_efficiency>  (252) 
0.0470699

>  <r_i_glide_ligand_efficiency_sa>  (252) 
0.135773

>  <r_i_glide_ligand_efficiency_ln>  (252) 
0.270384

>  <r_i_glide_gscore>  (252) 
1.12968

>  <r_i_glide_lipo>  (252) 
-0.703246

>  <r_i_glide_hbond>  (252) 
0

>  <r_i_glide_metal>  (252) 
-0

>  <r_i_glide_rewards>  (252) 
-1.23093

>  <r_i_glide_evdw>  (252) 
-10.01

>  <r_i_glide_ecoul>  (252) 
-0.723413

>  <r_i_glide_erotb>  (252) 
0

>  <r_i_glide_esite>  (252) 
0

>  <r_i_glide_emodel>  (252) 
4.53364

>  <r_i_glide_energy>  (252) 
-10.7335

>  <r_i_glide_einternal>  (252) 
0

>  <r_i_glide_intrahb_reward>  (252) 
-0

>  <i_i_glide_confnum>  (252) 
1

>  <i_i_glide_posenum>  (252) 
37

>  <r_i_glide_eff_state_penalty>  (252) 
0

>  <ligand_id>  (252) 
68

>  <original_smiles>  (252) 
C1=CC2=C3NC45CCC6C(C=C1)CCN1CC=C(C2CCC34)C5C61

>  <smiles>  (252) 
[H]C1=C([H])C2=C3N([H])C45C([H])([H])C([H])([H])C6([H])C([H])(C([H])=C1[H])C([H])([H])C([H])([H])[N+]1([H])C([H])([H])C([H])=C(C2([H])C([H])([H])C([H])([H])C34[H])C5([H])C61[H]

$$$$
70:0:0
     RDKit          3D

 29 32  0  0  1  0  0  0  0  0999 V2000
    6.1125   -0.9733    0.4404 C   0  0  0  0  0  0  0  0  0  0  0  0
    5.5148   -2.0077   -0.5244 C   0  0  1  0  0  0  0  0  0  0  0  0
    6.0984   -1.8559   -1.8729 O   0  0  0  0  0  0  0  0  0  0  0  0
    4.9252   -1.0496   -2.2811 C   0  0  1  0  0  0  0  0  0  0  0  0
    4.0618   -1.3983   -3.5230 C   0  0  0  0  0  0  0  0  0  0  0  0
    2.8929   -2.3208   -3.0282 C   0  0  0  0  0  0  0  0  0  0  0  0
    3.5472   -2.8791   -1.7859 C   0  0  2  0  0  0  0  0  0  0  0  0
    3.0302   -3.7959   -0.6979 C   0  0  0  0  0  0  0  0  0  0  0  0
    4.3014   -4.2346    0.0538 C   0  0  0  0  0  0  0  0  0  0  0  0
    4.3597   -5.4978    0.6735 C   0  0  0  0  0  0  0  0  0  0  0  0
    5.4769   -5.9530    1.2860 N   0  0  0  0  0  0  0  0  0  0  0  0
    6.5883   -5.2108    1.3090 N   0  0  0  0  0  0  0  0  0  0  0  0
    6.6116   -3.9909    0.7278 C   0  0  0  0  0  0  0  0  0  0  0  0
    5.4904   -3.4329    0.0771 C   0  0  0  0  0  0  0  0  0  0  0  0
    4.2022   -1.6904   -1.1606 C   0  0  1  0  0  0  0  0  0  0  0  0
    5.5705   -0.9642    1.3867 H   0  0  0  0  0  0  0  0  0  0  0  0
    6.0566    0.0418    0.0508 H   0  0  0  0  0  0  0  0  0  0  0  0
    7.1590   -1.1750    0.6603 H   0  0  0  0  0  0  0  0  0  0  0  0
    5.0927    0.0141   -2.1286 H   0  0  0  0  0  0  0  0  0  0  0  0
    3.6385   -0.4926   -3.9634 H   0  0  0  0  0  0  0  0  0  0  0  0
    4.6467   -1.8884   -4.2991 H   0  0  0  0  0  0  0  0  0  0  0  0
    2.0230   -1.7442   -2.7251 H   0  0  0  0  0  0  0  0  0  0  0  0
    2.5898   -3.0771   -3.7583 H   0  0  0  0  0  0  0  0  0  0  0  0
    4.3009   -3.5168   -2.2647 H   0  0  0  0  0  0  0  0  0  0  0  0
    2.3482   -3.2722   -0.0279 H   0  0  0  0  0  0  0  0  0  0  0  0
    2.5055   -4.6568   -1.1140 H   0  0  0  0  0  0  0  0  0  0  0  0
    3.5047   -6.1584    0.6738 H   0  0  0  0  0  0  0  0  0  0  0  0
    7.5456   -3.4555    0.8088 H   0  0  0  0  0  0  0  0  0  0  0  0
    3.5547   -1.0159   -0.5939 H   0  0  0  0  0  0  0  0  0  0  0  0
  2  1  1  1
  1 16  1  0
  1 17  1  0
  1 18  1  0
  2 14  1  0
  2 15  1  0
  2  3  1  0
  3  4  1  0
  4 15  1  0
  4  5  1  0
  4 19  1  1
  5  6  1  0
  5 20  1  0
  5 21  1  0
  6  7  1  0
  6 22  1  0
  6 23  1  0
  7  8  1  0
  7 15  1  0
  7 24  1  6
  8  9  1  0
  8 25  1  0
  8 26  1  0
  9 14  2  0
  9 10  1  0
 10 11  2  0
 10 27  1  0
 11 12  1  0
 12 13  2  0
 13 14  1  0
 13 28  1  0
 15 29  1  1
M  END
>  <i_m_ct_stereo_status>  (253) 
1

>  <s_m_source_file>  (253) 
/var/tmp/pbs.5076255.sched01/tmptehp0e0j/84lnm28v0z.sdf

>  <i_m_source_file_index>  (253) 
20

>  <i_lp_mmshare_version>  (253) 
48012

>  <i_f3d_flags>  (253) 
0

>  <s_epik_input>  (253) 
W2NIXTFubltjSF1jKGMxW0NAQF0yM1tDSDNdKVtDSDJdW0NAQEhdNFtDQEBIXTNbQ0BASF0oTzIpW0NIMl1bQ0gyXTQ=

>  <s_epik_cmdline>  (253) 
J2VwaWtfcHl0aG9uJywgJy1waHQnLCAnMi4wJywgJy1waCcsICc3LjAnLCAnLXRuJywgJzgnLCAnLW1hJywgJzIwMCcsICctaW1hZScsICc8aW5maWxlLm1hZT4nLCAnLW9tYWUnLCAnPG91dGZpbGUubWFlPic=

>  <r_lp_tautomer_probability>  (253) 
1

>  <r_epik_Ionization_Penalty>  (253) 
0.0016366

>  <r_epik_Ionization_Penalty_Charging>  (253) 
0

>  <r_epik_Ionization_Penalty_Neutral>  (253) 
0.0016366

>  <r_epik_State_Penalty>  (253) 
0.00103483

>  <r_epik_Charging_Adjusted_Penalty>  (253) 
0.00103483

>  <i_epik_Tot_Q>  (253) 
0

>  <i_epik_Tot_abs_Q>  (253) 
0

>  <s_lp_Force_Field>  (253) 
OPLS3e

>  <r_lp_Energy>  (253) 
50.1015

>  <b_lp_Chiralities_Consistent>  (253) 
1

>  <s_lp_Variant>  (253) 
70:0-1

>  <s_i_glide_gridfile>  (253) 
pfpi4k_grid

>  <i_i_glide_lignum>  (253) 
20

>  <i_i_glide_rotatable_bonds>  (253) 
0

>  <r_i_docking_score>  (253) 
-3.99956

>  <r_i_glide_ligand_efficiency>  (253) 
-0.266638

>  <r_i_glide_ligand_efficiency_sa>  (253) 
-0.657585

>  <r_i_glide_ligand_efficiency_ln>  (253) 
-1.07862

>  <r_i_glide_gscore>  (253) 
-3.99956

>  <r_i_glide_lipo>  (253) 
-0.555219

>  <r_i_glide_hbond>  (253) 
-0.113959

>  <r_i_glide_metal>  (253) 
-0

>  <r_i_glide_rewards>  (253) 
-2.0301

>  <r_i_glide_evdw>  (253) 
-17.5598

>  <r_i_glide_ecoul>  (253) 
-2.81532

>  <r_i_glide_erotb>  (253) 
0

>  <r_i_glide_esite>  (253) 
0

>  <r_i_glide_emodel>  (253) 
-25.3864

>  <r_i_glide_energy>  (253) 
-20.3751

>  <r_i_glide_einternal>  (253) 
0

>  <r_i_glide_intrahb_reward>  (253) 
-0

>  <i_i_glide_confnum>  (253) 
2

>  <i_i_glide_posenum>  (253) 
37

>  <r_i_glide_eff_state_penalty>  (253) 
0

>  <ligand_id>  (253) 
70

>  <original_smiles>  (253) 
CC12OC3CCC(Cc4cnncc41)C32

>  <smiles>  (253) 
[H]c1nnc([H])c2c1C([H])([H])C1([H])C([H])([H])C([H])([H])C3([H])OC2(C([H])([H])[H])C31[H]

$$$$
70:0:1
     RDKit          3D

 29 32  0  0  1  0  0  0  0  0999 V2000
    4.3584   -0.1797    0.2893 C   0  0  0  0  0  0  0  0  0  0  0  0
    4.4398   -1.1479   -0.9112 C   0  0  1  0  0  0  0  0  0  0  0  0
    5.4382   -0.7631   -1.9171 O   0  0  0  0  0  0  0  0  0  0  0  0
    4.3738   -0.1964   -2.7663 C   0  0  1  0  0  0  0  0  0  0  0  0
    4.1139   -0.5749   -4.2378 C   0  0  0  0  0  0  0  0  0  0  0  0
    3.0838   -1.7527   -4.2413 C   0  0  0  0  0  0  0  0  0  0  0  0
    3.3356   -2.2869   -2.8512 C   0  0  2  0  0  0  0  0  0  0  0  0
    2.6274   -3.3519   -2.0403 C   0  0  0  0  0  0  0  0  0  0  0  0
    3.5982   -3.5909   -0.8481 C   0  0  0  0  0  0  0  0  0  0  0  0
    3.6812   -4.8522   -0.2301 C   0  0  0  0  0  0  0  0  0  0  0  0
    4.5724   -5.1403    0.7500 N   0  0  0  0  0  0  0  0  0  0  0  0
    5.4151   -4.2042    1.1907 N   0  0  0  0  0  0  0  0  0  0  0  0
    5.3875   -2.9635    0.6568 C   0  0  0  0  0  0  0  0  0  0  0  0
    4.5132   -2.5942   -0.3887 C   0  0  0  0  0  0  0  0  0  0  0  0
    3.4689   -1.0681   -2.0360 C   0  0  1  0  0  0  0  0  0  0  0  0
    3.5173   -0.4098    0.9428 H   0  0  0  0  0  0  0  0  0  0  0  0
    4.1684    0.8549    0.0644 H   0  0  0  0  0  0  0  0  0  0  0  0
    5.2863   -0.1749    0.8640 H   0  0  0  0  0  0  0  0  0  0  0  0
    4.1417    0.8363   -2.5676 H   0  0  0  0  0  0  0  0  0  0  0  0
    3.7028    0.2812   -4.7813 H   0  0  0  0  0  0  0  0  0  0  0  0
    5.0164   -0.8909   -4.7421 H   0  0  0  0  0  0  0  0  0  0  0  0
    2.0632   -1.3804   -4.3473 H   0  0  0  0  0  0  0  0  0  0  0  0
    3.2924   -2.5049   -5.0027 H   0  0  0  0  0  0  0  0  0  0  0  0
    4.3216   -2.7297   -3.0041 H   0  0  0  0  0  0  0  0  0  0  0  0
    1.6508   -3.0378   -1.6746 H   0  0  0  0  0  0  0  0  0  0  0  0
    2.4553   -4.2378   -2.6563 H   0  0  0  0  0  0  0  0  0  0  0  0
    3.0409   -5.6685   -0.5198 H   0  0  0  0  0  0  0  0  0  0  0  0
    6.0801   -2.2691    1.1095 H   0  0  0  0  0  0  0  0  0  0  0  0
    2.5593   -0.5626   -1.8638 H   0  0  0  0  0  0  0  0  0  0  0  0
  2  1  1  1
  1 16  1  0
  1 17  1  0
  1 18  1  0
  2 14  1  0
  2 15  1  0
  2  3  1  0
  3  4  1  0
  4 15  1  0
  4  5  1  0
  4 19  1  6
  5  6  1  0
  5 20  1  0
  5 21  1  0
  6  7  1  0
  6 22  1  0
  6 23  1  0
  7  8  1  0
  7 15  1  0
  7 24  1  6
  8  9  1  0
  8 25  1  0
  8 26  1  0
  9 14  2  0
  9 10  1  0
 10 11  2  0
 10 27  1  0
 11 12  1  0
 12 13  2  0
 13 14  1  0
 13 28  1  0
 15 29  1  1
M  END
>  <i_m_ct_stereo_status>  (254) 
1

>  <s_m_source_file>  (254) 
/var/tmp/pbs.5076255.sched01/tmptehp0e0j/84lnm28v0z.sdf

>  <i_m_source_file_index>  (254) 
20

>  <i_lp_mmshare_version>  (254) 
48012

>  <i_f3d_flags>  (254) 
0

>  <s_epik_input>  (254) 
W2NIXTFubltjSF1jKGMxW0NAQF0yM1tDSDNdKVtDSDJdW0NAQEhdNFtDQEBIXTNbQ0BASF0oTzIpW0NIMl1bQ0gyXTQ=

>  <s_epik_cmdline>  (254) 
J2VwaWtfcHl0aG9uJywgJy1waHQnLCAnMi4wJywgJy1waCcsICc3LjAnLCAnLXRuJywgJzgnLCAnLW1hJywgJzIwMCcsICctaW1hZScsICc8aW5maWxlLm1hZT4nLCAnLW9tYWUnLCAnPG91dGZpbGUubWFlPic=

>  <r_lp_tautomer_probability>  (254) 
1

>  <r_epik_Ionization_Penalty>  (254) 
0.0016366

>  <r_epik_Ionization_Penalty_Charging>  (254) 
0

>  <r_epik_Ionization_Penalty_Neutral>  (254) 
0.0016366

>  <r_epik_State_Penalty>  (254) 
0.00103483

>  <r_epik_Charging_Adjusted_Penalty>  (254) 
0.00103483

>  <i_epik_Tot_Q>  (254) 
0

>  <i_epik_Tot_abs_Q>  (254) 
0

>  <s_lp_Force_Field>  (254) 
OPLS3e

>  <r_lp_Energy>  (254) 
50.1015

>  <b_lp_Chiralities_Consistent>  (254) 
1

>  <s_lp_Variant>  (254) 
70:0-1

>  <s_i_glide_gridfile>  (254) 
pfpi4k_grid

>  <i_i_glide_lignum>  (254) 
20

>  <i_i_glide_rotatable_bonds>  (254) 
0

>  <r_i_docking_score>  (254) 
-3.41437

>  <r_i_glide_ligand_efficiency>  (254) 
-0.227625

>  <r_i_glide_ligand_efficiency_sa>  (254) 
-0.561371

>  <r_i_glide_ligand_efficiency_ln>  (254) 
-0.9208

>  <r_i_glide_gscore>  (254) 
-3.41437

>  <r_i_glide_lipo>  (254) 
-0.614694

>  <r_i_glide_hbond>  (254) 
-0.00900335

>  <r_i_glide_metal>  (254) 
-0

>  <r_i_glide_rewards>  (254) 
-2.0301

>  <r_i_glide_evdw>  (254) 
-7.15428

>  <r_i_glide_ecoul>  (254) 
-2.68575

>  <r_i_glide_erotb>  (254) 
0

>  <r_i_glide_esite>  (254) 
0

>  <r_i_glide_emodel>  (254) 
-13.7601

>  <r_i_glide_energy>  (254) 
-9.84003

>  <r_i_glide_einternal>  (254) 
0

>  <r_i_glide_intrahb_reward>  (254) 
-0

>  <i_i_glide_confnum>  (254) 
1

>  <i_i_glide_posenum>  (254) 
16

>  <r_i_glide_eff_state_penalty>  (254) 
0

>  <ligand_id>  (254) 
70

>  <original_smiles>  (254) 
CC12OC3CCC(Cc4cnncc41)C32

>  <smiles>  (254) 
[H]c1nnc([H])c2c1C([H])([H])C1([H])C([H])([H])C([H])([H])C3([H])OC2(C([H])([H])[H])C31[H]

$$$$
70:0:2
     RDKit          3D

 29 32  0  0  1  0  0  0  0  0999 V2000
    4.5636   -1.0157    0.8517 C   0  0  0  0  0  0  0  0  0  0  0  0
    4.3834   -2.1150   -0.2035 C   0  0  1  0  0  0  0  0  0  0  0  0
    5.5534   -2.1707   -1.1064 O   0  0  0  0  0  0  0  0  0  0  0  0
    4.8217   -1.3288   -2.0781 C   0  0  1  0  0  0  0  0  0  0  0  0
    4.6063   -1.7603   -3.5521 C   0  0  0  0  0  0  0  0  0  0  0  0
    3.2326   -2.5163   -3.6349 C   0  0  0  0  0  0  0  0  0  0  0  0
    3.1480   -2.9777   -2.1978 C   0  0  2  0  0  0  0  0  0  0  0  0
    2.0624   -3.7095   -1.4322 C   0  0  0  0  0  0  0  0  0  0  0  0
    2.7635   -4.1539   -0.1359 C   0  0  0  0  0  0  0  0  0  0  0  0
    2.3644   -5.3360    0.5171 C   0  0  0  0  0  0  0  0  0  0  0  0
    2.9717   -5.7903    1.6346 N   0  0  0  0  0  0  0  0  0  0  0  0
    4.0191   -5.1362    2.1496 N   0  0  0  0  0  0  0  0  0  0  0  0
    4.4798   -4.0086    1.5638 C   0  0  0  0  0  0  0  0  0  0  0  0
    3.8900   -3.4502    0.4062 C   0  0  0  0  0  0  0  0  0  0  0  0
    3.5848   -1.7787   -1.4155 C   0  0  1  0  0  0  0  0  0  0  0  0
    3.6406   -0.8506    1.4078 H   0  0  0  0  0  0  0  0  0  0  0  0
    4.8337   -0.0572    0.4072 H   0  0  0  0  0  0  0  0  0  0  0  0
    5.3410   -1.2699    1.5668 H   0  0  0  0  0  0  0  0  0  0  0  0
    5.0043   -0.2644   -1.9246 H   0  0  0  0  0  0  0  0  0  0  0  0
    4.5803   -0.8950   -4.2151 H   0  0  0  0  0  0  0  0  0  0  0  0
    5.4096   -2.4153   -3.8776 H   0  0  0  0  0  0  0  0  0  0  0  0
    2.4104   -1.8324   -3.8564 H   0  0  0  0  0  0  0  0  0  0  0  0
    3.2243   -3.3363   -4.3588 H   0  0  0  0  0  0  0  0  0  0  0  0
    3.9492   -3.7283   -2.2074 H   0  0  0  0  0  0  0  0  0  0  0  0
    1.2244   -3.0618   -1.2198 H   0  0  0  0  0  0  0  0  0  0  0  0
    1.6562   -4.5680   -1.9668 H   0  0  0  0  0  0  0  0  0  0  0  0
    1.5335   -5.9214    0.1480 H   0  0  0  0  0  0  0  0  0  0  0  0
    5.3214   -3.5418    2.0532 H   0  0  0  0  0  0  0  0  0  0  0  0
    2.8616   -0.9727   -1.2962 H   0  0  0  0  0  0  0  0  0  0  0  0
  2  1  1  1
  1 16  1  0
  1 17  1  0
  1 18  1  0
  2 14  1  0
  2 15  1  0
  2  3  1  0
  3  4  1  0
  4 15  1  0
  4  5  1  0
  4 19  1  6
  5  6  1  0
  5 20  1  0
  5 21  1  0
  6  7  1  0
  6 22  1  0
  6 23  1  0
  7  8  1  0
  7 15  1  0
  7 24  1  6
  8  9  1  0
  8 25  1  0
  8 26  1  0
  9 14  2  0
  9 10  1  0
 10 11  2  0
 10 27  1  0
 11 12  1  0
 12 13  2  0
 13 14  1  0
 13 28  1  0
 15 29  1  1
M  END
>  <i_m_ct_stereo_status>  (255) 
1

>  <s_m_source_file>  (255) 
/var/tmp/pbs.5076255.sched01/tmptehp0e0j/84lnm28v0z.sdf

>  <i_m_source_file_index>  (255) 
20

>  <i_lp_mmshare_version>  (255) 
48012

>  <i_f3d_flags>  (255) 
0

>  <s_epik_input>  (255) 
W2NIXTFubltjSF1jKGMxW0NAQF0yM1tDSDNdKVtDSDJdW0NAQEhdNFtDQEBIXTNbQ0BASF0oTzIpW0NIMl1bQ0gyXTQ=

>  <s_epik_cmdline>  (255) 
J2VwaWtfcHl0aG9uJywgJy1waHQnLCAnMi4wJywgJy1waCcsICc3LjAnLCAnLXRuJywgJzgnLCAnLW1hJywgJzIwMCcsICctaW1hZScsICc8aW5maWxlLm1hZT4nLCAnLW9tYWUnLCAnPG91dGZpbGUubWFlPic=

>  <r_lp_tautomer_probability>  (255) 
1

>  <r_epik_Ionization_Penalty>  (255) 
0.0016366

>  <r_epik_Ionization_Penalty_Charging>  (255) 
0

>  <r_epik_Ionization_Penalty_Neutral>  (255) 
0.0016366

>  <r_epik_State_Penalty>  (255) 
0.00103483

>  <r_epik_Charging_Adjusted_Penalty>  (255) 
0.00103483

>  <i_epik_Tot_Q>  (255) 
0

>  <i_epik_Tot_abs_Q>  (255) 
0

>  <s_lp_Force_Field>  (255) 
OPLS3e

>  <r_lp_Energy>  (255) 
50.1015

>  <b_lp_Chiralities_Consistent>  (255) 
1

>  <s_lp_Variant>  (255) 
70:0-1

>  <s_i_glide_gridfile>  (255) 
pfpi4k_grid

>  <i_i_glide_lignum>  (255) 
20

>  <i_i_glide_rotatable_bonds>  (255) 
0

>  <r_i_docking_score>  (255) 
-3.39039

>  <r_i_glide_ligand_efficiency>  (255) 
-0.226026

>  <r_i_glide_ligand_efficiency_sa>  (255) 
-0.557428

>  <r_i_glide_ligand_efficiency_ln>  (255) 
-0.914332

>  <r_i_glide_gscore>  (255) 
-3.39039

>  <r_i_glide_lipo>  (255) 
-0.408934

>  <r_i_glide_hbond>  (255) 
0

>  <r_i_glide_metal>  (255) 
-0

>  <r_i_glide_rewards>  (255) 
-2.0301

>  <r_i_glide_evdw>  (255) 
-15.2598

>  <r_i_glide_ecoul>  (255) 
-1.25578

>  <r_i_glide_erotb>  (255) 
0

>  <r_i_glide_esite>  (255) 
0

>  <r_i_glide_emodel>  (255) 
-20.6941

>  <r_i_glide_energy>  (255) 
-16.5156

>  <r_i_glide_einternal>  (255) 
0

>  <r_i_glide_intrahb_reward>  (255) 
-0

>  <i_i_glide_confnum>  (255) 
2

>  <i_i_glide_posenum>  (255) 
22

>  <r_i_glide_eff_state_penalty>  (255) 
0

>  <ligand_id>  (255) 
70

>  <original_smiles>  (255) 
CC12OC3CCC(Cc4cnncc41)C32

>  <smiles>  (255) 
[H]c1nnc([H])c2c1C([H])([H])C1([H])C([H])([H])C([H])([H])C3([H])OC2(C([H])([H])[H])C31[H]

$$$$
71:0:0
     RDKit          3D

 65 70  0  0  1  0  0  0  0  0999 V2000
    5.0157   -1.1962    4.8163 C   0  0  0  0  0  0  0  0  0  0  0  0
    4.4311   -1.8072    3.5472 C   0  0  0  0  0  0  0  0  0  0  0  0
    3.2747   -2.4598    3.3351 C   0  0  0  0  0  0  0  0  0  0  0  0
    2.9982   -3.6132    4.2398 C   0  0  0  0  0  0  0  0  0  0  0  0
    1.9163   -3.7957    4.7831 O   0  0  0  0  0  0  0  0  0  0  0  0
    4.1944   -4.5931    4.4812 C   0  0  1  0  0  0  0  0  0  0  0  0
    4.5682   -4.4447    5.8397 O   0  0  0  0  0  0  0  0  0  0  0  0
    3.8953   -6.1294    4.4199 C   0  0  0  0  0  0  0  0  0  0  0  0
    3.4101   -6.8294    3.1213 C   0  0  1  0  0  0  0  0  0  0  0  0
    4.5109   -7.2423    2.1104 C   0  0  0  0  0  0  0  0  0  0  0  0
    2.8852   -8.0717    3.5653 O   0  0  0  0  0  0  0  0  0  0  0  0
    1.7586   -8.3698    2.8150 C   0  0  0  0  0  0  0  0  0  0  0  0
    2.0741   -9.5744    1.9275 C   0  0  0  0  0  0  0  0  0  0  0  0
    0.5921   -8.6352    3.7772 C   0  0  0  0  0  0  0  0  0  0  0  0
    1.4415   -7.2980    2.0031 O   0  0  0  0  0  0  0  0  0  0  0  0
    2.1354   -6.2033    2.5489 C   0  0  2  0  0  0  0  0  0  0  0  0
    2.2087   -5.0433    1.5564 C   0  0  2  0  0  0  0  0  0  0  0  0
    2.2435   -5.3369    0.0392 C   0  0  1  0  0  0  0  0  0  0  0  0
    1.0158   -5.4639   -0.6387 O   0  0  0  0  0  0  0  0  0  0  0  0
    2.8293   -3.9488   -0.1107 C   0  0  2  0  0  0  0  0  0  0  0  0
    3.8001   -3.4020   -1.1353 C   0  0  1  0  0  0  0  0  0  0  0  0
    3.2063   -3.2423   -2.5532 C   0  0  0  0  0  0  0  0  0  0  0  0
    4.4035   -2.0926   -0.5440 C   0  0  1  0  0  0  0  0  0  0  0  0
    4.5075   -0.9420   -1.5275 C   0  0  0  0  0  0  0  0  0  0  0  0
    3.8700   -1.6402    0.8732 C   0  0  1  0  0  0  0  0  0  0  0  0
    2.6151   -0.9875    0.9065 O   0  0  0  0  0  0  0  0  0  0  0  0
    3.8421   -2.8121    1.9181 C   0  0  2  0  0  0  0  0  0  0  0  0
    3.4281   -4.1466    1.2772 C   0  0  1  0  0  0  0  0  0  0  0  0
    5.1405   -2.9011    2.7546 C   0  0  1  0  0  0  0  0  0  0  0  0
    6.2540   -2.4383    2.0352 O   0  0  0  0  0  0  0  0  0  0  0  0
    5.4321   -4.1364    3.6608 C   0  0  0  0  0  0  0  0  0  0  0  0
    5.8779   -0.5665    4.5834 H   0  0  0  0  0  0  0  0  0  0  0  0
    5.3069   -1.9192    5.5827 H   0  0  0  0  0  0  0  0  0  0  0  0
    4.2725   -0.5256    5.2477 H   0  0  0  0  0  0  0  0  0  0  0  0
    3.8698   -4.7384    6.3964 H   0  0  0  0  0  0  0  0  0  0  0  0
    4.7866   -6.6631    4.7569 H   0  0  0  0  0  0  0  0  0  0  0  0
    3.1394   -6.3480    5.1823 H   0  0  0  0  0  0  0  0  0  0  0  0
    5.2345   -6.4777    1.8613 H   0  0  0  0  0  0  0  0  0  0  0  0
    4.0820   -7.5630    1.1641 H   0  0  0  0  0  0  0  0  0  0  0  0
    5.0717   -8.0884    2.5088 H   0  0  0  0  0  0  0  0  0  0  0  0
    2.8320   -9.3470    1.1754 H   0  0  0  0  0  0  0  0  0  0  0  0
    1.1688   -9.8647    1.4144 H   0  0  0  0  0  0  0  0  0  0  0  0
    2.3938  -10.4198    2.5328 H   0  0  0  0  0  0  0  0  0  0  0  0
    0.4181   -7.7719    4.4225 H   0  0  0  0  0  0  0  0  0  0  0  0
    0.8362   -9.4933    4.3989 H   0  0  0  0  0  0  0  0  0  0  0  0
   -0.3161   -8.8554    3.2172 H   0  0  0  0  0  0  0  0  0  0  0  0
    1.5163   -5.8962    3.3851 H   0  0  0  0  0  0  0  0  0  0  0  0
    1.4141   -4.3469    1.8018 H   0  0  0  0  0  0  0  0  0  0  0  0
    2.9636   -6.1176   -0.2642 H   0  0  0  0  0  0  0  0  0  0  0  0
    1.2306   -5.2943   -1.5438 H   0  0  0  0  0  0  0  0  0  0  0  0
    1.9609   -3.2800   -0.0617 H   0  0  0  0  0  0  0  0  0  0  0  0
    4.6164   -4.1189   -1.2306 H   0  0  0  0  0  0  0  0  0  0  0  0
    2.4307   -2.4738   -2.6221 H   0  0  0  0  0  0  0  0  0  0  0  0
    2.7529   -4.1600   -2.9298 H   0  0  0  0  0  0  0  0  0  0  0  0
    3.9937   -3.0041   -3.2675 H   0  0  0  0  0  0  0  0  0  0  0  0
    5.4454   -2.3523   -0.3762 H   0  0  0  0  0  0  0  0  0  0  0  0
    3.5205   -0.5965   -1.8345 H   0  0  0  0  0  0  0  0  0  0  0  0
    5.0766   -1.1909   -2.4255 H   0  0  0  0  0  0  0  0  0  0  0  0
    5.0265   -0.1290   -1.0275 H   0  0  0  0  0  0  0  0  0  0  0  0
    4.5476   -0.8436    1.1971 H   0  0  0  0  0  0  0  0  0  0  0  0
    2.0546   -1.1680    0.1464 H   0  0  0  0  0  0  0  0  0  0  0  0
    4.3277   -4.7494    1.1215 H   0  0  0  0  0  0  0  0  0  0  0  0
    6.6506   -3.1922    1.6484 H   0  0  0  0  0  0  0  0  0  0  0  0
    6.2133   -3.9098    4.3803 H   0  0  0  0  0  0  0  0  0  0  0  0
    5.8424   -4.9655    3.0964 H   0  0  0  0  0  0  0  0  0  0  0  0
  1  2  1  0
  1 32  1  0
  1 33  1  0
  1 34  1  0
  2 29  1  0
  2  3  2  0
 27  3  1  1
  3  4  1  0
  4  5  2  0
  4  6  1  0
  6 31  1  0
  6  7  1  1
  6  8  1  0
  7 35  1  0
  8  9  1  0
  8 36  1  0
  8 37  1  0
  9 16  1  0
  9 10  1  6
  9 11  1  0
 10 38  1  0
 10 39  1  0
 10 40  1  0
 11 12  1  0
 12 13  1  0
 12 14  1  0
 12 15  1  0
 13 41  1  0
 13 42  1  0
 13 43  1  0
 14 44  1  0
 14 45  1  0
 14 46  1  0
 15 16  1  0
 16 17  1  0
 16 47  1  1
 17 28  1  0
 17 18  1  0
 17 48  1  6
 18 19  1  0
 18 20  1  0
 18 49  1  1
 19 50  1  0
 20 28  1  0
 20 21  1  0
 20 51  1  1
 21 22  1  0
 21 23  1  0
 21 52  1  6
 22 53  1  0
 22 54  1  0
 22 55  1  0
 23 24  1  0
 23 25  1  0
 23 56  1  1
 24 57  1  0
 24 58  1  0
 24 59  1  0
 25 26  1  0
 25 27  1  0
 25 60  1  1
 26 61  1  0
 27 28  1  0
 27 29  1  0
 28 62  1  6
 29 30  1  6
 29 31  1  0
 30 63  1  0
 31 64  1  0
 31 65  1  0
M  END
>  <i_m_ct_stereo_status>  (256) 
1

>  <s_m_source_file>  (256) 
/var/tmp/pbs.5076255.sched01/tmptehp0e0j/84lnm28v0z.sdf

>  <i_m_source_file_index>  (256) 
21

>  <i_lp_mmshare_version>  (256) 
48012

>  <i_f3d_flags>  (256) 
1

>  <s_epik_input>  (256) 
W0NAQF0xMjNDND1DKFtDSDNdKVtDQEBdMyhbT0hdKVtDSDJdW0NAXShDND1PKShbT0hdKVtDSDJdW0NAXTUoW0NIM10pW0NASF0oT0MoTzUpKFtDSDNdKVtDSDNdKVtDQEhdNltDQEhdMltDQEhdKFtDQEBIXTZbT0hdKVtDQEBIXShbQ0gzXSlbQ0BASF0oW0NIM10pW0NASF0xW09IXQ==

>  <s_epik_cmdline>  (256) 
J2VwaWtfcHl0aG9uJywgJy1waHQnLCAnMi4wJywgJy1waCcsICc3LjAnLCAnLXRuJywgJzgnLCAnLW1hJywgJzIwMCcsICctaW1hZScsICc8aW5maWxlLm1hZT4nLCAnLW9tYWUnLCAnPG91dGZpbGUubWFlPic=

>  <r_lp_tautomer_probability>  (256) 
1

>  <r_epik_Ionization_Penalty>  (256) 
2.05868e-06

>  <r_epik_Ionization_Penalty_Charging>  (256) 
0

>  <r_epik_Ionization_Penalty_Neutral>  (256) 
2.05868e-06

>  <r_epik_State_Penalty>  (256) 
-0

>  <r_epik_Charging_Adjusted_Penalty>  (256) 
0

>  <i_epik_Tot_Q>  (256) 
0

>  <i_epik_Tot_abs_Q>  (256) 
0

>  <s_lp_Force_Field>  (256) 
OPLS3e

>  <r_lp_Energy>  (256) 
110.928

>  <b_lp_Chiralities_Consistent>  (256) 
1

>  <s_lp_Variant>  (256) 
71:0-1

>  <s_i_glide_gridfile>  (256) 
pfpi4k_grid

>  <i_i_glide_lignum>  (256) 
21

>  <i_i_glide_rotatable_bonds>  (256) 
4

>  <r_i_docking_score>  (256) 
-3.11132

>  <r_i_glide_ligand_efficiency>  (256) 
-0.100365

>  <r_i_glide_ligand_efficiency_sa>  (256) 
-0.315286

>  <r_i_glide_ligand_efficiency_ln>  (256) 
-0.701699

>  <r_i_glide_gscore>  (256) 
-3.11132

>  <r_i_glide_lipo>  (256) 
-0.265882

>  <r_i_glide_hbond>  (256) 
-0.149087

>  <r_i_glide_metal>  (256) 
-0

>  <r_i_glide_rewards>  (256) 
-0.446506

>  <r_i_glide_evdw>  (256) 
-11.5608

>  <r_i_glide_ecoul>  (256) 
-11.0535

>  <r_i_glide_erotb>  (256) 
0

>  <r_i_glide_esite>  (256) 
-0.0137818

>  <r_i_glide_emodel>  (256) 
-24.0575

>  <r_i_glide_energy>  (256) 
-22.6143

>  <r_i_glide_einternal>  (256) 
3.85413

>  <r_i_glide_intrahb_reward>  (256) 
-0

>  <i_i_glide_confnum>  (256) 
2

>  <i_i_glide_posenum>  (256) 
28

>  <r_i_glide_eff_state_penalty>  (256) 
0

>  <ligand_id>  (256) 
71

>  <original_smiles>  (256) 
CC1=C2C(=O)C3(O)CC4(C)OC(C)(C)OC4C4C(O)C5C(C)C(C)C(O)C2(C54)C1(O)C3

>  <smiles>  (256) 
[H]OC1([H])C2([H])C3([H])OC(C([H])([H])[H])(C([H])([H])[H])OC3(C([H])([H])[H])C([H])([H])C3(O[H])C(=O)C4=C(C([H])([H])[H])C(O[H])(C3([H])[H])C43C([H])(O[H])C([H])(C([H])([H])[H])C([H])(C([H])([H])[H])C1([H])C23[H]

$$$$
71:0:1
     RDKit          3D

 65 70  0  0  1  0  0  0  0  0999 V2000
    3.3421   -7.4024    4.4655 C   0  0  0  0  0  0  0  0  0  0  0  0
    3.2502   -5.9084    4.2311 C   0  0  0  0  0  0  0  0  0  0  0  0
    2.5278   -5.1993    3.3271 C   0  0  0  0  0  0  0  0  0  0  0  0
    2.6889   -5.6265    1.9044 C   0  0  0  0  0  0  0  0  0  0  0  0
    1.7430   -5.7951    1.1371 O   0  0  0  0  0  0  0  0  0  0  0  0
    4.1648   -5.8531    1.4359 C   0  0  1  0  0  0  0  0  0  0  0  0
    4.3155   -7.2389    1.1768 O   0  0  0  0  0  0  0  0  0  0  0  0
    4.5643   -5.2315    0.0525 C   0  0  0  0  0  0  0  0  0  0  0  0
    4.5291   -3.7034   -0.2425 C   0  0  1  0  0  0  0  0  0  0  0  0
    5.7837   -2.9089    0.1986 C   0  0  0  0  0  0  0  0  0  0  0  0
    4.5941   -3.5747   -1.6621 O   0  0  0  0  0  0  0  0  0  0  0  0
    3.7611   -2.5301   -2.0561 C   0  0  0  0  0  0  0  0  0  0  0  0
    4.6062   -1.3916   -2.6286 C   0  0  0  0  0  0  0  0  0  0  0  0
    2.7471   -3.0517   -3.0878 C   0  0  0  0  0  0  0  0  0  0  0  0
    3.1008   -2.0430   -0.9521 O   0  0  0  0  0  0  0  0  0  0  0  0
    3.1567   -3.0597    0.0153 C   0  0  2  0  0  0  0  0  0  0  0  0
    2.7968   -2.4826    1.3938 C   0  0  2  0  0  0  0  0  0  0  0  0
    3.1290   -0.9981    1.7201 C   0  0  1  0  0  0  0  0  0  0  0  0
    2.2024   -0.0286    1.2792 O   0  0  0  0  0  0  0  0  0  0  0  0
    3.0226   -1.4475    3.1809 C   0  0  2  0  0  0  0  0  0  0  0  0
    3.7576   -0.9304    4.4047 C   0  0  1  0  0  0  0  0  0  0  0  0
    3.3208    0.4901    4.8084 C   0  0  0  0  0  0  0  0  0  0  0  0
    3.6799   -2.0315    5.5293 C   0  0  1  0  0  0  0  0  0  0  0  0
    3.3260   -1.5187    6.9360 C   0  0  0  0  0  0  0  0  0  0  0  0
    2.8937   -3.3453    5.1635 C   0  0  1  0  0  0  0  0  0  0  0  0
    1.4895   -3.1412    5.2194 O   0  0  0  0  0  0  0  0  0  0  0  0
    3.3282   -3.9426    3.7759 C   0  0  2  0  0  0  0  0  0  0  0  0
    3.5227   -2.8139    2.7201 C   0  0  1  0  0  0  0  0  0  0  0  0
    4.4536   -5.0336    3.8754 C   0  0  1  0  0  0  0  0  0  0  0  0
    5.3845   -4.9326    4.9297 O   0  0  0  0  0  0  0  0  0  0  0  0
    5.1610   -5.5444    2.5967 C   0  0  0  0  0  0  0  0  0  0  0  0
    3.8653   -7.5809    5.4063 H   0  0  0  0  0  0  0  0  0  0  0  0
    3.8518   -7.9570    3.6757 H   0  0  0  0  0  0  0  0  0  0  0  0
    2.3362   -7.8145    4.5852 H   0  0  0  0  0  0  0  0  0  0  0  0
    4.1110   -7.7272    1.9592 H   0  0  0  0  0  0  0  0  0  0  0  0
    5.5556   -5.5945   -0.2218 H   0  0  0  0  0  0  0  0  0  0  0  0
    3.9088   -5.6814   -0.6925 H   0  0  0  0  0  0  0  0  0  0  0  0
    6.1227   -3.0928    1.2100 H   0  0  0  0  0  0  0  0  0  0  0  0
    5.6268   -1.8340    0.1235 H   0  0  0  0  0  0  0  0  0  0  0  0
    6.6232   -3.1515   -0.4567 H   0  0  0  0  0  0  0  0  0  0  0  0
    5.2743   -0.9790   -1.8723 H   0  0  0  0  0  0  0  0  0  0  0  0
    3.9621   -0.5850   -2.9855 H   0  0  0  0  0  0  0  0  0  0  0  0
    5.1900   -1.7903   -3.4549 H   0  0  0  0  0  0  0  0  0  0  0  0
    2.1432   -3.8512   -2.6642 H   0  0  0  0  0  0  0  0  0  0  0  0
    3.2748   -3.4341   -3.9594 H   0  0  0  0  0  0  0  0  0  0  0  0
    2.0811   -2.2518   -3.4031 H   0  0  0  0  0  0  0  0  0  0  0  0
    2.3853   -3.7705   -0.2860 H   0  0  0  0  0  0  0  0  0  0  0  0
    1.7247   -2.6221    1.5499 H   0  0  0  0  0  0  0  0  0  0  0  0
    4.1436   -0.6993    1.4494 H   0  0  0  0  0  0  0  0  0  0  0  0
    1.7025   -0.4040    0.5521 H   0  0  0  0  0  0  0  0  0  0  0  0
    1.9530   -1.4656    3.3963 H   0  0  0  0  0  0  0  0  0  0  0  0
    4.8144   -0.8367    4.1363 H   0  0  0  0  0  0  0  0  0  0  0  0
    2.2954    0.5247    5.1716 H   0  0  0  0  0  0  0  0  0  0  0  0
    3.4002    1.1729    3.9633 H   0  0  0  0  0  0  0  0  0  0  0  0
    3.9690    0.8804    5.5892 H   0  0  0  0  0  0  0  0  0  0  0  0
    4.7098   -2.3671    5.6257 H   0  0  0  0  0  0  0  0  0  0  0  0
    2.3094   -1.1248    6.9812 H   0  0  0  0  0  0  0  0  0  0  0  0
    4.0146   -0.7382    7.2570 H   0  0  0  0  0  0  0  0  0  0  0  0
    3.3990   -2.3257    7.6645 H   0  0  0  0  0  0  0  0  0  0  0  0
    3.0983   -4.0498    5.9743 H   0  0  0  0  0  0  0  0  0  0  0  0
    1.2532   -2.5347    4.5352 H   0  0  0  0  0  0  0  0  0  0  0  0
    4.5923   -2.7185    2.5880 H   0  0  0  0  0  0  0  0  0  0  0  0
    4.9215   -5.1413    5.7227 H   0  0  0  0  0  0  0  0  0  0  0  0
    5.7628   -6.4247    2.8314 H   0  0  0  0  0  0  0  0  0  0  0  0
    5.8984   -4.8193    2.2855 H   0  0  0  0  0  0  0  0  0  0  0  0
  1  2  1  0
  1 32  1  0
  1 33  1  0
  1 34  1  0
  2 29  1  0
  2  3  2  0
 27  3  1  6
  3  4  1  0
  4  5  2  0
  4  6  1  0
  6 31  1  0
  6  7  1  6
  6  8  1  0
  7 35  1  0
  8  9  1  0
  8 36  1  0
  8 37  1  0
  9 16  1  0
  9 10  1  1
  9 11  1  0
 10 38  1  0
 10 39  1  0
 10 40  1  0
 11 12  1  0
 12 13  1  0
 12 14  1  0
 12 15  1  0
 13 41  1  0
 13 42  1  0
 13 43  1  0
 14 44  1  0
 14 45  1  0
 14 46  1  0
 15 16  1  0
 16 17  1  0
 16 47  1  6
 17 28  1  0
 17 18  1  0
 17 48  1  1
 18 19  1  0
 18 20  1  0
 18 49  1  1
 19 50  1  0
 20 28  1  0
 20 21  1  0
 20 51  1  1
 21 22  1  0
 21 23  1  0
 21 52  1  6
 22 53  1  0
 22 54  1  0
 22 55  1  0
 23 24  1  0
 23 25  1  0
 23 56  1  1
 24 57  1  0
 24 58  1  0
 24 59  1  0
 25 26  1  0
 25 27  1  0
 25 60  1  1
 26 61  1  0
 27 28  1  0
 27 29  1  0
 28 62  1  6
 29 30  1  1
 29 31  1  0
 30 63  1  0
 31 64  1  0
 31 65  1  0
M  END
>  <i_m_ct_stereo_status>  (257) 
1

>  <s_m_source_file>  (257) 
/var/tmp/pbs.5076255.sched01/tmptehp0e0j/84lnm28v0z.sdf

>  <i_m_source_file_index>  (257) 
21

>  <i_lp_mmshare_version>  (257) 
48012

>  <i_f3d_flags>  (257) 
1

>  <s_epik_input>  (257) 
W0NAQF0xMjNDND1DKFtDSDNdKVtDQEBdMyhbT0hdKVtDSDJdW0NAXShDND1PKShbT0hdKVtDSDJdW0NAXTUoW0NIM10pW0NASF0oT0MoTzUpKFtDSDNdKVtDSDNdKVtDQEhdNltDQEhdMltDQEhdKFtDQEBIXTZbT0hdKVtDQEBIXShbQ0gzXSlbQ0BASF0oW0NIM10pW0NASF0xW09IXQ==

>  <s_epik_cmdline>  (257) 
J2VwaWtfcHl0aG9uJywgJy1waHQnLCAnMi4wJywgJy1waCcsICc3LjAnLCAnLXRuJywgJzgnLCAnLW1hJywgJzIwMCcsICctaW1hZScsICc8aW5maWxlLm1hZT4nLCAnLW9tYWUnLCAnPG91dGZpbGUubWFlPic=

>  <r_lp_tautomer_probability>  (257) 
1

>  <r_epik_Ionization_Penalty>  (257) 
2.05868e-06

>  <r_epik_Ionization_Penalty_Charging>  (257) 
0

>  <r_epik_Ionization_Penalty_Neutral>  (257) 
2.05868e-06

>  <r_epik_State_Penalty>  (257) 
-0

>  <r_epik_Charging_Adjusted_Penalty>  (257) 
0

>  <i_epik_Tot_Q>  (257) 
0

>  <i_epik_Tot_abs_Q>  (257) 
0

>  <s_lp_Force_Field>  (257) 
OPLS3e

>  <r_lp_Energy>  (257) 
110.928

>  <b_lp_Chiralities_Consistent>  (257) 
1

>  <s_lp_Variant>  (257) 
71:0-1

>  <s_i_glide_gridfile>  (257) 
pfpi4k_grid

>  <i_i_glide_lignum>  (257) 
21

>  <i_i_glide_rotatable_bonds>  (257) 
4

>  <r_i_docking_score>  (257) 
-2.82938

>  <r_i_glide_ligand_efficiency>  (257) 
-0.0912703

>  <r_i_glide_ligand_efficiency_sa>  (257) 
-0.286715

>  <r_i_glide_ligand_efficiency_ln>  (257) 
-0.638112

>  <r_i_glide_gscore>  (257) 
-2.82938

>  <r_i_glide_lipo>  (257) 
-0.213802

>  <r_i_glide_hbond>  (257) 
-0.0804697

>  <r_i_glide_metal>  (257) 
-0

>  <r_i_glide_rewards>  (257) 
-0.446437

>  <r_i_glide_evdw>  (257) 
-26.8129

>  <r_i_glide_ecoul>  (257) 
-4.80051

>  <r_i_glide_erotb>  (257) 
0

>  <r_i_glide_esite>  (257) 
-0.0279494

>  <r_i_glide_emodel>  (257) 
-35.3623

>  <r_i_glide_energy>  (257) 
-31.6134

>  <r_i_glide_einternal>  (257) 
3.11943

>  <r_i_glide_intrahb_reward>  (257) 
-0

>  <i_i_glide_confnum>  (257) 
2

>  <i_i_glide_posenum>  (257) 
11

>  <r_i_glide_eff_state_penalty>  (257) 
0

>  <ligand_id>  (257) 
71

>  <original_smiles>  (257) 
CC1=C2C(=O)C3(O)CC4(C)OC(C)(C)OC4C4C(O)C5C(C)C(C)C(O)C2(C54)C1(O)C3

>  <smiles>  (257) 
[H]OC1([H])C2([H])C3([H])OC(C([H])([H])[H])(C([H])([H])[H])OC3(C([H])([H])[H])C([H])([H])C3(O[H])C(=O)C4=C(C([H])([H])[H])C(O[H])(C3([H])[H])C43C([H])(O[H])C([H])(C([H])([H])[H])C([H])(C([H])([H])[H])C1([H])C23[H]

$$$$
71:0:2
     RDKit          3D

 65 70  0  0  1  0  0  0  0  0999 V2000
    3.2112   -7.4438    4.4567 C   0  0  0  0  0  0  0  0  0  0  0  0
    3.1930   -5.9478    4.2251 C   0  0  0  0  0  0  0  0  0  0  0  0
    2.5093   -5.2039    3.3172 C   0  0  0  0  0  0  0  0  0  0  0  0
    2.6501   -5.6420    1.8979 C   0  0  0  0  0  0  0  0  0  0  0  0
    1.6977   -5.7718    1.1270 O   0  0  0  0  0  0  0  0  0  0  0  0
    4.1137   -5.9470    1.4332 C   0  0  1  0  0  0  0  0  0  0  0  0
    4.1946   -7.3389    1.1745 O   0  0  0  0  0  0  0  0  0  0  0  0
    4.5426   -5.3416    0.0510 C   0  0  0  0  0  0  0  0  0  0  0  0
    4.5880   -3.8107   -0.2433 C   0  0  1  0  0  0  0  0  0  0  0  0
    5.8839   -3.0878    0.1970 C   0  0  0  0  0  0  0  0  0  0  0  0
    4.6552   -3.6879   -1.6634 O   0  0  0  0  0  0  0  0  0  0  0  0
    3.8794   -2.5965   -2.0530 C   0  0  0  0  0  0  0  0  0  0  0  0
    4.7807   -1.5076   -2.6242 C   0  0  0  0  0  0  0  0  0  0  0  0
    2.8394   -3.0556   -3.0869 C   0  0  0  0  0  0  0  0  0  0  0  0
    3.2503   -2.0701   -0.9482 O   0  0  0  0  0  0  0  0  0  0  0  0
    3.2505   -3.0953    0.0111 C   0  0  2  0  0  0  0  0  0  0  0  0
    2.9162   -2.5057    1.3902 C   0  0  2  0  0  0  0  0  0  0  0  0
    3.3181   -1.0390    1.7210 C   0  0  1  0  0  0  0  0  0  0  0  0
    2.4258   -0.0304    1.2924 O   0  0  0  0  0  0  0  0  0  0  0  0
    3.2025   -1.4850    3.1804 C   0  0  2  0  0  0  0  0  0  0  0  0
    3.9650   -1.0085    4.4040 C   0  0  1  0  0  0  0  0  0  0  0  0
    3.6032    0.4334    4.8068 C   0  0  0  0  0  0  0  0  0  0  0  0
    3.8275   -2.1054    5.5268 C   0  0  1  0  0  0  0  0  0  0  0  0
    3.5014   -1.5736    6.9334 C   0  0  0  0  0  0  0  0  0  0  0  0
    2.9759   -3.3774    5.1592 C   0  0  1  0  0  0  0  0  0  0  0  0
    1.5849   -3.0966    5.2169 O   0  0  0  0  0  0  0  0  0  0  0  0
    3.3766   -3.9938    3.7695 C   0  0  2  0  0  0  0  0  0  0  0  0
    3.6240   -2.8749    2.7154 C   0  0  1  0  0  0  0  0  0  0  0  0
    4.4411   -5.1426    3.8692 C   0  0  1  0  0  0  0  0  0  0  0  0
    5.3643   -5.0961    4.9318 O   0  0  0  0  0  0  0  0  0  0  0  0
    5.1249   -5.6891    2.5917 C   0  0  0  0  0  0  0  0  0  0  0  0
    3.7238   -7.6467    5.3996 H   0  0  0  0  0  0  0  0  0  0  0  0
    3.6917   -8.0318    3.6712 H   0  0  0  0  0  0  0  0  0  0  0  0
    2.1864   -7.8026    4.5808 H   0  0  0  0  0  0  0  0  0  0  0  0
    3.9592   -7.8120    1.9559 H   0  0  0  0  0  0  0  0  0  0  0  0
    5.5144   -5.7591   -0.2248 H   0  0  0  0  0  0  0  0  0  0  0  0
    3.8632   -5.7561   -0.6985 H   0  0  0  0  0  0  0  0  0  0  0  0
    6.2141   -3.2885    1.2072 H   0  0  0  0  0  0  0  0  0  0  0  0
    5.7847   -2.0077    0.1223 H   0  0  0  0  0  0  0  0  0  0  0  0
    6.7081   -3.3752   -0.4592 H   0  0  0  0  0  0  0  0  0  0  0  0
    5.4659   -1.1327   -1.8660 H   0  0  0  0  0  0  0  0  0  0  0  0
    4.1810   -0.6693   -2.9855 H   0  0  0  0  0  0  0  0  0  0  0  0
    5.3564   -1.9299   -3.4456 H   0  0  0  0  0  0  0  0  0  0  0  0
    2.2058   -3.8422   -2.6753 H   0  0  0  0  0  0  0  0  0  0  0  0
    3.3514   -3.4634   -3.9592 H   0  0  0  0  0  0  0  0  0  0  0  0
    2.2122   -2.2222   -3.4033 H   0  0  0  0  0  0  0  0  0  0  0  0
    2.4446   -3.7662   -0.2920 H   0  0  0  0  0  0  0  0  0  0  0  0
    1.8364   -2.5921    1.5439 H   0  0  0  0  0  0  0  0  0  0  0  0
    4.3444   -0.7895    1.4464 H   0  0  0  0  0  0  0  0  0  0  0  0
    1.9028   -0.3919    0.5776 H   0  0  0  0  0  0  0  0  0  0  0  0
    2.1341   -1.4483    3.3948 H   0  0  0  0  0  0  0  0  0  0  0  0
    5.0246   -0.9693    4.1343 H   0  0  0  0  0  0  0  0  0  0  0  0
    2.5811    0.5219    5.1702 H   0  0  0  0  0  0  0  0  0  0  0  0
    3.7183    1.1122    3.9622 H   0  0  0  0  0  0  0  0  0  0  0  0
    4.2704    0.7891    5.5881 H   0  0  0  0  0  0  0  0  0  0  0  0
    4.8392   -2.4926    5.6269 H   0  0  0  0  0  0  0  0  0  0  0  0
    2.5074   -1.1268    6.9792 H   0  0  0  0  0  0  0  0  0  0  0  0
    4.2305   -0.8302    7.2558 H   0  0  0  0  0  0  0  0  0  0  0  0
    3.5323   -2.3833    7.6613 H   0  0  0  0  0  0  0  0  0  0  0  0
    3.1487   -4.0936    5.9671 H   0  0  0  0  0  0  0  0  0  0  0  0
    1.3804   -2.4827    4.5304 H   0  0  0  0  0  0  0  0  0  0  0  0
    4.6949   -2.8316    2.5802 H   0  0  0  0  0  0  0  0  0  0  0  0
    6.0560   -4.5239    4.6496 H   0  0  0  0  0  0  0  0  0  0  0  0
    5.6757   -6.5999    2.8266 H   0  0  0  0  0  0  0  0  0  0  0  0
    5.9028   -5.0098    2.2702 H   0  0  0  0  0  0  0  0  0  0  0  0
  1  2  1  0
  1 32  1  0
  1 33  1  0
  1 34  1  0
  2 29  1  0
  2  3  2  0
 27  3  1  6
  3  4  1  0
  4  5  2  0
  4  6  1  0
  6 31  1  0
  6  7  1  6
  6  8  1  0
  7 35  1  0
  8  9  1  0
  8 36  1  0
  8 37  1  0
  9 16  1  0
  9 10  1  1
  9 11  1  0
 10 38  1  0
 10 39  1  0
 10 40  1  0
 11 12  1  0
 12 13  1  0
 12 14  1  0
 12 15  1  0
 13 41  1  0
 13 42  1  0
 13 43  1  0
 14 44  1  0
 14 45  1  0
 14 46  1  0
 15 16  1  0
 16 17  1  0
 16 47  1  6
 17 28  1  0
 17 18  1  0
 17 48  1  1
 18 19  1  0
 18 20  1  0
 18 49  1  6
 19 50  1  0
 20 28  1  0
 20 21  1  0
 20 51  1  1
 21 22  1  0
 21 23  1  0
 21 52  1  6
 22 53  1  0
 22 54  1  0
 22 55  1  0
 23 24  1  0
 23 25  1  0
 23 56  1  1
 24 57  1  0
 24 58  1  0
 24 59  1  0
 25 26  1  0
 25 27  1  0
 25 60  1  1
 26 61  1  0
 27 28  1  0
 27 29  1  0
 28 62  1  6
 29 30  1  1
 29 31  1  0
 30 63  1  0
 31 64  1  0
 31 65  1  0
M  END
>  <i_m_ct_stereo_status>  (258) 
1

>  <s_m_source_file>  (258) 
/var/tmp/pbs.5076255.sched01/tmptehp0e0j/84lnm28v0z.sdf

>  <i_m_source_file_index>  (258) 
21

>  <i_lp_mmshare_version>  (258) 
48012

>  <i_f3d_flags>  (258) 
1

>  <s_epik_input>  (258) 
W0NAQF0xMjNDND1DKFtDSDNdKVtDQEBdMyhbT0hdKVtDSDJdW0NAXShDND1PKShbT0hdKVtDSDJdW0NAXTUoW0NIM10pW0NASF0oT0MoTzUpKFtDSDNdKVtDSDNdKVtDQEhdNltDQEhdMltDQEhdKFtDQEBIXTZbT0hdKVtDQEBIXShbQ0gzXSlbQ0BASF0oW0NIM10pW0NASF0xW09IXQ==

>  <s_epik_cmdline>  (258) 
J2VwaWtfcHl0aG9uJywgJy1waHQnLCAnMi4wJywgJy1waCcsICc3LjAnLCAnLXRuJywgJzgnLCAnLW1hJywgJzIwMCcsICctaW1hZScsICc8aW5maWxlLm1hZT4nLCAnLW9tYWUnLCAnPG91dGZpbGUubWFlPic=

>  <r_lp_tautomer_probability>  (258) 
1

>  <r_epik_Ionization_Penalty>  (258) 
2.05868e-06

>  <r_epik_Ionization_Penalty_Charging>  (258) 
0

>  <r_epik_Ionization_Penalty_Neutral>  (258) 
2.05868e-06

>  <r_epik_State_Penalty>  (258) 
-0

>  <r_epik_Charging_Adjusted_Penalty>  (258) 
0

>  <i_epik_Tot_Q>  (258) 
0

>  <i_epik_Tot_abs_Q>  (258) 
0

>  <s_lp_Force_Field>  (258) 
OPLS3e

>  <r_lp_Energy>  (258) 
110.928

>  <b_lp_Chiralities_Consistent>  (258) 
1

>  <s_lp_Variant>  (258) 
71:0-1

>  <s_i_glide_gridfile>  (258) 
pfpi4k_grid

>  <i_i_glide_lignum>  (258) 
21

>  <i_i_glide_rotatable_bonds>  (258) 
4

>  <r_i_docking_score>  (258) 
-2.73742

>  <r_i_glide_ligand_efficiency>  (258) 
-0.088304

>  <r_i_glide_ligand_efficiency_sa>  (258) 
-0.277396

>  <r_i_glide_ligand_efficiency_ln>  (258) 
-0.617373

>  <r_i_glide_gscore>  (258) 
-2.73742

>  <r_i_glide_lipo>  (258) 
-0.210252

>  <r_i_glide_hbond>  (258) 
-0.0974662

>  <r_i_glide_metal>  (258) 
-0

>  <r_i_glide_rewards>  (258) 
-0.446437

>  <r_i_glide_evdw>  (258) 
-27.1017

>  <r_i_glide_ecoul>  (258) 
-4.02255

>  <r_i_glide_erotb>  (258) 
0

>  <r_i_glide_esite>  (258) 
-0.0248019

>  <r_i_glide_emodel>  (258) 
-34.7557

>  <r_i_glide_energy>  (258) 
-31.1242

>  <r_i_glide_einternal>  (258) 
2.88447

>  <r_i_glide_intrahb_reward>  (258) 
-0

>  <i_i_glide_confnum>  (258) 
2

>  <i_i_glide_posenum>  (258) 
20

>  <r_i_glide_eff_state_penalty>  (258) 
0

>  <ligand_id>  (258) 
71

>  <original_smiles>  (258) 
CC1=C2C(=O)C3(O)CC4(C)OC(C)(C)OC4C4C(O)C5C(C)C(C)C(O)C2(C54)C1(O)C3

>  <smiles>  (258) 
[H]OC1([H])C2([H])C3([H])OC(C([H])([H])[H])(C([H])([H])[H])OC3(C([H])([H])[H])C([H])([H])C3(O[H])C(=O)C4=C(C([H])([H])[H])C(O[H])(C3([H])[H])C43C([H])(O[H])C([H])(C([H])([H])[H])C([H])(C([H])([H])[H])C1([H])C23[H]

$$$$
73:0:0
     RDKit          3D

 46 49  0  0  1  0  0  0  0  0999 V2000
    2.2163   -0.4979    2.0796 C   0  0  0  0  0  0  0  0  0  0  0  0
    3.2106   -1.3076    2.9520 C   0  0  0  0  0  0  0  0  0  0  0  0
    3.5573   -0.4301    4.1604 C   0  0  0  0  0  0  0  0  0  0  0  0
    4.4921   -1.8735    2.2314 C   0  0  2  0  0  0  0  0  0  0  0  0
    5.3116   -0.7268    1.5748 C   0  0  0  0  0  0  0  0  0  0  0  0
    6.4472   -1.1691    0.6428 C   0  0  0  0  0  0  0  0  0  0  0  0
    6.0290   -2.2977   -0.3100 C   0  0  2  0  0  0  0  0  0  0  0  0
    4.9050   -1.9220   -1.3276 C   0  0  1  0  0  0  0  0  0  0  0  0
    5.0018   -2.7593   -2.6141 C   0  0  0  0  0  0  0  0  0  0  0  0
    3.4530   -1.9650   -0.7581 C   0  0  0  0  0  0  0  0  0  0  0  0
    3.1503   -3.0411    0.3264 C   0  0  1  0  0  0  0  0  0  0  0  0
    2.8071   -4.2759   -0.3071 O   0  0  0  0  0  0  0  0  0  0  0  0
    2.5190   -5.3169    0.4884 C   0  0  0  0  0  0  0  0  0  0  0  0
    1.4521   -5.9399    0.4328 O   0  0  0  0  0  0  0  0  0  0  0  0
    3.6531   -5.6910    1.4368 C   0  0  0  0  0  0  0  0  0  0  0  0
    4.2728   -4.4723    2.1666 C   0  0  1  0  0  0  0  0  0  0  0  0
    5.7728   -4.7393    2.4424 C   0  0  0  0  0  0  0  0  0  0  0  0
    6.5105   -3.9986    1.4615 O   0  0  0  0  0  0  0  0  0  0  0  0
    5.5831   -3.5012    0.5190 C   0  0  1  0  0  0  0  0  0  0  0  0
    4.3194   -3.1774    1.3285 C   0  0  2  0  0  0  0  0  0  0  0  0
    2.6777    0.3640    1.5970 H   0  0  0  0  0  0  0  0  0  0  0  0
    1.4319   -0.0525    2.6970 H   0  0  0  0  0  0  0  0  0  0  0  0
    1.7055   -1.0704    1.3209 H   0  0  0  0  0  0  0  0  0  0  0  0
    2.6623   -2.1652    3.3373 H   0  0  0  0  0  0  0  0  0  0  0  0
    4.1148    0.4580    3.8627 H   0  0  0  0  0  0  0  0  0  0  0  0
    4.1357   -0.9604    4.9108 H   0  0  0  0  0  0  0  0  0  0  0  0
    2.6470   -0.0737    4.6463 H   0  0  0  0  0  0  0  0  0  0  0  0
    5.1315   -2.2005    3.0445 H   0  0  0  0  0  0  0  0  0  0  0  0
    4.6742   -0.0643    1.0001 H   0  0  0  0  0  0  0  0  0  0  0  0
    5.7474   -0.1044    2.3573 H   0  0  0  0  0  0  0  0  0  0  0  0
    6.7903   -0.2998    0.0807 H   0  0  0  0  0  0  0  0  0  0  0  0
    7.2955   -1.4946    1.2424 H   0  0  0  0  0  0  0  0  0  0  0  0
    6.9261   -2.5722   -0.8732 H   0  0  0  0  0  0  0  0  0  0  0  0
    5.0827   -0.8917   -1.6511 H   0  0  0  0  0  0  0  0  0  0  0  0
    4.8103   -3.8167   -2.4287 H   0  0  0  0  0  0  0  0  0  0  0  0
    5.9902   -2.6680   -3.0650 H   0  0  0  0  0  0  0  0  0  0  0  0
    4.2798   -2.4167   -3.3543 H   0  0  0  0  0  0  0  0  0  0  0  0
    3.2405   -0.9793   -0.3452 H   0  0  0  0  0  0  0  0  0  0  0  0
    2.7318   -2.0664   -1.5654 H   0  0  0  0  0  0  0  0  0  0  0  0
    2.2460   -2.7829    0.8579 H   0  0  0  0  0  0  0  0  0  0  0  0
    3.2792   -6.4323    2.1412 H   0  0  0  0  0  0  0  0  0  0  0  0
    4.3933   -6.1806    0.8044 H   0  0  0  0  0  0  0  0  0  0  0  0
    3.7190   -4.3061    3.0867 H   0  0  0  0  0  0  0  0  0  0  0  0
    6.0549   -4.3748    3.4333 H   0  0  0  0  0  0  0  0  0  0  0  0
    6.0302   -5.8059    2.3941 H   0  0  0  0  0  0  0  0  0  0  0  0
    5.4024   -4.3293   -0.1707 H   0  0  0  0  0  0  0  0  0  0  0  0
  1  2  1  0
  1 21  1  0
  1 22  1  0
  1 23  1  0
  2  3  1  0
  2  4  1  0
  2 24  1  0
  3 25  1  0
  3 26  1  0
  3 27  1  0
 20  4  1  1
  4  5  1  0
  4 28  1  1
  5  6  1  0
  5 29  1  0
  5 30  1  0
  6  7  1  0
  6 31  1  0
  6 32  1  0
  7 19  1  0
  7  8  1  0
  7 33  1  6
  8  9  1  0
  8 10  1  0
  8 34  1  6
  9 35  1  0
  9 36  1  0
  9 37  1  0
 10 11  1  0
 10 38  1  0
 10 39  1  0
 11 20  1  0
 11 12  1  0
 11 40  1  1
 12 13  1  0
 13 14  2  0
 13 15  1  0
 15 16  1  0
 15 41  1  0
 15 42  1  0
 16 20  1  0
 16 17  1  0
 16 43  1  1
 17 18  1  0
 17 44  1  0
 17 45  1  0
 18 19  1  0
 19 20  1  0
 19 46  1  6
M  END
>  <i_m_ct_stereo_status>  (259) 
1

>  <s_m_source_file>  (259) 
/var/tmp/pbs.5076255.sched01/tmptehp0e0j/84lnm28v0z.sdf

>  <i_m_source_file_index>  (259) 
23

>  <i_lp_mmshare_version>  (259) 
48012

>  <i_f3d_flags>  (259) 
0

>  <s_epik_input>  (259) 
W0NIM11bQ0hdKFtDSDNdKVtDQEBIXTFbQ0gyXVtDSDJdW0NASF0oW0NAQEhdKFtDSDNdKVtDSDJdW0NAQEhdMltDQEBdMTM0KVtDQEhdNE9bQ0gyXVtDQEBIXTNbQ0gyXUMoTzIpPU8=

>  <s_epik_cmdline>  (259) 
J2VwaWtfcHl0aG9uJywgJy1waHQnLCAnMi4wJywgJy1waCcsICc3LjAnLCAnLXRuJywgJzgnLCAnLW1hJywgJzIwMCcsICctaW1hZScsICc8aW5maWxlLm1hZT4nLCAnLW9tYWUnLCAnPG91dGZpbGUubWFlPic=

>  <r_lp_tautomer_probability>  (259) 
1

>  <r_epik_Ionization_Penalty>  (259) 
3.99374e-10

>  <r_epik_Ionization_Penalty_Charging>  (259) 
0

>  <r_epik_Ionization_Penalty_Neutral>  (259) 
3.99374e-10

>  <r_epik_State_Penalty>  (259) 
-0

>  <r_epik_Charging_Adjusted_Penalty>  (259) 
0

>  <i_epik_Tot_Q>  (259) 
0

>  <i_epik_Tot_abs_Q>  (259) 
0

>  <s_epik_Chemistry_Notes>  (259) 
This compound has an ester and may undergo hydrolysis at high or low pH.

>  <s_lp_Force_Field>  (259) 
OPLS3e

>  <r_lp_Energy>  (259) 
45.846

>  <b_lp_Chiralities_Consistent>  (259) 
1

>  <s_lp_Variant>  (259) 
73:0-1

>  <s_i_glide_gridfile>  (259) 
pfpi4k_grid

>  <i_i_glide_lignum>  (259) 
23

>  <i_i_glide_rotatable_bonds>  (259) 
1

>  <r_i_docking_score>  (259) 
-3.51856

>  <r_i_glide_ligand_efficiency>  (259) 
-0.175928

>  <r_i_glide_ligand_efficiency_sa>  (259) 
-0.477542

>  <r_i_glide_ligand_efficiency_ln>  (259) 
-0.880579

>  <r_i_glide_gscore>  (259) 
-3.51856

>  <r_i_glide_lipo>  (259) 
-0.497299

>  <r_i_glide_hbond>  (259) 
-0.158847

>  <r_i_glide_metal>  (259) 
-0

>  <r_i_glide_rewards>  (259) 
-1.511

>  <r_i_glide_evdw>  (259) 
-18.1099

>  <r_i_glide_ecoul>  (259) 
-2.64991

>  <r_i_glide_erotb>  (259) 
0

>  <r_i_glide_esite>  (259) 
-0.0484309

>  <r_i_glide_emodel>  (259) 
-22.9418

>  <r_i_glide_energy>  (259) 
-20.7598

>  <r_i_glide_einternal>  (259) 
2.2722

>  <r_i_glide_intrahb_reward>  (259) 
-0

>  <i_i_glide_confnum>  (259) 
2

>  <i_i_glide_posenum>  (259) 
26

>  <r_i_glide_eff_state_penalty>  (259) 
0

>  <ligand_id>  (259) 
73

>  <original_smiles>  (259) 
CC(C)C1CCC2C(C)CC3OC(=O)CC4COC2C431

>  <smiles>  (259) 
[H]C([H])([H])C([H])(C([H])([H])[H])C1([H])C([H])([H])C([H])([H])C2([H])C3([H])OC([H])([H])C4([H])C([H])([H])C(=O)OC([H])(C([H])([H])C2([H])C([H])([H])[H])C341

$$$$
73:0:1
     RDKit          3D

 46 49  0  0  1  0  0  0  0  0999 V2000
    2.6859    0.4154    2.7874 C   0  0  0  0  0  0  0  0  0  0  0  0
    2.5201   -0.9585    2.1007 C   0  0  0  0  0  0  0  0  0  0  0  0
    1.6106   -1.8215    2.9933 C   0  0  0  0  0  0  0  0  0  0  0  0
    3.8964   -1.6023    1.7018 C   0  0  2  0  0  0  0  0  0  0  0  0
    4.6546   -0.6005    0.7862 C   0  0  0  0  0  0  0  0  0  0  0  0
    5.8826   -1.1570    0.0705 C   0  0  0  0  0  0  0  0  0  0  0  0
    5.6462   -2.5215   -0.5780 C   0  0  2  0  0  0  0  0  0  0  0  0
    4.6162   -2.5065   -1.7452 C   0  0  1  0  0  0  0  0  0  0  0  0
    4.8828   -3.6364   -2.7534 C   0  0  0  0  0  0  0  0  0  0  0  0
    3.1258   -2.4885   -1.2946 C   0  0  0  0  0  0  0  0  0  0  0  0
    2.7679   -3.2481    0.0112 C   0  0  1  0  0  0  0  0  0  0  0  0
    2.4726   -4.6059   -0.2983 O   0  0  0  0  0  0  0  0  0  0  0  0
    2.2238   -5.4776    0.6933 C   0  0  0  0  0  0  0  0  0  0  0  0
    1.2568   -6.2415    0.7087 O   0  0  0  0  0  0  0  0  0  0  0  0
    3.3016   -5.5209    1.7729 C   0  0  0  0  0  0  0  0  0  0  0  0
    3.8039   -4.1327    2.2307 C   0  0  1  0  0  0  0  0  0  0  0  0
    5.2833   -4.1962    2.6812 C   0  0  0  0  0  0  0  0  0  0  0  0
    6.0640   -3.6703    1.6022 O   0  0  0  0  0  0  0  0  0  0  0  0
    5.1931   -3.5039    0.4983 C   0  0  1  0  0  0  0  0  0  0  0  0
    3.8523   -3.0772    1.1112 C   0  0  2  0  0  0  0  0  0  0  0  0
    3.3310    0.3457    3.6644 H   0  0  0  0  0  0  0  0  0  0  0  0
    1.7214    0.8094    3.1159 H   0  0  0  0  0  0  0  0  0  0  0  0
    3.1042    1.1670    2.1162 H   0  0  0  0  0  0  0  0  0  0  0  0
    1.9608   -0.7719    1.1864 H   0  0  0  0  0  0  0  0  0  0  0  0
    2.0928   -2.0514    3.9432 H   0  0  0  0  0  0  0  0  0  0  0  0
    1.3211   -2.7526    2.5083 H   0  0  0  0  0  0  0  0  0  0  0  0
    0.6807   -1.2947    3.2177 H   0  0  0  0  0  0  0  0  0  0  0  0
    4.4819   -1.6415    2.6198 H   0  0  0  0  0  0  0  0  0  0  0  0
    3.9780   -0.1662    0.0567 H   0  0  0  0  0  0  0  0  0  0  0  0
    4.9971    0.2405    1.3811 H   0  0  0  0  0  0  0  0  0  0  0  0
    6.2102   -0.4349   -0.6770 H   0  0  0  0  0  0  0  0  0  0  0  0
    6.6973   -1.2402    0.7889 H   0  0  0  0  0  0  0  0  0  0  0  0
    6.6062   -2.8570   -0.9720 H   0  0  0  0  0  0  0  0  0  0  0  0
    4.7756   -1.5868   -2.3135 H   0  0  0  0  0  0  0  0  0  0  0  0
    4.7402   -4.6222   -2.3094 H   0  0  0  0  0  0  0  0  0  0  0  0
    5.9034   -3.5820   -3.1333 H   0  0  0  0  0  0  0  0  0  0  0  0
    4.2155   -3.5592   -3.6134 H   0  0  0  0  0  0  0  0  0  0  0  0
    2.8391   -1.4485   -1.1765 H   0  0  0  0  0  0  0  0  0  0  0  0
    2.4796   -2.8435   -2.0950 H   0  0  0  0  0  0  0  0  0  0  0  0
    1.8154   -2.8612    0.3626 H   0  0  0  0  0  0  0  0  0  0  0  0
    2.9140   -6.0740    2.6276 H   0  0  0  0  0  0  0  0  0  0  0  0
    4.1256   -6.1101    1.3691 H   0  0  0  0  0  0  0  0  0  0  0  0
    3.1901   -3.8277    3.0705 H   0  0  0  0  0  0  0  0  0  0  0  0
    5.4452   -3.5595    3.5553 H   0  0  0  0  0  0  0  0  0  0  0  0
    5.6054   -5.2083    2.9429 H   0  0  0  0  0  0  0  0  0  0  0  0
    5.1076   -4.4890    0.0394 H   0  0  0  0  0  0  0  0  0  0  0  0
  1  2  1  0
  1 21  1  0
  1 22  1  0
  1 23  1  0
  2  3  1  0
  2  4  1  0
  2 24  1  0
  3 25  1  0
  3 26  1  0
  3 27  1  0
 20  4  1  1
  4  5  1  0
  4 28  1  1
  5  6  1  0
  5 29  1  0
  5 30  1  0
  6  7  1  0
  6 31  1  0
  6 32  1  0
  7 19  1  0
  7  8  1  0
  7 33  1  6
  8  9  1  0
  8 10  1  0
  8 34  1  6
  9 35  1  0
  9 36  1  0
  9 37  1  0
 10 11  1  0
 10 38  1  0
 10 39  1  0
 11 20  1  0
 11 12  1  0
 11 40  1  1
 12 13  1  0
 13 14  2  0
 13 15  1  0
 15 16  1  0
 15 41  1  0
 15 42  1  0
 16 20  1  0
 16 17  1  0
 16 43  1  1
 17 18  1  0
 17 44  1  0
 17 45  1  0
 18 19  1  0
 19 20  1  0
 19 46  1  6
M  END
>  <i_m_ct_stereo_status>  (260) 
1

>  <s_m_source_file>  (260) 
/var/tmp/pbs.5076255.sched01/tmptehp0e0j/84lnm28v0z.sdf

>  <i_m_source_file_index>  (260) 
23

>  <i_lp_mmshare_version>  (260) 
48012

>  <i_f3d_flags>  (260) 
0

>  <s_epik_input>  (260) 
W0NIM11bQ0hdKFtDSDNdKVtDQEBIXTFbQ0gyXVtDSDJdW0NASF0oW0NAQEhdKFtDSDNdKVtDSDJdW0NAQEhdMltDQEBdMTM0KVtDQEhdNE9bQ0gyXVtDQEBIXTNbQ0gyXUMoTzIpPU8=

>  <s_epik_cmdline>  (260) 
J2VwaWtfcHl0aG9uJywgJy1waHQnLCAnMi4wJywgJy1waCcsICc3LjAnLCAnLXRuJywgJzgnLCAnLW1hJywgJzIwMCcsICctaW1hZScsICc8aW5maWxlLm1hZT4nLCAnLW9tYWUnLCAnPG91dGZpbGUubWFlPic=

>  <r_lp_tautomer_probability>  (260) 
1

>  <r_epik_Ionization_Penalty>  (260) 
3.99374e-10

>  <r_epik_Ionization_Penalty_Charging>  (260) 
0

>  <r_epik_Ionization_Penalty_Neutral>  (260) 
3.99374e-10

>  <r_epik_State_Penalty>  (260) 
-0

>  <r_epik_Charging_Adjusted_Penalty>  (260) 
0

>  <i_epik_Tot_Q>  (260) 
0

>  <i_epik_Tot_abs_Q>  (260) 
0

>  <s_epik_Chemistry_Notes>  (260) 
This compound has an ester and may undergo hydrolysis at high or low pH.

>  <s_lp_Force_Field>  (260) 
OPLS3e

>  <r_lp_Energy>  (260) 
45.846

>  <b_lp_Chiralities_Consistent>  (260) 
1

>  <s_lp_Variant>  (260) 
73:0-1

>  <s_i_glide_gridfile>  (260) 
pfpi4k_grid

>  <i_i_glide_lignum>  (260) 
23

>  <i_i_glide_rotatable_bonds>  (260) 
1

>  <r_i_docking_score>  (260) 
-3.24864

>  <r_i_glide_ligand_efficiency>  (260) 
-0.162432

>  <r_i_glide_ligand_efficiency_sa>  (260) 
-0.440908

>  <r_i_glide_ligand_efficiency_ln>  (260) 
-0.813026

>  <r_i_glide_gscore>  (260) 
-3.24864

>  <r_i_glide_lipo>  (260) 
-0.270178

>  <r_i_glide_hbond>  (260) 
-0.142857

>  <r_i_glide_metal>  (260) 
-0

>  <r_i_glide_rewards>  (260) 
-1.511

>  <r_i_glide_evdw>  (260) 
-17.8622

>  <r_i_glide_ecoul>  (260) 
-2.53136

>  <r_i_glide_erotb>  (260) 
0

>  <r_i_glide_esite>  (260) 
-0.051784

>  <r_i_glide_emodel>  (260) 
-24.6726

>  <r_i_glide_energy>  (260) 
-20.3936

>  <r_i_glide_einternal>  (260) 
0.000200432

>  <r_i_glide_intrahb_reward>  (260) 
-0

>  <i_i_glide_confnum>  (260) 
1

>  <i_i_glide_posenum>  (260) 
31

>  <r_i_glide_eff_state_penalty>  (260) 
0

>  <ligand_id>  (260) 
73

>  <original_smiles>  (260) 
CC(C)C1CCC2C(C)CC3OC(=O)CC4COC2C431

>  <smiles>  (260) 
[H]C([H])([H])C([H])(C([H])([H])[H])C1([H])C([H])([H])C([H])([H])C2([H])C3([H])OC([H])([H])C4([H])C([H])([H])C(=O)OC([H])(C([H])([H])C2([H])C([H])([H])[H])C341

$$$$
73:0:2
     RDKit          3D

 46 49  0  0  1  0  0  0  0  0999 V2000
    4.1517    0.2801    1.4870 C   0  0  0  0  0  0  0  0  0  0  0  0
    3.4770   -0.9853    0.9542 C   0  0  0  0  0  0  0  0  0  0  0  0
    2.9738   -1.7900    2.1543 C   0  0  0  0  0  0  0  0  0  0  0  0
    4.3847   -1.7539   -0.0551 C   0  0  2  0  0  0  0  0  0  0  0  0
    4.6790   -0.8239   -1.2381 C   0  0  0  0  0  0  0  0  0  0  0  0
    5.2970   -1.4518   -2.4628 C   0  0  0  0  0  0  0  0  0  0  0  0
    4.6620   -2.7488   -2.9027 C   0  0  2  0  0  0  0  0  0  0  0  0
    3.2228   -2.5582   -3.3867 C   0  0  1  0  0  0  0  0  0  0  0  0
    2.7876   -3.6281   -4.3113 C   0  0  0  0  0  0  0  0  0  0  0  0
    2.2128   -2.3809   -2.2808 C   0  0  0  0  0  0  0  0  0  0  0  0
    2.4067   -3.1518   -0.9442 C   0  0  1  0  0  0  0  0  0  0  0  0
    1.7352   -4.4123   -0.8908 O   0  0  0  0  0  0  0  0  0  0  0  0
    1.9856   -5.3397    0.0672 C   0  0  0  0  0  0  0  0  0  0  0  0
    1.1176   -6.0943    0.5316 O   0  0  0  0  0  0  0  0  0  0  0  0
    3.4516   -5.5387    0.3648 C   0  0  0  0  0  0  0  0  0  0  0  0
    4.2801   -4.2484    0.4719 C   0  0  1  0  0  0  0  0  0  0  0  0
    5.7608   -4.4790    0.1047 C   0  0  0  0  0  0  0  0  0  0  0  0
    5.9775   -3.8888   -1.1691 O   0  0  0  0  0  0  0  0  0  0  0  0
    4.6982   -3.6989   -1.7214 C   0  0  1  0  0  0  0  0  0  0  0  0
    3.8878   -3.1708   -0.5343 C   0  0  2  0  0  0  0  0  0  0  0  0
    5.1238    0.0668    1.9357 H   0  0  0  0  0  0  0  0  0  0  0  0
    3.5306    0.7760    2.2338 H   0  0  0  0  0  0  0  0  0  0  0  0
    4.2815    0.9931    0.6788 H   0  0  0  0  0  0  0  0  0  0  0  0
    2.6112   -0.6274    0.4066 H   0  0  0  0  0  0  0  0  0  0  0  0
    3.8145   -2.1446    2.7503 H   0  0  0  0  0  0  0  0  0  0  0  0
    2.3543   -2.6356    1.8588 H   0  0  0  0  0  0  0  0  0  0  0  0
    2.3581   -1.1570    2.7911 H   0  0  0  0  0  0  0  0  0  0  0  0
    5.3517   -1.8891    0.4295 H   0  0  0  0  0  0  0  0  0  0  0  0
    3.8200   -0.2731   -1.5701 H   0  0  0  0  0  0  0  0  0  0  0  0
    5.3894   -0.1013   -0.8872 H   0  0  0  0  0  0  0  0  0  0  0  0
    5.1652   -0.7182   -3.2494 H   0  0  0  0  0  0  0  0  0  0  0  0
    6.3533   -1.6571   -2.2821 H   0  0  0  0  0  0  0  0  0  0  0  0
    5.2621   -3.1426   -3.7234 H   0  0  0  0  0  0  0  0  0  0  0  0
    3.1523   -1.6587   -3.9982 H   0  0  0  0  0  0  0  0  0  0  0  0
    2.7740   -4.6394   -3.9500 H   0  0  0  0  0  0  0  0  0  0  0  0
    3.5134   -3.5297   -5.1224 H   0  0  0  0  0  0  0  0  0  0  0  0
    1.7984   -3.4385   -4.7046 H   0  0  0  0  0  0  0  0  0  0  0  0
    2.2142   -1.3098   -2.1043 H   0  0  0  0  0  0  0  0  0  0  0  0
    1.2342   -2.6201   -2.6584 H   0  0  0  0  0  0  0  0  0  0  0  0
    1.8302   -2.6031   -0.2105 H   0  0  0  0  0  0  0  0  0  0  0  0
    3.5104   -6.1060    1.2816 H   0  0  0  0  0  0  0  0  0  0  0  0
    3.8364   -6.1821   -0.4231 H   0  0  0  0  0  0  0  0  0  0  0  0
    4.1945   -3.9111    1.4950 H   0  0  0  0  0  0  0  0  0  0  0  0
    6.4072   -3.9378    0.7852 H   0  0  0  0  0  0  0  0  0  0  0  0
    6.0523   -5.5301    0.1239 H   0  0  0  0  0  0  0  0  0  0  0  0
    4.3180   -4.6440   -2.0490 H   0  0  0  0  0  0  0  0  0  0  0  0
  1  2  1  0
  1 21  1  0
  1 22  1  0
  1 23  1  0
  2  3  1  0
  2  4  1  0
  2 24  1  0
  3 25  1  0
  3 26  1  0
  3 27  1  0
 20  4  1  1
  4  5  1  0
  4 28  1  1
  5  6  1  0
  5 29  1  0
  5 30  1  0
  6  7  1  0
  6 31  1  0
  6 32  1  0
  7 19  1  0
  7  8  1  0
  7 33  1  6
  8  9  1  0
  8 10  1  0
  8 34  1  6
  9 35  1  0
  9 36  1  0
  9 37  1  0
 10 11  1  0
 10 38  1  0
 10 39  1  0
 11 20  1  0
 11 12  1  0
 11 40  1  1
 12 13  1  0
 13 14  2  0
 13 15  1  0
 15 16  1  0
 15 41  1  0
 15 42  1  0
 16 20  1  0
 16 17  1  0
 16 43  1  1
 17 18  1  0
 17 44  1  0
 17 45  1  0
 18 19  1  0
 19 20  1  0
 19 46  1  6
M  END
>  <i_m_ct_stereo_status>  (261) 
1

>  <s_m_source_file>  (261) 
/var/tmp/pbs.5076255.sched01/tmptehp0e0j/84lnm28v0z.sdf

>  <i_m_source_file_index>  (261) 
23

>  <i_lp_mmshare_version>  (261) 
48012

>  <i_f3d_flags>  (261) 
0

>  <s_epik_input>  (261) 
W0NIM11bQ0hdKFtDSDNdKVtDQEBIXTFbQ0gyXVtDSDJdW0NASF0oW0NAQEhdKFtDSDNdKVtDSDJdW0NAQEhdMltDQEBdMTM0KVtDQEhdNE9bQ0gyXVtDQEBIXTNbQ0gyXUMoTzIpPU8=

>  <s_epik_cmdline>  (261) 
J2VwaWtfcHl0aG9uJywgJy1waHQnLCAnMi4wJywgJy1waCcsICc3LjAnLCAnLXRuJywgJzgnLCAnLW1hJywgJzIwMCcsICctaW1hZScsICc8aW5maWxlLm1hZT4nLCAnLW9tYWUnLCAnPG91dGZpbGUubWFlPic=

>  <r_lp_tautomer_probability>  (261) 
1

>  <r_epik_Ionization_Penalty>  (261) 
3.99374e-10

>  <r_epik_Ionization_Penalty_Charging>  (261) 
0

>  <r_epik_Ionization_Penalty_Neutral>  (261) 
3.99374e-10

>  <r_epik_State_Penalty>  (261) 
-0

>  <r_epik_Charging_Adjusted_Penalty>  (261) 
0

>  <i_epik_Tot_Q>  (261) 
0

>  <i_epik_Tot_abs_Q>  (261) 
0

>  <s_epik_Chemistry_Notes>  (261) 
This compound has an ester and may undergo hydrolysis at high or low pH.

>  <s_lp_Force_Field>  (261) 
OPLS3e

>  <r_lp_Energy>  (261) 
45.846

>  <b_lp_Chiralities_Consistent>  (261) 
1

>  <s_lp_Variant>  (261) 
73:0-1

>  <s_i_glide_gridfile>  (261) 
pfpi4k_grid

>  <i_i_glide_lignum>  (261) 
23

>  <i_i_glide_rotatable_bonds>  (261) 
1

>  <r_i_docking_score>  (261) 
-2.8734

>  <r_i_glide_ligand_efficiency>  (261) 
-0.14367

>  <r_i_glide_ligand_efficiency_sa>  (261) 
-0.38998

>  <r_i_glide_ligand_efficiency_ln>  (261) 
-0.719117

>  <r_i_glide_gscore>  (261) 
-2.8734

>  <r_i_glide_lipo>  (261) 
-0.413024

>  <r_i_glide_hbond>  (261) 
-0.160594

>  <r_i_glide_metal>  (261) 
-0

>  <r_i_glide_rewards>  (261) 
-1.511

>  <r_i_glide_evdw>  (261) 
-1.90977

>  <r_i_glide_ecoul>  (261) 
-4.00985

>  <r_i_glide_erotb>  (261) 
0

>  <r_i_glide_esite>  (261) 
-0.0918153

>  <r_i_glide_emodel>  (261) 
-8.60816

>  <r_i_glide_energy>  (261) 
-5.91961

>  <r_i_glide_einternal>  (261) 
0.0389862

>  <r_i_glide_intrahb_reward>  (261) 
-0

>  <i_i_glide_confnum>  (261) 
1

>  <i_i_glide_posenum>  (261) 
6

>  <r_i_glide_eff_state_penalty>  (261) 
0

>  <ligand_id>  (261) 
73

>  <original_smiles>  (261) 
CC(C)C1CCC2C(C)CC3OC(=O)CC4COC2C431

>  <smiles>  (261) 
[H]C([H])([H])C([H])(C([H])([H])[H])C1([H])C([H])([H])C([H])([H])C2([H])C3([H])OC([H])([H])C4([H])C([H])([H])C(=O)OC([H])(C([H])([H])C2([H])C([H])([H])[H])C341

$$$$
75:0:0
     RDKit          3D

 90 95  0  0  1  0  0  0  0  0999 V2000
    3.1528   -0.5668   -3.2265 C   0  0  0  0  0  0  0  0  0  0  0  0
    3.8413   -1.6861   -3.7790 O   0  0  0  0  0  0  0  0  0  0  0  0
    4.6487   -2.4882   -3.0324 C   0  0  0  0  0  0  0  0  0  0  0  0
    5.2419   -3.4437   -3.5078 O   0  0  0  0  0  0  0  0  0  0  0  0
    4.7852   -2.1489   -1.5274 C   0  0  2  0  0  0  0  0  0  0  0  0
    6.0083   -2.7923   -0.8653 C   0  0  0  0  0  0  0  0  0  0  0  0
    6.0731   -2.4442    0.6339 C   0  0  1  0  0  0  0  0  0  0  0  0
    6.7510   -1.0827    0.8858 C   0  0  0  0  0  0  0  0  0  0  0  0
    4.6855   -2.5180    1.3226 C   0  0  1  0  0  0  0  0  0  0  0  0
    3.4858   -2.1296    0.4392 C   0  0  2  0  0  0  0  0  0  0  0  0
    2.2723   -2.8010    1.0933 C   0  0  0  0  0  0  0  0  0  0  0  0
    2.7556   -3.5866    2.3476 C   0  0  2  0  0  0  0  0  0  0  0  0
    1.9139   -4.8966    2.4028 C   0  0  0  0  0  0  0  0  0  0  0  0
    2.5226   -2.8420    3.7432 C   0  0  2  0  0  0  0  0  0  0  0  0
    2.4373   -1.3065    3.8219 C   0  0  0  0  0  0  0  0  0  0  0  0
    2.6946   -0.5394    2.9051 O   0  0  0  0  0  0  0  0  0  0  0  0
    1.9954   -0.7645    5.1773 C   0  0  0  0  0  0  0  0  0  0  0  0
    2.8535   -1.2547    6.3495 C   0  0  0  0  0  0  0  0  0  0  0  0
    2.6272   -0.7703    7.6104 C   0  0  0  0  0  0  0  0  0  0  0  0
    1.5738    0.3085    7.8747 C   0  0  0  0  0  0  0  0  0  0  0  0
    2.1478    1.5595    8.5665 C   0  0  0  0  0  0  0  0  0  0  0  0
    3.1123    2.2900    7.6041 C   0  0  0  0  0  0  0  0  0  0  0  0
    0.9914    2.5006    8.9230 C   0  0  0  0  0  0  0  0  0  0  0  0
    2.8879    1.1768    9.8697 C   0  0  0  0  0  0  0  0  0  0  0  0
    3.9343    0.0658    9.6423 C   0  0  0  0  0  0  0  0  0  0  0  0
    3.4339   -1.1812    8.8566 C   0  0  1  0  0  0  0  0  0  0  0  0
    2.5863   -2.1293    9.7866 C   0  0  0  0  0  0  0  0  0  0  0  0
    1.4592   -1.5776   10.4081 O   0  0  0  0  0  0  0  0  0  0  0  0
    4.7129   -1.9593    8.4344 C   0  0  0  0  0  0  0  0  0  0  0  0
    4.4476   -2.9833    7.3223 C   0  0  0  0  0  0  0  0  0  0  0  0
    3.9088   -2.3335    6.0090 C   0  0  2  0  0  0  0  0  0  0  0  0
    5.1418   -1.6020    5.3922 C   0  0  0  0  0  0  0  0  0  0  0  0
    3.2717   -3.4357    5.0160 C   0  0  1  0  0  0  0  0  0  0  0  0
    2.1798   -4.2374    5.7913 C   0  0  0  0  0  0  0  0  0  0  0  0
    4.3728   -4.4224    4.5452 C   0  0  0  0  0  0  0  0  0  0  0  0
    4.6380   -5.4522    5.1594 O   0  0  0  0  0  0  0  0  0  0  0  0
    5.1503   -4.0679    3.2774 C   0  0  0  0  0  0  0  0  0  0  0  0
    4.2733   -3.8416    2.0241 C   0  0  2  0  0  0  0  0  0  0  0  0
    4.4668   -5.0575    1.0766 C   0  0  0  0  0  0  0  0  0  0  0  0
    3.6253   -2.6419   -0.8745 O   0  0  0  0  0  0  0  0  0  0  0  0
    2.5265   -0.0917   -3.9709 H   0  0  0  0  0  0  0  0  0  0  0  0
    3.8783    0.1733   -2.8735 H   0  0  0  0  0  0  0  0  0  0  0  0
    2.5283   -0.8844   -2.3908 H   0  0  0  0  0  0  0  0  0  0  0  0
    4.8846   -1.0781   -1.3590 H   0  0  0  0  0  0  0  0  0  0  0  0
    6.0167   -3.8716   -1.0163 H   0  0  0  0  0  0  0  0  0  0  0  0
    6.9042   -2.4100   -1.3667 H   0  0  0  0  0  0  0  0  0  0  0  0
    6.7399   -3.1720    1.1051 H   0  0  0  0  0  0  0  0  0  0  0  0
    6.1896   -0.2443    0.4733 H   0  0  0  0  0  0  0  0  0  0  0  0
    7.7570   -1.0634    0.4648 H   0  0  0  0  0  0  0  0  0  0  0  0
    6.8629   -0.9099    1.9548 H   0  0  0  0  0  0  0  0  0  0  0  0
    4.7090   -1.7719    2.1104 H   0  0  0  0  0  0  0  0  0  0  0  0
    3.3509   -1.0500    0.3859 H   0  0  0  0  0  0  0  0  0  0  0  0
    1.4850   -2.0774    1.3145 H   0  0  0  0  0  0  0  0  0  0  0  0
    1.8402   -3.4759    0.3512 H   0  0  0  0  0  0  0  0  0  0  0  0
    2.3031   -5.6162    3.1200 H   0  0  0  0  0  0  0  0  0  0  0  0
    1.8689   -5.4134    1.4421 H   0  0  0  0  0  0  0  0  0  0  0  0
    0.8854   -4.6846    2.6864 H   0  0  0  0  0  0  0  0  0  0  0  0
    1.4682   -3.0354    3.9316 H   0  0  0  0  0  0  0  0  0  0  0  0
    2.0130    0.3224    5.1341 H   0  0  0  0  0  0  0  0  0  0  0  0
    0.9685   -1.0713    5.3598 H   0  0  0  0  0  0  0  0  0  0  0  0
    1.0493    0.6169    6.9676 H   0  0  0  0  0  0  0  0  0  0  0  0
    0.7804   -0.1282    8.4812 H   0  0  0  0  0  0  0  0  0  0  0  0
    3.5706    3.1552    8.0893 H   0  0  0  0  0  0  0  0  0  0  0  0
    2.5913    2.6268    6.7099 H   0  0  0  0  0  0  0  0  0  0  0  0
    3.9213    1.6310    7.2774 H   0  0  0  0  0  0  0  0  0  0  0  0
    1.3491    3.4006    9.4267 H   0  0  0  0  0  0  0  0  0  0  0  0
    0.2862    2.0074    9.6017 H   0  0  0  0  0  0  0  0  0  0  0  0
    0.4337    2.8038    8.0373 H   0  0  0  0  0  0  0  0  0  0  0  0
    3.3739    2.0548   10.3056 H   0  0  0  0  0  0  0  0  0  0  0  0
    2.1644    0.8681   10.6241 H   0  0  0  0  0  0  0  0  0  0  0  0
    4.7643    0.5230    9.0993 H   0  0  0  0  0  0  0  0  0  0  0  0
    4.3670   -0.2417   10.5939 H   0  0  0  0  0  0  0  0  0  0  0  0
    2.2349   -2.9842    9.1998 H   0  0  0  0  0  0  0  0  0  0  0  0
    3.2255   -2.5453   10.5665 H   0  0  0  0  0  0  0  0  0  0  0  0
    1.1589   -2.1484   11.1103 H   0  0  0  0  0  0  0  0  0  0  0  0
    5.4908   -1.2798    8.0920 H   0  0  0  0  0  0  0  0  0  0  0  0
    5.1502   -2.4642    9.2923 H   0  0  0  0  0  0  0  0  0  0  0  0
    5.3596   -3.5526    7.1229 H   0  0  0  0  0  0  0  0  0  0  0  0
    3.7564   -3.7095    7.7392 H   0  0  0  0  0  0  0  0  0  0  0  0
    6.0332   -2.2265    5.4276 H   0  0  0  0  0  0  0  0  0  0  0  0
    5.3801   -0.6939    5.9490 H   0  0  0  0  0  0  0  0  0  0  0  0
    5.0135   -1.2839    4.3619 H   0  0  0  0  0  0  0  0  0  0  0  0
    1.4834   -3.5817    6.3124 H   0  0  0  0  0  0  0  0  0  0  0  0
    2.5815   -4.9297    6.5300 H   0  0  0  0  0  0  0  0  0  0  0  0
    1.5791   -4.8613    5.1302 H   0  0  0  0  0  0  0  0  0  0  0  0
    5.7589   -3.1900    3.4710 H   0  0  0  0  0  0  0  0  0  0  0  0
    5.8619   -4.8696    3.0843 H   0  0  0  0  0  0  0  0  0  0  0  0
    4.1895   -5.9888    1.5653 H   0  0  0  0  0  0  0  0  0  0  0  0
    5.5119   -5.1754    0.7862 H   0  0  0  0  0  0  0  0  0  0  0  0
    3.8832   -4.9783    0.1591 H   0  0  0  0  0  0  0  0  0  0  0  0
  1  2  1  0
  1 41  1  0
  1 42  1  0
  1 43  1  0
  2  3  1  0
  3  4  2  0
  3  5  1  0
  5 40  1  0
  5  6  1  0
  5 44  1  6
  6  7  1  0
  6 45  1  0
  6 46  1  0
  7  8  1  0
  7  9  1  0
  7 47  1  1
  8 48  1  0
  8 49  1  0
  8 50  1  0
  9 38  1  0
  9 10  1  0
  9 51  1  1
 10 11  1  0
 10 40  1  0
 10 52  1  6
 11 12  1  0
 11 53  1  0
 11 54  1  0
 12 38  1  0
 12 13  1  1
 12 14  1  0
 13 55  1  0
 13 56  1  0
 13 57  1  0
 14 33  1  0
 14 15  1  0
 14 58  1  1
 15 16  2  0
 15 17  1  0
 17 18  1  0
 17 59  1  0
 17 60  1  0
 18 31  1  0
 18 19  2  0
 19 26  1  0
 19 20  1  0
 20 21  1  0
 20 61  1  0
 20 62  1  0
 21 22  1  0
 21 23  1  0
 21 24  1  0
 22 63  1  0
 22 64  1  0
 22 65  1  0
 23 66  1  0
 23 67  1  0
 23 68  1  0
 24 25  1  0
 24 69  1  0
 24 70  1  0
 25 26  1  0
 25 71  1  0
 25 72  1  0
 26 27  1  1
 26 29  1  0
 27 28  1  0
 27 73  1  0
 27 74  1  0
 28 75  1  0
 29 30  1  0
 29 76  1  0
 29 77  1  0
 30 31  1  0
 30 78  1  0
 30 79  1  0
 31 32  1  6
 31 33  1  0
 32 80  1  0
 32 81  1  0
 32 82  1  0
 33 34  1  1
 33 35  1  0
 34 83  1  0
 34 84  1  0
 34 85  1  0
 35 36  2  0
 35 37  1  0
 37 38  1  0
 37 86  1  0
 37 87  1  0
 38 39  1  6
 39 88  1  0
 39 89  1  0
 39 90  1  0
M  END
>  <i_m_ct_stereo_status>  (262) 
1

>  <s_m_source_file>  (262) 
/var/tmp/pbs.5076255.sched01/tmptehp0e0j/84lnm28v0z.sdf

>  <i_m_source_file_index>  (262) 
25

>  <i_lp_mmshare_version>  (262) 
48012

>  <i_f3d_flags>  (262) 
0

>  <s_epik_input>  (262) 
W0NIM11PQyg9TylbQ0BIXShbQ0gyXVtDQEhdMVtDSDNdKU9bQ0BASF0oW0NIMl0yKVtDQEhdMVtDQEBdMyhbQ0gzXSlbQ0gyXUMoPU8pW0NAXShbQ0gzXSkoW0NAQEhdNFtDQEBdMjNbQ0gzXSlbQ0BAXTUoW0NIM10pQyhbQ0gyXUM0PU8pPUM2W0NAQF0oW0NIMl1bT0hdKShbQ0gyXVtDSDJdNSlbQ0gyXVtDSDJdQyhbQ0gyXTYpKFtDSDNdKVtDSDNd

>  <s_epik_cmdline>  (262) 
J2VwaWtfcHl0aG9uJywgJy1waHQnLCAnMi4wJywgJy1waCcsICc3LjAnLCAnLXRuJywgJzgnLCAnLW1hJywgJzIwMCcsICctaW1hZScsICc8aW5maWxlLm1hZT4nLCAnLW9tYWUnLCAnPG91dGZpbGUubWFlPic=

>  <r_lp_tautomer_probability>  (262) 
1

>  <r_epik_Ionization_Penalty>  (262) 
5.8975e-07

>  <r_epik_Ionization_Penalty_Charging>  (262) 
0

>  <r_epik_Ionization_Penalty_Neutral>  (262) 
5.8975e-07

>  <r_epik_State_Penalty>  (262) 
-0

>  <r_epik_Charging_Adjusted_Penalty>  (262) 
0

>  <i_epik_Tot_Q>  (262) 
0

>  <i_epik_Tot_abs_Q>  (262) 
0

>  <s_epik_Chemistry_Notes>  (262) 
This compound has an ester and may undergo hydrolysis at high or low pH.

>  <s_lp_Force_Field>  (262) 
OPLS3e

>  <r_lp_Energy>  (262) 
90.6811

>  <b_lp_Chiralities_Consistent>  (262) 
1

>  <s_lp_Variant>  (262) 
75:0-1

>  <s_i_glide_gridfile>  (262) 
pfpi4k_grid

>  <i_i_glide_lignum>  (262) 
25

>  <i_i_glide_rotatable_bonds>  (262) 
4

>  <r_i_docking_score>  (262) 
-1.72829

>  <r_i_glide_ligand_efficiency>  (262) 
-0.0432074

>  <r_i_glide_ligand_efficiency_sa>  (262) 
-0.147767

>  <r_i_glide_ligand_efficiency_ln>  (262) 
-0.368594

>  <r_i_glide_gscore>  (262) 
-1.72829

>  <r_i_glide_lipo>  (262) 
-0.278134

>  <r_i_glide_hbond>  (262) 
0

>  <r_i_glide_metal>  (262) 
-0

>  <r_i_glide_rewards>  (262) 
-0.153247

>  <r_i_glide_evdw>  (262) 
-25.7926

>  <r_i_glide_ecoul>  (262) 
-0.455292

>  <r_i_glide_erotb>  (262) 
0.0610327

>  <r_i_glide_esite>  (262) 
-2.37794e-05

>  <r_i_glide_emodel>  (262) 
-22.4945

>  <r_i_glide_energy>  (262) 
-26.2479

>  <r_i_glide_einternal>  (262) 
11.9518

>  <r_i_glide_intrahb_reward>  (262) 
-0

>  <i_i_glide_confnum>  (262) 
2

>  <i_i_glide_posenum>  (262) 
33

>  <r_i_glide_eff_state_penalty>  (262) 
0

>  <ligand_id>  (262) 
75

>  <original_smiles>  (262) 
COC(=O)C1CC(C)C2C(CC3(C)C4C(=O)CC5=C6CC(C)(C)CCC6(CO)CCC5(C)C4(C)C(=O)CC23C)O1

>  <smiles>  (262) 
[H]OC([H])([H])C12C(=C3C([H])([H])C(=O)C4([H])C(C([H])([H])[H])(C(=O)C([H])([H])C5(C([H])([H])[H])C6([H])C([H])(OC([H])(C(=O)OC([H])([H])[H])C([H])([H])C6([H])C([H])([H])[H])C([H])([H])C45C([H])([H])[H])C3(C([H])([H])[H])C([H])([H])C1([H])[H])C([H])([H])C(C([H])([H])[H])(C([H])([H])[H])C([H])([H])C2([H])[H]

$$$$
77:0:0
     RDKit          3D

 68 74  0  0  1  0  0  0  0  0999 V2000
    5.5351  -13.2961    2.9499 C   0  0  0  0  0  0  0  0  0  0  0  0
    4.5628  -12.7375    3.9186 N   0  0  1  0  0  0  0  0  0  0  0  0
    5.2204  -11.9818    5.0170 C   0  0  0  0  0  0  0  0  0  0  0  0
    4.1908  -11.2888    5.9362 C   0  0  0  0  0  0  0  0  0  0  0  0
    2.9528  -10.6978    5.1919 C   0  0  2  0  0  0  0  0  0  0  0  0
    2.0767  -10.2442    6.2006 O   0  0  0  0  0  0  0  0  0  0  0  0
    2.3444  -11.8239    4.3670 C   0  0  1  0  0  0  0  0  0  0  0  0
    0.9897  -11.4350    3.7711 C   0  0  0  0  0  0  0  0  0  0  0  0
    0.7727   -9.9834    3.3616 C   0  0  0  0  0  0  0  0  0  0  0  0
   -0.4534   -9.5245    2.8574 C   0  0  0  0  0  0  0  0  0  0  0  0
   -0.6178   -8.1812    2.5003 C   0  0  0  0  0  0  0  0  0  0  0  0
    0.4502   -7.2863    2.6673 C   0  0  0  0  0  0  0  0  0  0  0  0
    0.2638   -5.9807    2.3277 O   0  0  0  0  0  0  0  0  0  0  0  0
    1.7036   -7.6838    3.1845 C   0  0  0  0  0  0  0  0  0  0  0  0
    1.8584   -9.0669    3.5283 C   0  0  0  0  0  0  0  0  0  0  0  0
    3.2190   -9.6345    4.0755 C   0  0  1  0  0  0  0  0  0  0  0  0
    4.3228   -8.5925    4.4860 C   0  0  0  0  0  0  0  0  0  0  0  0
    4.0902   -7.6308    5.6911 C   0  0  2  0  0  0  0  0  0  0  0  0
    2.6946   -7.0112    5.7537 C   0  0  0  0  0  0  0  0  0  0  0  0
    2.7111   -6.0422    4.5744 C   0  0  2  0  0  0  0  0  0  0  0  0
    2.6715   -6.7195    3.3148 O   0  0  0  0  0  0  0  0  0  0  0  0
    4.1110   -5.4124    4.6692 C   0  0  1  0  0  0  0  0  0  0  0  0
    4.0328   -4.0947    5.2076 O   0  0  0  0  0  0  0  0  0  0  0  0
    4.9905   -3.1829    4.6895 C   0  0  0  0  0  0  0  0  0  0  0  0
    4.3758   -2.2209    3.6888 C   0  0  0  0  0  0  0  0  0  0  0  0
    3.7602   -2.7114    2.5172 C   0  0  0  0  0  0  0  0  0  0  0  0
    3.1775   -1.8226    1.5932 C   0  0  0  0  0  0  0  0  0  0  0  0
    3.2116   -0.4360    1.8350 C   0  0  0  0  0  0  0  0  0  0  0  0
    3.8308    0.0604    2.9991 C   0  0  0  0  0  0  0  0  0  0  0  0
    4.4174   -0.8296    3.9218 C   0  0  0  0  0  0  0  0  0  0  0  0
    4.9641   -6.3697    5.5412 C   0  0  1  0  0  0  0  0  0  0  0  0
    5.2137   -5.8219    6.8225 O   0  0  0  0  0  0  0  0  0  0  0  0
    3.7858  -10.5374    2.9303 C   0  0  0  0  0  0  0  0  0  0  0  0
    3.4264  -11.9968    3.3017 C   0  0  1  0  0  0  0  0  0  0  0  0
    6.0673  -12.5062    2.4159 H   0  0  0  0  0  0  0  0  0  0  0  0
    5.0403  -13.9412    2.2216 H   0  0  0  0  0  0  0  0  0  0  0  0
    6.2735  -13.9023    3.4804 H   0  0  0  0  0  0  0  0  0  0  0  0
    5.8307  -12.6630    5.6078 H   0  0  0  0  0  0  0  0  0  0  0  0
    5.9035  -11.2448    4.6017 H   0  0  0  0  0  0  0  0  0  0  0  0
    3.8253  -12.0338    6.6517 H   0  0  0  0  0  0  0  0  0  0  0  0
    4.6944  -10.5296    6.5401 H   0  0  0  0  0  0  0  0  0  0  0  0
    1.8128  -10.9888    6.7476 H   0  0  0  0  0  0  0  0  0  0  0  0
    2.2168  -12.7419    4.9393 H   0  0  0  0  0  0  0  0  0  0  0  0
    0.7381  -12.0803    2.9301 H   0  0  0  0  0  0  0  0  0  0  0  0
    0.2384  -11.6245    4.5363 H   0  0  0  0  0  0  0  0  0  0  0  0
   -1.2747  -10.2134    2.7282 H   0  0  0  0  0  0  0  0  0  0  0  0
   -1.5593   -7.8431    2.0956 H   0  0  0  0  0  0  0  0  0  0  0  0
    1.0067   -5.4521    2.5871 H   0  0  0  0  0  0  0  0  0  0  0  0
    5.2518   -9.1147    4.7043 H   0  0  0  0  0  0  0  0  0  0  0  0
    4.5924   -8.0252    3.5956 H   0  0  0  0  0  0  0  0  0  0  0  0
    4.3115   -8.1587    6.6177 H   0  0  0  0  0  0  0  0  0  0  0  0
    1.8742   -7.7230    5.7569 H   0  0  0  0  0  0  0  0  0  0  0  0
    2.5864   -6.4444    6.6770 H   0  0  0  0  0  0  0  0  0  0  0  0
    1.9177   -5.2965    4.6299 H   0  0  0  0  0  0  0  0  0  0  0  0
    4.5247   -5.3907    3.6604 H   0  0  0  0  0  0  0  0  0  0  0  0
    5.4050   -2.6326    5.5334 H   0  0  0  0  0  0  0  0  0  0  0  0
    5.8260   -3.6959    4.2188 H   0  0  0  0  0  0  0  0  0  0  0  0
    3.7237   -3.7720    2.3239 H   0  0  0  0  0  0  0  0  0  0  0  0
    2.6965   -2.2044    0.7038 H   0  0  0  0  0  0  0  0  0  0  0  0
    2.7584    0.2415    1.1261 H   0  0  0  0  0  0  0  0  0  0  0  0
    3.8497    1.1239    3.1885 H   0  0  0  0  0  0  0  0  0  0  0  0
    4.8867   -0.4420    4.8142 H   0  0  0  0  0  0  0  0  0  0  0  0
    5.9316   -6.5747    5.0825 H   0  0  0  0  0  0  0  0  0  0  0  0
    4.3822   -5.5952    7.2124 H   0  0  0  0  0  0  0  0  0  0  0  0
    3.3310  -10.2717    1.9735 H   0  0  0  0  0  0  0  0  0  0  0  0
    4.8612  -10.4106    2.7676 H   0  0  0  0  0  0  0  0  0  0  0  0
    3.0440  -12.5599    2.4539 H   0  0  0  0  0  0  0  0  0  0  0  0
    4.1264  -13.5367    4.3523 H   0  0  0  0  0  0  0  0  0  0  0  0
  1  2  1  0
  1 35  1  0
  1 36  1  0
  1 37  1  0
  2 34  1  0
  2  3  1  0
  2 68  1  1
  3  4  1  0
  3 38  1  0
  3 39  1  0
  4  5  1  0
  4 40  1  0
  4 41  1  0
  5 16  1  0
  5  6  1  1
  5  7  1  0
  6 42  1  0
  7 34  1  0
  7  8  1  0
  7 43  1  1
  8  9  1  0
  8 44  1  0
  8 45  1  0
  9 15  2  0
  9 10  1  0
 10 11  2  0
 10 46  1  0
 11 12  1  0
 11 47  1  0
 12 13  1  0
 12 14  2  0
 13 48  1  0
 14 21  1  0
 14 15  1  0
 15 16  1  0
 16 17  1  1
 16 33  1  0
 17 18  1  0
 17 49  1  0
 17 50  1  0
 18 31  1  0
 18 19  1  0
 18 51  1  1
 19 20  1  0
 19 52  1  0
 19 53  1  0
 20 21  1  0
 20 22  1  0
 20 54  1  1
 22 23  1  0
 22 31  1  0
 22 55  1  6
 23 24  1  0
 24 25  1  0
 24 56  1  0
 24 57  1  0
 25 30  1  0
 25 26  2  0
 26 27  1  0
 26 58  1  0
 27 28  2  0
 27 59  1  0
 28 29  1  0
 28 60  1  0
 29 30  2  0
 29 61  1  0
 30 62  1  0
 31 32  1  0
 31 63  1  6
 32 64  1  0
 33 34  1  0
 33 65  1  0
 33 66  1  0
 34 67  1  6
M  CHG  1   2   1
M  END
>  <i_m_ct_stereo_status>  (263) 
1

>  <s_m_source_file>  (263) 
/var/tmp/pbs.5076255.sched01/tmptehp0e0j/84lnm28v0z.sdf

>  <i_m_source_file_index>  (263) 
27

>  <i_lp_mmshare_version>  (263) 
48012

>  <i_f3d_flags>  (263) 
0

>  <s_epik_input>  (263) 
W0NIMl0xW0NIMl1OKFtDSDNdKVtDQEhdKFtDSDJdMilbQ0BASF0oW0NAQF0xKFtDQEBdMjM0KVtPSF0pW0NIMl1jNWMzYyhjKFtPSF0pW2NIXVtjSF01KU9bQ0BIXTZbQ0gyXVtDQEBIXShbQ0gyXTQpW0NASF0oW09IXSlbQ0BASF02T1tDSDJdYzdbY0hdW2NIXVtjSF1bY0hdW2NIXTc=

>  <s_epik_cmdline>  (263) 
J2VwaWtfcHl0aG9uJywgJy1waHQnLCAnMi4wJywgJy1waCcsICc3LjAnLCAnLXRuJywgJzgnLCAnLW1hJywgJzIwMCcsICctaW1hZScsICc8aW5maWxlLm1hZT4nLCAnLW9tYWUnLCAnPG91dGZpbGUubWFlPic=

>  <r_lp_tautomer_probability>  (263) 
1

>  <r_epik_Ionization_Penalty>  (263) 
0.00127691

>  <r_epik_Ionization_Penalty_Charging>  (263) 
0.000869782

>  <r_epik_Ionization_Penalty_Neutral>  (263) 
0.000407124

>  <r_epik_State_Penalty>  (263) 
-0

>  <r_epik_Charging_Adjusted_Penalty>  (263) 
0.000869782

>  <i_epik_Tot_Q>  (263) 
1

>  <i_epik_Tot_abs_Q>  (263) 
1

>  <s_lp_Force_Field>  (263) 
OPLS3e

>  <r_lp_Energy>  (263) 
99.5532

>  <b_lp_Chiralities_Consistent>  (263) 
1

>  <s_lp_Variant>  (263) 
77:0-1

>  <s_i_glide_gridfile>  (263) 
pfpi4k_grid

>  <i_i_glide_lignum>  (263) 
27

>  <i_i_glide_rotatable_bonds>  (263) 
6

>  <r_i_docking_score>  (263) 
-3.17248

>  <r_i_glide_ligand_efficiency>  (263) 
-0.0933082

>  <r_i_glide_ligand_efficiency_sa>  (263) 
-0.302282

>  <r_i_glide_ligand_efficiency_ln>  (263) 
-0.70089

>  <r_i_glide_gscore>  (263) 
-3.17248

>  <r_i_glide_lipo>  (263) 
-0.253653

>  <r_i_glide_hbond>  (263) 
-0.16

>  <r_i_glide_metal>  (263) 
-0

>  <r_i_glide_rewards>  (263) 
-0.241546

>  <r_i_glide_evdw>  (263) 
-22.8689

>  <r_i_glide_ecoul>  (263) 
-10.8379

>  <r_i_glide_erotb>  (263) 
0.280229

>  <r_i_glide_esite>  (263) 
-0.0283814

>  <r_i_glide_emodel>  (263) 
-41.982

>  <r_i_glide_energy>  (263) 
-33.7068

>  <r_i_glide_einternal>  (263) 
3.07426

>  <r_i_glide_intrahb_reward>  (263) 
-0

>  <i_i_glide_confnum>  (263) 
5

>  <i_i_glide_posenum>  (263) 
37

>  <r_i_glide_eff_state_penalty>  (263) 
0

>  <ligand_id>  (263) 
77

>  <original_smiles>  (263) 
CN1CCC2(O)C3Cc4ccc(O)c5c4C2(CC2CC(O5)C(OCc4ccccc4)C2O)CC31

>  <smiles>  (263) 
[H]Oc1c([H])c([H])c2c3c1OC1([H])C([H])([H])C([H])(C([H])([H])C34C([H])([H])C3([H])C([H])(C2([H])[H])C4(O[H])C([H])([H])C([H])([H])[N+]3([H])C([H])([H])[H])C([H])(O[H])C1([H])OC([H])([H])c1c([H])c([H])c([H])c([H])c1[H]

$$$$
77:0:1
     RDKit          3D

 68 74  0  0  1  0  0  0  0  0999 V2000
    0.8067  -11.2295    3.3426 C   0  0  0  0  0  0  0  0  0  0  0  0
    1.6607  -10.2978    4.1121 N   0  0  1  0  0  0  0  0  0  0  0  0
    3.0588  -10.2627    3.6084 C   0  0  0  0  0  0  0  0  0  0  0  0
    3.9010   -9.1827    4.3243 C   0  0  0  0  0  0  0  0  0  0  0  0
    3.1325   -7.8616    4.6351 C   0  0  2  0  0  0  0  0  0  0  0  0
    4.0196   -7.0772    5.4086 O   0  0  0  0  0  0  0  0  0  0  0  0
    1.8751   -8.2395    5.4123 C   0  0  1  0  0  0  0  0  0  0  0  0
    1.1548   -7.0089    5.9709 C   0  0  0  0  0  0  0  0  0  0  0  0
    1.1949   -5.7162    5.1647 C   0  0  0  0  0  0  0  0  0  0  0  0
    0.6012   -4.5298    5.6296 C   0  0  0  0  0  0  0  0  0  0  0  0
    0.6879   -3.3544    4.8718 C   0  0  0  0  0  0  0  0  0  0  0  0
    1.3739   -3.3589    3.6488 C   0  0  0  0  0  0  0  0  0  0  0  0
    1.4266   -2.1932    2.9403 O   0  0  0  0  0  0  0  0  0  0  0  0
    1.9894   -4.5266    3.1308 C   0  0  0  0  0  0  0  0  0  0  0  0
    1.8885   -5.7199    3.9140 C   0  0  0  0  0  0  0  0  0  0  0  0
    2.5084   -7.0864    3.4294 C   0  0  1  0  0  0  0  0  0  0  0  0
    3.4642   -7.0387    2.1829 C   0  0  0  0  0  0  0  0  0  0  0  0
    4.8304   -6.2950    2.2683 C   0  0  2  0  0  0  0  0  0  0  0  0
    4.7828   -4.9407    2.9739 C   0  0  0  0  0  0  0  0  0  0  0  0
    4.0123   -4.0758    1.9762 C   0  0  2  0  0  0  0  0  0  0  0  0
    2.6270   -4.4287    1.9192 O   0  0  0  0  0  0  0  0  0  0  0  0
    4.6227   -4.4862    0.6238 C   0  0  1  0  0  0  0  0  0  0  0  0
    5.5396   -3.4938    0.1733 O   0  0  0  0  0  0  0  0  0  0  0  0
    5.8758   -3.6139   -1.2001 C   0  0  0  0  0  0  0  0  0  0  0  0
    5.0171   -2.7436   -2.0915 C   0  0  0  0  0  0  0  0  0  0  0  0
    4.2393   -3.3241   -3.1129 C   0  0  0  0  0  0  0  0  0  0  0  0
    3.4234   -2.5188   -3.9253 C   0  0  0  0  0  0  0  0  0  0  0  0
    3.4136   -1.1226   -3.7549 C   0  0  0  0  0  0  0  0  0  0  0  0
    4.2137   -0.5392   -2.7514 C   0  0  0  0  0  0  0  0  0  0  0  0
    5.0062   -1.3463   -1.9154 C   0  0  0  0  0  0  0  0  0  0  0  0
    5.2948   -5.8696    0.8637 C   0  0  1  0  0  0  0  0  0  0  0  0
    6.7103   -5.7818    0.8787 O   0  0  0  0  0  0  0  0  0  0  0  0
    1.2900   -8.0049    3.0864 C   0  0  0  0  0  0  0  0  0  0  0  0
    1.0783   -8.9386    4.3053 C   0  0  1  0  0  0  0  0  0  0  0  0
    0.6771  -10.8931    2.3121 H   0  0  0  0  0  0  0  0  0  0  0  0
   -0.1751  -11.3179    3.8112 H   0  0  0  0  0  0  0  0  0  0  0  0
    1.2610  -12.2238    3.3262 H   0  0  0  0  0  0  0  0  0  0  0  0
    3.5167  -11.2407    3.7544 H   0  0  0  0  0  0  0  0  0  0  0  0
    3.0617  -10.0888    2.5335 H   0  0  0  0  0  0  0  0  0  0  0  0
    4.2410   -9.6092    5.2727 H   0  0  0  0  0  0  0  0  0  0  0  0
    4.8114   -8.9931    3.7517 H   0  0  0  0  0  0  0  0  0  0  0  0
    4.2982   -7.5875    6.1541 H   0  0  0  0  0  0  0  0  0  0  0  0
    2.0713   -8.9311    6.2360 H   0  0  0  0  0  0  0  0  0  0  0  0
    0.1167   -7.2427    6.2057 H   0  0  0  0  0  0  0  0  0  0  0  0
    1.6297   -6.7607    6.9195 H   0  0  0  0  0  0  0  0  0  0  0  0
    0.0786   -4.5194    6.5746 H   0  0  0  0  0  0  0  0  0  0  0  0
    0.2227   -2.4459    5.2225 H   0  0  0  0  0  0  0  0  0  0  0  0
    1.8855   -2.2674    2.1169 H   0  0  0  0  0  0  0  0  0  0  0  0
    3.7027   -8.0517    1.8665 H   0  0  0  0  0  0  0  0  0  0  0  0
    2.8909   -6.6737    1.3313 H   0  0  0  0  0  0  0  0  0  0  0  0
    5.5625   -6.9456    2.7451 H   0  0  0  0  0  0  0  0  0  0  0  0
    4.3782   -4.9637    3.9814 H   0  0  0  0  0  0  0  0  0  0  0  0
    5.7917   -4.5462    3.0827 H   0  0  0  0  0  0  0  0  0  0  0  0
    4.1264   -3.0091    2.1725 H   0  0  0  0  0  0  0  0  0  0  0  0
    3.8130   -4.5835   -0.1042 H   0  0  0  0  0  0  0  0  0  0  0  0
    6.9131   -3.3050   -1.3100 H   0  0  0  0  0  0  0  0  0  0  0  0
    5.8105   -4.6503   -1.5292 H   0  0  0  0  0  0  0  0  0  0  0  0
    4.2498   -4.3931   -3.2591 H   0  0  0  0  0  0  0  0  0  0  0  0
    2.8100   -2.9758   -4.6865 H   0  0  0  0  0  0  0  0  0  0  0  0
    2.7930   -0.4992   -4.3818 H   0  0  0  0  0  0  0  0  0  0  0  0
    4.2125    0.5341   -2.6174 H   0  0  0  0  0  0  0  0  0  0  0  0
    5.5999   -0.8985   -1.1352 H   0  0  0  0  0  0  0  0  0  0  0  0
    5.0189   -6.5865    0.0895 H   0  0  0  0  0  0  0  0  0  0  0  0
    6.9613   -5.1404    1.5266 H   0  0  0  0  0  0  0  0  0  0  0  0
    0.3981   -7.4011    2.9166 H   0  0  0  0  0  0  0  0  0  0  0  0
    1.4190   -8.5692    2.1574 H   0  0  0  0  0  0  0  0  0  0  0  0
    0.0227   -9.0259    4.5676 H   0  0  0  0  0  0  0  0  0  0  0  0
    1.7017  -10.7030    5.0398 H   0  0  0  0  0  0  0  0  0  0  0  0
  1  2  1  0
  1 35  1  0
  1 36  1  0
  1 37  1  0
  2 34  1  0
  2  3  1  0
  2 68  1  1
  3  4  1  0
  3 38  1  0
  3 39  1  0
  4  5  1  0
  4 40  1  0
  4 41  1  0
  5 16  1  0
  5  6  1  1
  5  7  1  0
  6 42  1  0
  7 34  1  0
  7  8  1  0
  7 43  1  1
  8  9  1  0
  8 44  1  0
  8 45  1  0
  9 15  2  0
  9 10  1  0
 10 11  2  0
 10 46  1  0
 11 12  1  0
 11 47  1  0
 12 13  1  0
 12 14  2  0
 13 48  1  0
 14 21  1  0
 14 15  1  0
 15 16  1  0
 16 17  1  6
 16 33  1  0
 17 18  1  0
 17 49  1  0
 17 50  1  0
 18 31  1  0
 18 19  1  0
 18 51  1  1
 19 20  1  0
 19 52  1  0
 19 53  1  0
 20 21  1  0
 20 22  1  0
 20 54  1  1
 22 23  1  0
 22 31  1  0
 22 55  1  6
 23 24  1  0
 24 25  1  0
 24 56  1  0
 24 57  1  0
 25 30  1  0
 25 26  2  0
 26 27  1  0
 26 58  1  0
 27 28  2  0
 27 59  1  0
 28 29  1  0
 28 60  1  0
 29 30  2  0
 29 61  1  0
 30 62  1  0
 31 32  1  0
 31 63  1  6
 32 64  1  0
 33 34  1  0
 33 65  1  0
 33 66  1  0
 34 67  1  1
M  CHG  1   2   1
M  END
>  <i_m_ct_stereo_status>  (264) 
1

>  <s_m_source_file>  (264) 
/var/tmp/pbs.5076255.sched01/tmptehp0e0j/84lnm28v0z.sdf

>  <i_m_source_file_index>  (264) 
27

>  <i_lp_mmshare_version>  (264) 
48012

>  <i_f3d_flags>  (264) 
0

>  <s_epik_input>  (264) 
W0NIMl0xW0NIMl1OKFtDSDNdKVtDQEhdKFtDSDJdMilbQ0BASF0oW0NAQF0xKFtDQEBdMjM0KVtPSF0pW0NIMl1jNWMzYyhjKFtPSF0pW2NIXVtjSF01KU9bQ0BIXTZbQ0gyXVtDQEBIXShbQ0gyXTQpW0NASF0oW09IXSlbQ0BASF02T1tDSDJdYzdbY0hdW2NIXVtjSF1bY0hdW2NIXTc=

>  <s_epik_cmdline>  (264) 
J2VwaWtfcHl0aG9uJywgJy1waHQnLCAnMi4wJywgJy1waCcsICc3LjAnLCAnLXRuJywgJzgnLCAnLW1hJywgJzIwMCcsICctaW1hZScsICc8aW5maWxlLm1hZT4nLCAnLW9tYWUnLCAnPG91dGZpbGUubWFlPic=

>  <r_lp_tautomer_probability>  (264) 
1

>  <r_epik_Ionization_Penalty>  (264) 
0.00127691

>  <r_epik_Ionization_Penalty_Charging>  (264) 
0.000869782

>  <r_epik_Ionization_Penalty_Neutral>  (264) 
0.000407124

>  <r_epik_State_Penalty>  (264) 
-0

>  <r_epik_Charging_Adjusted_Penalty>  (264) 
0.000869782

>  <i_epik_Tot_Q>  (264) 
1

>  <i_epik_Tot_abs_Q>  (264) 
1

>  <s_lp_Force_Field>  (264) 
OPLS3e

>  <r_lp_Energy>  (264) 
99.5532

>  <b_lp_Chiralities_Consistent>  (264) 
1

>  <s_lp_Variant>  (264) 
77:0-1

>  <s_i_glide_gridfile>  (264) 
pfpi4k_grid

>  <i_i_glide_lignum>  (264) 
27

>  <i_i_glide_rotatable_bonds>  (264) 
6

>  <r_i_docking_score>  (264) 
-3.11647

>  <r_i_glide_ligand_efficiency>  (264) 
-0.091661

>  <r_i_glide_ligand_efficiency_sa>  (264) 
-0.296946

>  <r_i_glide_ligand_efficiency_ln>  (264) 
-0.688516

>  <r_i_glide_gscore>  (264) 
-3.11647

>  <r_i_glide_lipo>  (264) 
-1.02903

>  <r_i_glide_hbond>  (264) 
0

>  <r_i_glide_metal>  (264) 
-0

>  <r_i_glide_rewards>  (264) 
-0.241546

>  <r_i_glide_evdw>  (264) 
-29.9448

>  <r_i_glide_ecoul>  (264) 
-4.11132

>  <r_i_glide_erotb>  (264) 
0.280229

>  <r_i_glide_esite>  (264) 
-0.0121864

>  <r_i_glide_emodel>  (264) 
-42.615

>  <r_i_glide_energy>  (264) 
-34.0561

>  <r_i_glide_einternal>  (264) 
2.16043

>  <r_i_glide_intrahb_reward>  (264) 
-0

>  <i_i_glide_confnum>  (264) 
5

>  <i_i_glide_posenum>  (264) 
36

>  <r_i_glide_eff_state_penalty>  (264) 
0

>  <ligand_id>  (264) 
77

>  <original_smiles>  (264) 
CN1CCC2(O)C3Cc4ccc(O)c5c4C2(CC2CC(O5)C(OCc4ccccc4)C2O)CC31

>  <smiles>  (264) 
[H]Oc1c([H])c([H])c2c3c1OC1([H])C([H])([H])C([H])(C([H])([H])C34C([H])([H])C3([H])C([H])(C2([H])[H])C4(O[H])C([H])([H])C([H])([H])[N+]3([H])C([H])([H])[H])C([H])(O[H])C1([H])OC([H])([H])c1c([H])c([H])c([H])c([H])c1[H]

$$$$
77:0:2
     RDKit          3D

 68 74  0  0  1  0  0  0  0  0999 V2000
    4.1558   -3.1656   -1.8886 C   0  0  0  0  0  0  0  0  0  0  0  0
    4.6934   -2.5694   -0.6432 N   0  0  1  0  0  0  0  0  0  0  0  0
    4.6221   -1.0852   -0.6425 C   0  0  0  0  0  0  0  0  0  0  0  0
    5.0570   -0.4870    0.7118 C   0  0  0  0  0  0  0  0  0  0  0  0
    4.5973   -1.3014    1.9575 C   0  0  2  0  0  0  0  0  0  0  0  0
    5.2146   -0.6717    3.0628 O   0  0  0  0  0  0  0  0  0  0  0  0
    5.0892   -2.7313    1.7648 C   0  0  1  0  0  0  0  0  0  0  0  0
    4.8983   -3.5786    3.0256 C   0  0  0  0  0  0  0  0  0  0  0  0
    3.6922   -3.2969    3.9144 C   0  0  0  0  0  0  0  0  0  0  0  0
    3.4673   -3.9957    5.1103 C   0  0  0  0  0  0  0  0  0  0  0  0
    2.3598   -3.6942    5.9108 C   0  0  0  0  0  0  0  0  0  0  0  0
    1.4679   -2.6835    5.5164 C   0  0  0  0  0  0  0  0  0  0  0  0
    0.3995   -2.4061    6.3210 O   0  0  0  0  0  0  0  0  0  0  0  0
    1.6459   -1.9465    4.3202 C   0  0  0  0  0  0  0  0  0  0  0  0
    2.7832   -2.2691    3.5102 C   0  0  0  0  0  0  0  0  0  0  0  0
    3.0641   -1.5407    2.1426 C   0  0  1  0  0  0  0  0  0  0  0  0
    2.2133   -0.2605    1.8187 C   0  0  0  0  0  0  0  0  0  0  0  0
    2.3657    1.0253    2.6841 C   0  0  2  0  0  0  0  0  0  0  0  0
    2.4442    0.7746    4.1866 C   0  0  0  0  0  0  0  0  0  0  0  0
    1.0204    0.3292    4.5170 C   0  0  2  0  0  0  0  0  0  0  0  0
    0.7229   -0.9803    4.0271 O   0  0  0  0  0  0  0  0  0  0  0  0
    0.1350    1.2792    3.6805 C   0  0  1  0  0  0  0  0  0  0  0  0
   -0.4877    2.2766    4.4744 O   0  0  0  0  0  0  0  0  0  0  0  0
   -1.5357    1.8154    5.3161 C   0  0  0  0  0  0  0  0  0  0  0  0
   -1.7313    2.7433    6.4999 C   0  0  0  0  0  0  0  0  0  0  0  0
   -2.8155    2.5523    7.3811 C   0  0  0  0  0  0  0  0  0  0  0  0
   -2.9932    3.4145    8.4823 C   0  0  0  0  0  0  0  0  0  0  0  0
   -2.0856    4.4674    8.7073 C   0  0  0  0  0  0  0  0  0  0  0  0
   -0.9933    4.6525    7.8373 C   0  0  0  0  0  0  0  0  0  0  0  0
   -0.8159    3.7910    6.7409 C   0  0  0  0  0  0  0  0  0  0  0  0
    1.0813    1.8793    2.6026 C   0  0  1  0  0  0  0  0  0  0  0  0
    1.4102    3.2323    2.8788 O   0  0  0  0  0  0  0  0  0  0  0  0
    2.7975   -2.6153    1.0375 C   0  0  0  0  0  0  0  0  0  0  0  0
    4.1759   -3.1765    0.6188 C   0  0  1  0  0  0  0  0  0  0  0  0
    3.0861   -2.9706   -1.9945 H   0  0  0  0  0  0  0  0  0  0  0  0
    4.3266   -4.2433   -1.9162 H   0  0  0  0  0  0  0  0  0  0  0  0
    4.6643   -2.7329   -2.7530 H   0  0  0  0  0  0  0  0  0  0  0  0
    5.2583   -0.6925   -1.4353 H   0  0  0  0  0  0  0  0  0  0  0  0
    3.6097   -0.7670   -0.8864 H   0  0  0  0  0  0  0  0  0  0  0  0
    6.1498   -0.4401    0.7241 H   0  0  0  0  0  0  0  0  0  0  0  0
    4.7205    0.5470    0.7650 H   0  0  0  0  0  0  0  0  0  0  0  0
    4.7993    0.1678    3.1920 H   0  0  0  0  0  0  0  0  0  0  0  0
    6.1402   -2.7850    1.4665 H   0  0  0  0  0  0  0  0  0  0  0  0
    4.9145   -4.6404    2.7825 H   0  0  0  0  0  0  0  0  0  0  0  0
    5.7620   -3.4031    3.6636 H   0  0  0  0  0  0  0  0  0  0  0  0
    4.1522   -4.7758    5.4207 H   0  0  0  0  0  0  0  0  0  0  0  0
    2.1879   -4.2370    6.8277 H   0  0  0  0  0  0  0  0  0  0  0  0
   -0.1112   -1.6887    5.9796 H   0  0  0  0  0  0  0  0  0  0  0  0
    2.3990    0.0558    0.7964 H   0  0  0  0  0  0  0  0  0  0  0  0
    1.1664   -0.5559    1.7638 H   0  0  0  0  0  0  0  0  0  0  0  0
    3.2319    1.5944    2.3471 H   0  0  0  0  0  0  0  0  0  0  0  0
    3.2279    0.0943    4.5092 H   0  0  0  0  0  0  0  0  0  0  0  0
    2.6501    1.7139    4.7012 H   0  0  0  0  0  0  0  0  0  0  0  0
    0.8424    0.3842    5.5905 H   0  0  0  0  0  0  0  0  0  0  0  0
   -0.6562    0.7192    3.1772 H   0  0  0  0  0  0  0  0  0  0  0  0
   -2.4437    1.7654    4.7170 H   0  0  0  0  0  0  0  0  0  0  0  0
   -1.3606    0.8104    5.7078 H   0  0  0  0  0  0  0  0  0  0  0  0
   -3.5151    1.7489    7.2127 H   0  0  0  0  0  0  0  0  0  0  0  0
   -3.8311    3.2728    9.1506 H   0  0  0  0  0  0  0  0  0  0  0  0
   -2.2241    5.1341    9.5452 H   0  0  0  0  0  0  0  0  0  0  0  0
   -0.2892    5.4546    7.9981 H   0  0  0  0  0  0  0  0  0  0  0  0
    0.0309    3.9477    6.0873 H   0  0  0  0  0  0  0  0  0  0  0  0
    0.6219    1.8559    1.6095 H   0  0  0  0  0  0  0  0  0  0  0  0
    0.9462    3.7592    2.2377 H   0  0  0  0  0  0  0  0  0  0  0  0
    2.1772   -3.4178    1.4343 H   0  0  0  0  0  0  0  0  0  0  0  0
    2.2374   -2.2484    0.1754 H   0  0  0  0  0  0  0  0  0  0  0  0
    4.1556   -4.2616    0.5186 H   0  0  0  0  0  0  0  0  0  0  0  0
    5.6766   -2.8055   -0.6467 H   0  0  0  0  0  0  0  0  0  0  0  0
  1  2  1  0
  1 35  1  0
  1 36  1  0
  1 37  1  0
  2 34  1  0
  2  3  1  0
  2 68  1  6
  3  4  1  0
  3 38  1  0
  3 39  1  0
  4  5  1  0
  4 40  1  0
  4 41  1  0
  5 16  1  0
  5  6  1  1
  5  7  1  0
  6 42  1  0
  7 34  1  0
  7  8  1  0
  7 43  1  6
  8  9  1  0
  8 44  1  0
  8 45  1  0
  9 15  2  0
  9 10  1  0
 10 11  2  0
 10 46  1  0
 11 12  1  0
 11 47  1  0
 12 13  1  0
 12 14  2  0
 13 48  1  0
 14 21  1  0
 14 15  1  0
 15 16  1  0
 16 17  1  6
 16 33  1  0
 17 18  1  0
 17 49  1  0
 17 50  1  0
 18 31  1  0
 18 19  1  0
 18 51  1  6
 19 20  1  0
 19 52  1  0
 19 53  1  0
 20 21  1  0
 20 22  1  0
 20 54  1  1
 22 23  1  0
 22 31  1  0
 22 55  1  6
 23 24  1  0
 24 25  1  0
 24 56  1  0
 24 57  1  0
 25 30  1  0
 25 26  2  0
 26 27  1  0
 26 58  1  0
 27 28  2  0
 27 59  1  0
 28 29  1  0
 28 60  1  0
 29 30  2  0
 29 61  1  0
 30 62  1  0
 31 32  1  0
 31 63  1  6
 32 64  1  0
 33 34  1  0
 33 65  1  0
 33 66  1  0
 34 67  1  6
M  CHG  1   2   1
M  END
>  <i_m_ct_stereo_status>  (265) 
1

>  <s_m_source_file>  (265) 
/var/tmp/pbs.5076255.sched01/tmptehp0e0j/84lnm28v0z.sdf

>  <i_m_source_file_index>  (265) 
27

>  <i_lp_mmshare_version>  (265) 
48012

>  <i_f3d_flags>  (265) 
0

>  <s_epik_input>  (265) 
W0NIMl0xW0NIMl1OKFtDSDNdKVtDQEhdKFtDSDJdMilbQ0BASF0oW0NAQF0xKFtDQEBdMjM0KVtPSF0pW0NIMl1jNWMzYyhjKFtPSF0pW2NIXVtjSF01KU9bQ0BIXTZbQ0gyXVtDQEBIXShbQ0gyXTQpW0NASF0oW09IXSlbQ0BASF02T1tDSDJdYzdbY0hdW2NIXVtjSF1bY0hdW2NIXTc=

>  <s_epik_cmdline>  (265) 
J2VwaWtfcHl0aG9uJywgJy1waHQnLCAnMi4wJywgJy1waCcsICc3LjAnLCAnLXRuJywgJzgnLCAnLW1hJywgJzIwMCcsICctaW1hZScsICc8aW5maWxlLm1hZT4nLCAnLW9tYWUnLCAnPG91dGZpbGUubWFlPic=

>  <r_lp_tautomer_probability>  (265) 
1

>  <r_epik_Ionization_Penalty>  (265) 
0.00127691

>  <r_epik_Ionization_Penalty_Charging>  (265) 
0.000869782

>  <r_epik_Ionization_Penalty_Neutral>  (265) 
0.000407124

>  <r_epik_State_Penalty>  (265) 
-0

>  <r_epik_Charging_Adjusted_Penalty>  (265) 
0.000869782

>  <i_epik_Tot_Q>  (265) 
1

>  <i_epik_Tot_abs_Q>  (265) 
1

>  <s_lp_Force_Field>  (265) 
OPLS3e

>  <r_lp_Energy>  (265) 
99.5532

>  <b_lp_Chiralities_Consistent>  (265) 
1

>  <s_lp_Variant>  (265) 
77:0-1

>  <s_i_glide_gridfile>  (265) 
pfpi4k_grid

>  <i_i_glide_lignum>  (265) 
27

>  <i_i_glide_rotatable_bonds>  (265) 
6

>  <r_i_docking_score>  (265) 
-2.9455

>  <r_i_glide_ligand_efficiency>  (265) 
-0.0866324

>  <r_i_glide_ligand_efficiency_sa>  (265) 
-0.280655

>  <r_i_glide_ligand_efficiency_ln>  (265) 
-0.650744

>  <r_i_glide_gscore>  (265) 
-2.9455

>  <r_i_glide_lipo>  (265) 
-0.606798

>  <r_i_glide_hbond>  (265) 
0

>  <r_i_glide_metal>  (265) 
-0

>  <r_i_glide_rewards>  (265) 
-0.241546

>  <r_i_glide_evdw>  (265) 
-26.8964

>  <r_i_glide_ecoul>  (265) 
-6.82231

>  <r_i_glide_erotb>  (265) 
0.280229

>  <r_i_glide_esite>  (265) 
-0.00921961

>  <r_i_glide_emodel>  (265) 
-40.9898

>  <r_i_glide_energy>  (265) 
-33.7187

>  <r_i_glide_einternal>  (265) 
3.18664

>  <r_i_glide_intrahb_reward>  (265) 
-0

>  <i_i_glide_confnum>  (265) 
1

>  <i_i_glide_posenum>  (265) 
26

>  <r_i_glide_eff_state_penalty>  (265) 
0

>  <ligand_id>  (265) 
77

>  <original_smiles>  (265) 
CN1CCC2(O)C3Cc4ccc(O)c5c4C2(CC2CC(O5)C(OCc4ccccc4)C2O)CC31

>  <smiles>  (265) 
[H]Oc1c([H])c([H])c2c3c1OC1([H])C([H])([H])C([H])(C([H])([H])C34C([H])([H])C3([H])C([H])(C2([H])[H])C4(O[H])C([H])([H])C([H])([H])[N+]3([H])C([H])([H])[H])C([H])(O[H])C1([H])OC([H])([H])c1c([H])c([H])c([H])c([H])c1[H]

$$$$
78:0:0
     RDKit          3D

 13 14  0  0  1  0  0  0  0  0999 V2000
    6.2944   -1.8574   -0.6856 Cl  0  0  0  0  0  0  0  0  0  0  0  0
    4.7495   -2.6159   -0.6183 C   0  0  0  0  0  0  0  0  0  0  0  0
    4.2854   -3.1223    0.5481 N   0  0  0  0  0  0  0  0  0  0  0  0
    3.0874   -3.7131    0.5779 C   0  0  0  0  0  0  0  0  0  0  0  0
    2.2166   -3.8988   -0.4203 N   0  0  0  0  0  0  0  0  0  0  0  0
    2.6945   -3.3749   -1.5853 C   0  0  0  0  0  0  0  0  0  0  0  0
    2.1134   -3.3579   -2.8369 N   0  0  0  0  0  0  0  0  0  0  0  0
    2.9875   -2.7428   -3.6477 C   0  0  0  0  0  0  0  0  0  0  0  0
    4.1269   -2.3326   -3.0949 N   0  0  0  0  0  0  0  0  0  0  0  0
    3.9463   -2.7269   -1.7743 C   0  0  0  0  0  0  0  0  0  0  0  0
    1.2258   -3.7653   -3.1186 H   0  0  0  0  0  0  0  0  0  0  0  0
    2.7851   -4.0957    1.5419 H   0  0  0  0  0  0  0  0  0  0  0  0
    2.7798   -2.6003   -4.6955 H   0  0  0  0  0  0  0  0  0  0  0  0
  1  2  1  0
  2 10  2  0
  2  3  1  0
  3  4  2  0
  4  5  1  0
  4 12  1  0
  5  6  2  0
  6 10  1  0
  6  7  1  0
  7 11  1  0
  7  8  1  0
  8  9  2  0
  8 13  1  0
  9 10  1  0
M  END
>  <i_m_ct_stereo_status>  (266) 
1

>  <s_m_source_file>  (266) 
/var/tmp/pbs.5076255.sched01/tmptehp0e0j/84lnm28v0z.sdf

>  <i_m_source_file_index>  (266) 
28

>  <i_lp_mmshare_version>  (266) 
48012

>  <i_f3d_flags>  (266) 
0

>  <s_epik_input>  (266) 
bjFbY0hdbmMoQ2wpYyhjMTIpbltjSF1bbkhdMg==

>  <s_epik_cmdline>  (266) 
J2VwaWtfcHl0aG9uJywgJy1waHQnLCAnMi4wJywgJy1waCcsICc3LjAnLCAnLXRuJywgJzgnLCAnLW1hJywgJzIwMCcsICctaW1hZScsICc8aW5maWxlLm1hZT4nLCAnLW9tYWUnLCAnPG91dGZpbGUubWFlPic=

>  <r_lp_tautomer_probability>  (266) 
0.605878

>  <r_epik_Ionization_Penalty>  (266) 
0.0540256

>  <r_epik_Ionization_Penalty_Charging>  (266) 
0

>  <r_epik_Ionization_Penalty_Neutral>  (266) 
0.0540256

>  <r_epik_State_Penalty>  (266) 
0.264934

>  <r_epik_Charging_Adjusted_Penalty>  (266) 
0.264934

>  <i_epik_Tot_Q>  (266) 
0

>  <i_epik_Tot_abs_Q>  (266) 
0

>  <s_lp_Force_Field>  (266) 
OPLS3e

>  <r_lp_Energy>  (266) 
12.3567

>  <b_lp_Chiralities_Consistent>  (266) 
1

>  <s_lp_Variant>  (266) 
78:0-1

>  <s_i_glide_gridfile>  (266) 
pfpi4k_grid

>  <i_i_glide_lignum>  (266) 
28

>  <i_i_glide_rotatable_bonds>  (266) 
0

>  <r_i_docking_score>  (266) 
-4.77373

>  <r_i_glide_ligand_efficiency>  (266) 
-0.477373

>  <r_i_glide_ligand_efficiency_sa>  (266) 
-1.02847

>  <r_i_glide_ligand_efficiency_ln>  (266) 
-1.44545

>  <r_i_glide_gscore>  (266) 
-4.77373

>  <r_i_glide_lipo>  (266) 
0

>  <r_i_glide_hbond>  (266) 
-0.32

>  <r_i_glide_metal>  (266) 
-0

>  <r_i_glide_rewards>  (266) 
-2.76269

>  <r_i_glide_evdw>  (266) 
-13.6561

>  <r_i_glide_ecoul>  (266) 
-6.65332

>  <r_i_glide_erotb>  (266) 
0

>  <r_i_glide_esite>  (266) 
-0.0102333

>  <r_i_glide_emodel>  (266) 
-28.5221

>  <r_i_glide_energy>  (266) 
-20.3095

>  <r_i_glide_einternal>  (266) 
0

>  <r_i_glide_intrahb_reward>  (266) 
-0

>  <i_i_glide_confnum>  (266) 
2

>  <i_i_glide_posenum>  (266) 
35

>  <r_i_glide_eff_state_penalty>  (266) 
0

>  <ligand_id>  (266) 
78

>  <original_smiles>  (266) 
Clc1ncnc2[nH]cnc12

>  <smiles>  (266) 
[H]c1nc(Cl)c2nc([H])n([H])c2n1

$$$$
78:0:1
     RDKit          3D

 13 14  0  0  1  0  0  0  0  0999 V2000
    6.9824   -2.6620   -1.5091 Cl  0  0  0  0  0  0  0  0  0  0  0  0
    5.3508   -3.1066   -1.1541 C   0  0  0  0  0  0  0  0  0  0  0  0
    5.0303   -3.6390    0.0480 N   0  0  0  0  0  0  0  0  0  0  0  0
    3.7613   -3.9715    0.3100 C   0  0  0  0  0  0  0  0  0  0  0  0
    2.6804   -3.8524   -0.4675 N   0  0  0  0  0  0  0  0  0  0  0  0
    3.0182   -3.3118   -1.6761 C   0  0  0  0  0  0  0  0  0  0  0  0
    2.2128   -3.0559   -2.7672 N   0  0  0  0  0  0  0  0  0  0  0  0
    3.0141   -2.5250   -3.7037 C   0  0  0  0  0  0  0  0  0  0  0  0
    4.3046   -2.4128   -3.3968 N   0  0  0  0  0  0  0  0  0  0  0  0
    4.3173   -2.9167   -2.1013 C   0  0  0  0  0  0  0  0  0  0  0  0
    1.2227   -3.2288   -2.8648 H   0  0  0  0  0  0  0  0  0  0  0  0
    3.5896   -4.3978    1.2881 H   0  0  0  0  0  0  0  0  0  0  0  0
    2.6380   -2.2101   -4.6641 H   0  0  0  0  0  0  0  0  0  0  0  0
  1  2  1  0
  2 10  2  0
  2  3  1  0
  3  4  2  0
  4  5  1  0
  4 12  1  0
  5  6  2  0
  6 10  1  0
  6  7  1  0
  7 11  1  0
  7  8  1  0
  8  9  2  0
  8 13  1  0
  9 10  1  0
M  END
>  <i_m_ct_stereo_status>  (267) 
1

>  <s_m_source_file>  (267) 
/var/tmp/pbs.5076255.sched01/tmptehp0e0j/84lnm28v0z.sdf

>  <i_m_source_file_index>  (267) 
28

>  <i_lp_mmshare_version>  (267) 
48012

>  <i_f3d_flags>  (267) 
0

>  <s_epik_input>  (267) 
bjFbY0hdbmMoQ2wpYyhjMTIpbltjSF1bbkhdMg==

>  <s_epik_cmdline>  (267) 
J2VwaWtfcHl0aG9uJywgJy1waHQnLCAnMi4wJywgJy1waCcsICc3LjAnLCAnLXRuJywgJzgnLCAnLW1hJywgJzIwMCcsICctaW1hZScsICc8aW5maWxlLm1hZT4nLCAnLW9tYWUnLCAnPG91dGZpbGUubWFlPic=

>  <r_lp_tautomer_probability>  (267) 
0.605878

>  <r_epik_Ionization_Penalty>  (267) 
0.0540256

>  <r_epik_Ionization_Penalty_Charging>  (267) 
0

>  <r_epik_Ionization_Penalty_Neutral>  (267) 
0.0540256

>  <r_epik_State_Penalty>  (267) 
0.264934

>  <r_epik_Charging_Adjusted_Penalty>  (267) 
0.264934

>  <i_epik_Tot_Q>  (267) 
0

>  <i_epik_Tot_abs_Q>  (267) 
0

>  <s_lp_Force_Field>  (267) 
OPLS3e

>  <r_lp_Energy>  (267) 
12.3567

>  <b_lp_Chiralities_Consistent>  (267) 
1

>  <s_lp_Variant>  (267) 
78:0-1

>  <s_i_glide_gridfile>  (267) 
pfpi4k_grid

>  <i_i_glide_lignum>  (267) 
28

>  <i_i_glide_rotatable_bonds>  (267) 
0

>  <r_i_docking_score>  (267) 
-4.4008

>  <r_i_glide_ligand_efficiency>  (267) 
-0.44008

>  <r_i_glide_ligand_efficiency_sa>  (267) 
-0.948124

>  <r_i_glide_ligand_efficiency_ln>  (267) 
-1.33253

>  <r_i_glide_gscore>  (267) 
-4.4008

>  <r_i_glide_lipo>  (267) 
-0.0487369

>  <r_i_glide_hbond>  (267) 
-0.103134

>  <r_i_glide_metal>  (267) 
-0

>  <r_i_glide_rewards>  (267) 
-2.69048

>  <r_i_glide_evdw>  (267) 
-17.7751

>  <r_i_glide_ecoul>  (267) 
-4.46181

>  <r_i_glide_erotb>  (267) 
0

>  <r_i_glide_esite>  (267) 
-0.000419023

>  <r_i_glide_emodel>  (267) 
-29.8064

>  <r_i_glide_energy>  (267) 
-22.237

>  <r_i_glide_einternal>  (267) 
0

>  <r_i_glide_intrahb_reward>  (267) 
-0

>  <i_i_glide_confnum>  (267) 
2

>  <i_i_glide_posenum>  (267) 
37

>  <r_i_glide_eff_state_penalty>  (267) 
0

>  <ligand_id>  (267) 
78

>  <original_smiles>  (267) 
Clc1ncnc2[nH]cnc12

>  <smiles>  (267) 
[H]c1nc(Cl)c2nc([H])n([H])c2n1

$$$$
78:0:2
     RDKit          3D

 13 14  0  0  1  0  0  0  0  0999 V2000
   -2.6589    2.7868    7.5434 Cl  0  0  0  0  0  0  0  0  0  0  0  0
   -2.0116    1.8779    6.2244 C   0  0  0  0  0  0  0  0  0  0  0  0
   -1.7859    0.5452    6.3532 N   0  0  0  0  0  0  0  0  0  0  0  0
   -1.2907   -0.1332    5.3083 C   0  0  0  0  0  0  0  0  0  0  0  0
   -0.9852    0.3036    4.0851 N   0  0  0  0  0  0  0  0  0  0  0  0
   -1.2282    1.6388    3.9668 C   0  0  0  0  0  0  0  0  0  0  0  0
   -1.0383    2.4687    2.8803 N   0  0  0  0  0  0  0  0  0  0  0  0
   -1.4229    3.6915    3.2787 C   0  0  0  0  0  0  0  0  0  0  0  0
   -1.8694    3.8030    4.5282 N   0  0  0  0  0  0  0  0  0  0  0  0
   -1.7388    2.4963    4.9823 C   0  0  0  0  0  0  0  0  0  0  0  0
   -0.6608    2.2579    1.9642 H   0  0  0  0  0  0  0  0  0  0  0  0
   -1.1201   -1.1841    5.4824 H   0  0  0  0  0  0  0  0  0  0  0  0
   -1.3812    4.5323    2.6040 H   0  0  0  0  0  0  0  0  0  0  0  0
  1  2  1  0
  2 10  2  0
  2  3  1  0
  3  4  2  0
  4  5  1  0
  4 12  1  0
  5  6  2  0
  6 10  1  0
  6  7  1  0
  7 11  1  0
  7  8  1  0
  8  9  2  0
  8 13  1  0
  9 10  1  0
M  END
>  <i_m_ct_stereo_status>  (268) 
1

>  <s_m_source_file>  (268) 
/var/tmp/pbs.5076255.sched01/tmptehp0e0j/84lnm28v0z.sdf

>  <i_m_source_file_index>  (268) 
28

>  <i_lp_mmshare_version>  (268) 
48012

>  <i_f3d_flags>  (268) 
0

>  <s_epik_input>  (268) 
bjFbY0hdbmMoQ2wpYyhjMTIpbltjSF1bbkhdMg==

>  <s_epik_cmdline>  (268) 
J2VwaWtfcHl0aG9uJywgJy1waHQnLCAnMi4wJywgJy1waCcsICc3LjAnLCAnLXRuJywgJzgnLCAnLW1hJywgJzIwMCcsICctaW1hZScsICc8aW5maWxlLm1hZT4nLCAnLW9tYWUnLCAnPG91dGZpbGUubWFlPic=

>  <r_lp_tautomer_probability>  (268) 
0.605878

>  <r_epik_Ionization_Penalty>  (268) 
0.0540256

>  <r_epik_Ionization_Penalty_Charging>  (268) 
0

>  <r_epik_Ionization_Penalty_Neutral>  (268) 
0.0540256

>  <r_epik_State_Penalty>  (268) 
0.264934

>  <r_epik_Charging_Adjusted_Penalty>  (268) 
0.264934

>  <i_epik_Tot_Q>  (268) 
0

>  <i_epik_Tot_abs_Q>  (268) 
0

>  <s_lp_Force_Field>  (268) 
OPLS3e

>  <r_lp_Energy>  (268) 
12.3567

>  <b_lp_Chiralities_Consistent>  (268) 
1

>  <s_lp_Variant>  (268) 
78:0-1

>  <s_i_glide_gridfile>  (268) 
pfpi4k_grid

>  <i_i_glide_lignum>  (268) 
28

>  <i_i_glide_rotatable_bonds>  (268) 
0

>  <r_i_docking_score>  (268) 
-4.24057

>  <r_i_glide_ligand_efficiency>  (268) 
-0.424057

>  <r_i_glide_ligand_efficiency_sa>  (268) 
-0.913603

>  <r_i_glide_ligand_efficiency_ln>  (268) 
-1.28402

>  <r_i_glide_gscore>  (268) 
-4.24057

>  <r_i_glide_lipo>  (268) 
-0.146564

>  <r_i_glide_hbond>  (268) 
-0.158635

>  <r_i_glide_metal>  (268) 
-0

>  <r_i_glide_rewards>  (268) 
-2.25

>  <r_i_glide_evdw>  (268) 
-14.296

>  <r_i_glide_ecoul>  (268) 
-4.9166

>  <r_i_glide_erotb>  (268) 
0

>  <r_i_glide_esite>  (268) 
-0.233081

>  <r_i_glide_emodel>  (268) 
-26.5076

>  <r_i_glide_energy>  (268) 
-19.2126

>  <r_i_glide_einternal>  (268) 
0

>  <r_i_glide_intrahb_reward>  (268) 
-0

>  <i_i_glide_confnum>  (268) 
2

>  <i_i_glide_posenum>  (268) 
14

>  <r_i_glide_eff_state_penalty>  (268) 
0

>  <ligand_id>  (268) 
78

>  <original_smiles>  (268) 
Clc1ncnc2[nH]cnc12

>  <smiles>  (268) 
[H]c1nc(Cl)c2nc([H])n([H])c2n1

$$$$
78:1:0
     RDKit          3D

 13 14  0  0  1  0  0  0  0  0999 V2000
    2.3444  -10.5148    3.0217 Cl  0  0  0  0  0  0  0  0  0  0  0  0
    1.6874   -9.0202    2.4698 C   0  0  0  0  0  0  0  0  0  0  0  0
    2.4042   -8.1889    1.6846 N   0  0  0  0  0  0  0  0  0  0  0  0
    1.8321   -7.0438    1.2939 C   0  0  0  0  0  0  0  0  0  0  0  0
    0.6053   -6.5700    1.5671 N   0  0  0  0  0  0  0  0  0  0  0  0
   -0.1006   -7.3901    2.3570 C   0  0  0  0  0  0  0  0  0  0  0  0
   -1.3835   -7.1431    2.8276 N   0  0  0  0  0  0  0  0  0  0  0  0
   -1.6212   -8.2414    3.5460 C   0  0  0  0  0  0  0  0  0  0  0  0
   -0.6325   -9.1434    3.6153 N   0  0  0  0  0  0  0  0  0  0  0  0
    0.3954   -8.6308    2.8435 C   0  0  0  0  0  0  0  0  0  0  0  0
   -0.7048  -10.0207    4.1305 H   0  0  0  0  0  0  0  0  0  0  0  0
    2.4442   -6.4215    0.6596 H   0  0  0  0  0  0  0  0  0  0  0  0
   -2.5581   -8.4046    4.0543 H   0  0  0  0  0  0  0  0  0  0  0  0
  1  2  1  0
  2  3  2  0
  2 10  1  0
  3  4  1  0
  4 12  1  0
  4  5  2  0
  5  6  1  0
  6  7  1  0
  6 10  2  0
  7  8  2  0
  8 13  1  0
  8  9  1  0
  9 11  1  0
  9 10  1  0
M  END
>  <i_m_ct_stereo_status>  (269) 
1

>  <s_m_source_file>  (269) 
/var/tmp/pbs.5076255.sched01/tmptehp0e0j/84lnm28v0z.sdf

>  <i_m_source_file_index>  (269) 
29

>  <i_lp_mmshare_version>  (269) 
48012

>  <i_f3d_flags>  (269) 
0

>  <s_epik_input>  (269) 
bjFbY0hdbmMoQ2wpYyhjMTIpbltjSF1bbkhdMg==

>  <s_epik_cmdline>  (269) 
J2VwaWtfcHl0aG9uJywgJy1waHQnLCAnMi4wJywgJy1waCcsICc3LjAnLCAnLXRuJywgJzgnLCAnLW1hJywgJzIwMCcsICctaW1hZScsICc8aW5maWxlLm1hZT4nLCAnLW9tYWUnLCAnPG91dGZpbGUubWFlPic=

>  <r_lp_tautomer_probability>  (269) 
0.393285

>  <r_epik_Ionization_Penalty>  (269) 
0.164778

>  <r_epik_Ionization_Penalty_Charging>  (269) 
4.08285e-06

>  <r_epik_Ionization_Penalty_Neutral>  (269) 
0.164774

>  <r_epik_State_Penalty>  (269) 
0.738777

>  <r_epik_Charging_Adjusted_Penalty>  (269) 
0.738781

>  <i_epik_Tot_Q>  (269) 
0

>  <i_epik_Tot_abs_Q>  (269) 
0

>  <s_lp_Force_Field>  (269) 
OPLS3e

>  <r_lp_Energy>  (269) 
12.9373

>  <b_lp_Chiralities_Consistent>  (269) 
1

>  <s_lp_Variant>  (269) 
78:0-2

>  <s_i_glide_gridfile>  (269) 
pfpi4k_grid

>  <i_i_glide_lignum>  (269) 
29

>  <i_i_glide_rotatable_bonds>  (269) 
0

>  <r_i_docking_score>  (269) 
-4.67884

>  <r_i_glide_ligand_efficiency>  (269) 
-0.467884

>  <r_i_glide_ligand_efficiency_sa>  (269) 
-1.00803

>  <r_i_glide_ligand_efficiency_ln>  (269) 
-1.41672

>  <r_i_glide_gscore>  (269) 
-4.67884

>  <r_i_glide_lipo>  (269) 
-0.0435915

>  <r_i_glide_hbond>  (269) 
-0.360314

>  <r_i_glide_metal>  (269) 
-0

>  <r_i_glide_rewards>  (269) 
-2.25

>  <r_i_glide_evdw>  (269) 
-15.3471

>  <r_i_glide_ecoul>  (269) 
-6.67924

>  <r_i_glide_erotb>  (269) 
0

>  <r_i_glide_esite>  (269) 
-0.255693

>  <r_i_glide_emodel>  (269) 
-30.0774

>  <r_i_glide_energy>  (269) 
-22.0263

>  <r_i_glide_einternal>  (269) 
0

>  <r_i_glide_intrahb_reward>  (269) 
-0

>  <i_i_glide_confnum>  (269) 
2

>  <i_i_glide_posenum>  (269) 
20

>  <r_i_glide_eff_state_penalty>  (269) 
0

>  <ligand_id>  (269) 
78

>  <original_smiles>  (269) 
Clc1ncnc2[nH]cnc12

>  <smiles>  (269) 
[H]c1nc(Cl)c2c(n1)nc([H])n2[H]

$$$$
78:1:1
     RDKit          3D

 13 14  0  0  1  0  0  0  0  0999 V2000
    0.3348   -9.0391    7.1274 Cl  0  0  0  0  0  0  0  0  0  0  0  0
    0.4631   -7.8775    5.8587 C   0  0  0  0  0  0  0  0  0  0  0  0
    1.1542   -6.7347    6.0311 N   0  0  0  0  0  0  0  0  0  0  0  0
    1.1952   -5.8691    5.0111 C   0  0  0  0  0  0  0  0  0  0  0  0
    0.6142   -5.9453    3.8077 N   0  0  0  0  0  0  0  0  0  0  0  0
   -0.0727   -7.0760    3.6312 C   0  0  0  0  0  0  0  0  0  0  0  0
   -0.8030   -7.4140    2.5000 N   0  0  0  0  0  0  0  0  0  0  0  0
   -1.2808   -8.6122    2.8371 C   0  0  0  0  0  0  0  0  0  0  0  0
   -0.9841   -9.0563    4.0711 N   0  0  0  0  0  0  0  0  0  0  0  0
   -0.1846   -8.0816    4.6346 C   0  0  0  0  0  0  0  0  0  0  0  0
   -1.3440   -9.9300    4.4908 H   0  0  0  0  0  0  0  0  0  0  0  0
    1.7715   -4.9784    5.1941 H   0  0  0  0  0  0  0  0  0  0  0  0
   -1.8941   -9.1939    2.1717 H   0  0  0  0  0  0  0  0  0  0  0  0
  1  2  1  0
  2  3  2  0
  2 10  1  0
  3  4  1  0
  4 12  1  0
  4  5  2  0
  5  6  1  0
  6  7  1  0
  6 10  2  0
  7  8  2  0
  8 13  1  0
  8  9  1  0
  9 11  1  0
  9 10  1  0
M  END
>  <i_m_ct_stereo_status>  (270) 
1

>  <s_m_source_file>  (270) 
/var/tmp/pbs.5076255.sched01/tmptehp0e0j/84lnm28v0z.sdf

>  <i_m_source_file_index>  (270) 
29

>  <i_lp_mmshare_version>  (270) 
48012

>  <i_f3d_flags>  (270) 
0

>  <s_epik_input>  (270) 
bjFbY0hdbmMoQ2wpYyhjMTIpbltjSF1bbkhdMg==

>  <s_epik_cmdline>  (270) 
J2VwaWtfcHl0aG9uJywgJy1waHQnLCAnMi4wJywgJy1waCcsICc3LjAnLCAnLXRuJywgJzgnLCAnLW1hJywgJzIwMCcsICctaW1hZScsICc8aW5maWxlLm1hZT4nLCAnLW9tYWUnLCAnPG91dGZpbGUubWFlPic=

>  <r_lp_tautomer_probability>  (270) 
0.393285

>  <r_epik_Ionization_Penalty>  (270) 
0.164778

>  <r_epik_Ionization_Penalty_Charging>  (270) 
4.08285e-06

>  <r_epik_Ionization_Penalty_Neutral>  (270) 
0.164774

>  <r_epik_State_Penalty>  (270) 
0.738777

>  <r_epik_Charging_Adjusted_Penalty>  (270) 
0.738781

>  <i_epik_Tot_Q>  (270) 
0

>  <i_epik_Tot_abs_Q>  (270) 
0

>  <s_lp_Force_Field>  (270) 
OPLS3e

>  <r_lp_Energy>  (270) 
12.9373

>  <b_lp_Chiralities_Consistent>  (270) 
1

>  <s_lp_Variant>  (270) 
78:0-2

>  <s_i_glide_gridfile>  (270) 
pfpi4k_grid

>  <i_i_glide_lignum>  (270) 
29

>  <i_i_glide_rotatable_bonds>  (270) 
0

>  <r_i_docking_score>  (270) 
-4.19435

>  <r_i_glide_ligand_efficiency>  (270) 
-0.419435

>  <r_i_glide_ligand_efficiency_sa>  (270) 
-0.903646

>  <r_i_glide_ligand_efficiency_ln>  (270) 
-1.27002

>  <r_i_glide_gscore>  (270) 
-4.19435

>  <r_i_glide_lipo>  (270) 
0

>  <r_i_glide_hbond>  (270) 
-0.20314

>  <r_i_glide_metal>  (270) 
-0

>  <r_i_glide_rewards>  (270) 
-2.25

>  <r_i_glide_evdw>  (270) 
-11.3725

>  <r_i_glide_ecoul>  (270) 
-6.6517

>  <r_i_glide_erotb>  (270) 
0

>  <r_i_glide_esite>  (270) 
-0.174831

>  <r_i_glide_emodel>  (270) 
-25.2349

>  <r_i_glide_energy>  (270) 
-18.0242

>  <r_i_glide_einternal>  (270) 
0

>  <r_i_glide_intrahb_reward>  (270) 
-0

>  <i_i_glide_confnum>  (270) 
1

>  <i_i_glide_posenum>  (270) 
30

>  <r_i_glide_eff_state_penalty>  (270) 
0

>  <ligand_id>  (270) 
78

>  <original_smiles>  (270) 
Clc1ncnc2[nH]cnc12

>  <smiles>  (270) 
[H]c1nc(Cl)c2c(n1)nc([H])n2[H]

$$$$
78:1:2
     RDKit          3D

 13 14  0  0  1  0  0  0  0  0999 V2000
    4.5844   -9.0442    1.7545 Cl  0  0  0  0  0  0  0  0  0  0  0  0
    3.5760   -7.6989    1.3777 C   0  0  0  0  0  0  0  0  0  0  0  0
    4.0820   -6.6071    0.7686 N   0  0  0  0  0  0  0  0  0  0  0  0
    3.2438   -5.6024    0.4850 C   0  0  0  0  0  0  0  0  0  0  0  0
    1.9257   -5.5083    0.7279 N   0  0  0  0  0  0  0  0  0  0  0  0
    1.4233   -6.5859    1.3394 C   0  0  0  0  0  0  0  0  0  0  0  0
    0.0959   -6.7537    1.7132 N   0  0  0  0  0  0  0  0  0  0  0  0
    0.1270   -7.9710    2.2628 C   0  0  0  0  0  0  0  0  0  0  0  0
    1.3210   -8.5893    2.2898 N   0  0  0  0  0  0  0  0  0  0  0  0
    2.2095   -7.7160    1.6900 C   0  0  0  0  0  0  0  0  0  0  0  0
    1.4952   -9.5147    2.6595 H   0  0  0  0  0  0  0  0  0  0  0  0
    3.6922   -4.7514   -0.0064 H   0  0  0  0  0  0  0  0  0  0  0  0
   -0.7577   -8.4411    2.6656 H   0  0  0  0  0  0  0  0  0  0  0  0
  1  2  1  0
  2  3  2  0
  2 10  1  0
  3  4  1  0
  4 12  1  0
  4  5  2  0
  5  6  1  0
  6  7  1  0
  6 10  2  0
  7  8  2  0
  8 13  1  0
  8  9  1  0
  9 11  1  0
  9 10  1  0
M  END
>  <i_m_ct_stereo_status>  (271) 
1

>  <s_m_source_file>  (271) 
/var/tmp/pbs.5076255.sched01/tmptehp0e0j/84lnm28v0z.sdf

>  <i_m_source_file_index>  (271) 
29

>  <i_lp_mmshare_version>  (271) 
48012

>  <i_f3d_flags>  (271) 
0

>  <s_epik_input>  (271) 
bjFbY0hdbmMoQ2wpYyhjMTIpbltjSF1bbkhdMg==

>  <s_epik_cmdline>  (271) 
J2VwaWtfcHl0aG9uJywgJy1waHQnLCAnMi4wJywgJy1waCcsICc3LjAnLCAnLXRuJywgJzgnLCAnLW1hJywgJzIwMCcsICctaW1hZScsICc8aW5maWxlLm1hZT4nLCAnLW9tYWUnLCAnPG91dGZpbGUubWFlPic=

>  <r_lp_tautomer_probability>  (271) 
0.393285

>  <r_epik_Ionization_Penalty>  (271) 
0.164778

>  <r_epik_Ionization_Penalty_Charging>  (271) 
4.08285e-06

>  <r_epik_Ionization_Penalty_Neutral>  (271) 
0.164774

>  <r_epik_State_Penalty>  (271) 
0.738777

>  <r_epik_Charging_Adjusted_Penalty>  (271) 
0.738781

>  <i_epik_Tot_Q>  (271) 
0

>  <i_epik_Tot_abs_Q>  (271) 
0

>  <s_lp_Force_Field>  (271) 
OPLS3e

>  <r_lp_Energy>  (271) 
12.9373

>  <b_lp_Chiralities_Consistent>  (271) 
1

>  <s_lp_Variant>  (271) 
78:0-2

>  <s_i_glide_gridfile>  (271) 
pfpi4k_grid

>  <i_i_glide_lignum>  (271) 
29

>  <i_i_glide_rotatable_bonds>  (271) 
0

>  <r_i_docking_score>  (271) 
-3.90543

>  <r_i_glide_ligand_efficiency>  (271) 
-0.390543

>  <r_i_glide_ligand_efficiency_sa>  (271) 
-0.8414

>  <r_i_glide_ligand_efficiency_ln>  (271) 
-1.18254

>  <r_i_glide_gscore>  (271) 
-3.90543

>  <r_i_glide_lipo>  (271) 
-0.0308869

>  <r_i_glide_hbond>  (271) 
-0.163951

>  <r_i_glide_metal>  (271) 
-0

>  <r_i_glide_rewards>  (271) 
-2.25

>  <r_i_glide_evdw>  (271) 
-13.7035

>  <r_i_glide_ecoul>  (271) 
-4.20593

>  <r_i_glide_erotb>  (271) 
0

>  <r_i_glide_esite>  (271) 
-0.14453

>  <r_i_glide_emodel>  (271) 
-24.6286

>  <r_i_glide_energy>  (271) 
-17.9094

>  <r_i_glide_einternal>  (271) 
0

>  <r_i_glide_intrahb_reward>  (271) 
-0

>  <i_i_glide_confnum>  (271) 
2

>  <i_i_glide_posenum>  (271) 
13

>  <r_i_glide_eff_state_penalty>  (271) 
0

>  <ligand_id>  (271) 
78

>  <original_smiles>  (271) 
Clc1ncnc2[nH]cnc12

>  <smiles>  (271) 
[H]c1nc(Cl)c2c(n1)nc([H])n2[H]

$$$$
78:2:0
     RDKit          3D

 12 13  0  0  1  0  0  0  0  0999 V2000
   -2.5795    3.1342    7.3211 Cl  0  0  0  0  0  0  0  0  0  0  0  0
   -2.0730    2.5588    5.7739 C   0  0  0  0  0  0  0  0  0  0  0  0
   -1.9832    3.4379    4.7444 N   0  0  0  0  0  0  0  0  0  0  0  0
   -1.5819    2.9367    3.5666 C   0  0  0  0  0  0  0  0  0  0  0  0
   -1.2662    1.6651    3.3073 N   0  0  0  0  0  0  0  0  0  0  0  0
   -1.3712    0.7950    4.3302 C   0  0  0  0  0  0  0  0  0  0  0  0
   -1.1505   -0.5111    4.4241 N   0  0  0  0  0  0  0  0  0  0  0  0
   -1.4045   -0.8788    5.6995 C   0  0  0  0  0  0  0  0  0  0  0  0
   -1.8293    0.1421    6.4795 N   0  0  0  0  0  0  0  0  0  0  0  0
   -1.7787    1.1886    5.5956 C   0  0  0  0  0  0  0  0  0  0  0  0
   -1.5161    3.6363    2.7486 H   0  0  0  0  0  0  0  0  0  0  0  0
   -1.2690   -1.9125    6.0046 H   0  0  0  0  0  0  0  0  0  0  0  0
  1  2  1  0
  2 10  2  0
  2  3  1  0
  3  4  2  0
  4  5  1  0
  4 11  1  0
  5  6  2  0
  6 10  1  0
  6  7  1  0
  7  8  1  0
  8  9  2  0
  8 12  1  0
  9 10  1  0
M  CHG  1   7  -1
M  END
>  <i_m_ct_stereo_status>  (272) 
1

>  <s_m_source_file>  (272) 
/var/tmp/pbs.5076255.sched01/tmptehp0e0j/84lnm28v0z.sdf

>  <i_m_source_file_index>  (272) 
30

>  <i_lp_mmshare_version>  (272) 
48012

>  <i_f3d_flags>  (272) 
0

>  <s_epik_input>  (272) 
bjFbY0hdbmMoQ2wpYyhjMTIpbltjSF1bbkhdMg==

>  <s_epik_cmdline>  (272) 
J2VwaWtfcHl0aG9uJywgJy1waHQnLCAnMi4wJywgJy1waCcsICc3LjAnLCAnLXRuJywgJzgnLCAnLW1hJywgJzIwMCcsICctaW1hZScsICc8aW5maWxlLm1hZT4nLCAnLW9tYWUnLCAnPG91dGZpbGUubWFlPic=

>  <r_lp_tautomer_probability>  (272) 
1

>  <r_epik_Ionization_Penalty>  (272) 
2.13657

>  <r_epik_Ionization_Penalty_Charging>  (272) 
1.44573

>  <r_epik_Ionization_Penalty_Neutral>  (272) 
0.690841

>  <r_epik_State_Penalty>  (272) 
1.54937

>  <r_epik_Charging_Adjusted_Penalty>  (272) 
2.9951

>  <i_epik_Tot_Q>  (272) 
-1

>  <i_epik_Tot_abs_Q>  (272) 
1

>  <s_lp_Force_Field>  (272) 
OPLS3e

>  <r_lp_Energy>  (272) 
15.8028

>  <b_lp_Chiralities_Consistent>  (272) 
1

>  <s_lp_Variant>  (272) 
78:0-3

>  <s_i_glide_gridfile>  (272) 
pfpi4k_grid

>  <i_i_glide_lignum>  (272) 
30

>  <i_i_glide_rotatable_bonds>  (272) 
0

>  <r_i_docking_score>  (272) 
-4.55339

>  <r_i_glide_ligand_efficiency>  (272) 
-0.455339

>  <r_i_glide_ligand_efficiency_sa>  (272) 
-0.980998

>  <r_i_glide_ligand_efficiency_ln>  (272) 
-1.37874

>  <r_i_glide_gscore>  (272) 
-4.55339

>  <r_i_glide_lipo>  (272) 
-0.188416

>  <r_i_glide_hbond>  (272) 
-0.16

>  <r_i_glide_metal>  (272) 
-0

>  <r_i_glide_rewards>  (272) 
-2.25

>  <r_i_glide_evdw>  (272) 
-11.1452

>  <r_i_glide_ecoul>  (272) 
-8.36096

>  <r_i_glide_erotb>  (272) 
0

>  <r_i_glide_esite>  (272) 
-0.143571

>  <r_i_glide_emodel>  (272) 
-28.0067

>  <r_i_glide_energy>  (272) 
-19.5062

>  <r_i_glide_einternal>  (272) 
0

>  <r_i_glide_intrahb_reward>  (272) 
-0

>  <i_i_glide_confnum>  (272) 
1

>  <i_i_glide_posenum>  (272) 
1

>  <r_i_glide_eff_state_penalty>  (272) 
0

>  <ligand_id>  (272) 
78

>  <original_smiles>  (272) 
Clc1ncnc2[nH]cnc12

>  <smiles>  (272) 
[H]c1nc(Cl)c2nc([H])[n-]c2n1

$$$$
78:2:1
     RDKit          3D

 12 13  0  0  1  0  0  0  0  0999 V2000
   -1.5780   -7.5548    2.8838 Cl  0  0  0  0  0  0  0  0  0  0  0  0
    0.1202   -7.3454    3.1201 C   0  0  0  0  0  0  0  0  0  0  0  0
    0.6649   -7.7301    4.2949 N   0  0  0  0  0  0  0  0  0  0  0  0
    1.9803   -7.5491    4.4371 C   0  0  0  0  0  0  0  0  0  0  0  0
    2.8125   -7.0020    3.5561 N   0  0  0  0  0  0  0  0  0  0  0  0
    2.2668   -6.6043    2.3933 C   0  0  0  0  0  0  0  0  0  0  0  0
    2.7774   -6.0365    1.3184 N   0  0  0  0  0  0  0  0  0  0  0  0
    1.7694   -5.8523    0.4305 C   0  0  0  0  0  0  0  0  0  0  0  0
    0.5584   -6.2565    0.8915 N   0  0  0  0  0  0  0  0  0  0  0  0
    0.9109   -6.7400    2.1202 C   0  0  0  0  0  0  0  0  0  0  0  0
    2.4159   -7.8634    5.3739 H   0  0  0  0  0  0  0  0  0  0  0  0
    1.9842   -5.3851   -0.5284 H   0  0  0  0  0  0  0  0  0  0  0  0
  1  2  1  0
  2 10  2  0
  2  3  1  0
  3  4  2  0
  4  5  1  0
  4 11  1  0
  5  6  2  0
  6 10  1  0
  6  7  1  0
  7  8  1  0
  8  9  2  0
  8 12  1  0
  9 10  1  0
M  CHG  1   7  -1
M  END
>  <i_m_ct_stereo_status>  (273) 
1

>  <s_m_source_file>  (273) 
/var/tmp/pbs.5076255.sched01/tmptehp0e0j/84lnm28v0z.sdf

>  <i_m_source_file_index>  (273) 
30

>  <i_lp_mmshare_version>  (273) 
48012

>  <i_f3d_flags>  (273) 
0

>  <s_epik_input>  (273) 
bjFbY0hdbmMoQ2wpYyhjMTIpbltjSF1bbkhdMg==

>  <s_epik_cmdline>  (273) 
J2VwaWtfcHl0aG9uJywgJy1waHQnLCAnMi4wJywgJy1waCcsICc3LjAnLCAnLXRuJywgJzgnLCAnLW1hJywgJzIwMCcsICctaW1hZScsICc8aW5maWxlLm1hZT4nLCAnLW9tYWUnLCAnPG91dGZpbGUubWFlPic=

>  <r_lp_tautomer_probability>  (273) 
1

>  <r_epik_Ionization_Penalty>  (273) 
2.13657

>  <r_epik_Ionization_Penalty_Charging>  (273) 
1.44573

>  <r_epik_Ionization_Penalty_Neutral>  (273) 
0.690841

>  <r_epik_State_Penalty>  (273) 
1.54937

>  <r_epik_Charging_Adjusted_Penalty>  (273) 
2.9951

>  <i_epik_Tot_Q>  (273) 
-1

>  <i_epik_Tot_abs_Q>  (273) 
1

>  <s_lp_Force_Field>  (273) 
OPLS3e

>  <r_lp_Energy>  (273) 
15.8028

>  <b_lp_Chiralities_Consistent>  (273) 
1

>  <s_lp_Variant>  (273) 
78:0-3

>  <s_i_glide_gridfile>  (273) 
pfpi4k_grid

>  <i_i_glide_lignum>  (273) 
30

>  <i_i_glide_rotatable_bonds>  (273) 
0

>  <r_i_docking_score>  (273) 
-4.20421

>  <r_i_glide_ligand_efficiency>  (273) 
-0.420421

>  <r_i_glide_ligand_efficiency_sa>  (273) 
-0.905771

>  <r_i_glide_ligand_efficiency_ln>  (273) 
-1.27301

>  <r_i_glide_gscore>  (273) 
-4.20421

>  <r_i_glide_lipo>  (273) 
0

>  <r_i_glide_hbond>  (273) 
-0.16

>  <r_i_glide_metal>  (273) 
-0

>  <r_i_glide_rewards>  (273) 
-2.25

>  <r_i_glide_evdw>  (273) 
-10.0307

>  <r_i_glide_ecoul>  (273) 
-8.00313

>  <r_i_glide_erotb>  (273) 
0

>  <r_i_glide_esite>  (273) 
-0.0922117

>  <r_i_glide_emodel>  (273) 
-25.8849

>  <r_i_glide_energy>  (273) 
-18.0338

>  <r_i_glide_einternal>  (273) 
0

>  <r_i_glide_intrahb_reward>  (273) 
-0

>  <i_i_glide_confnum>  (273) 
2

>  <i_i_glide_posenum>  (273) 
24

>  <r_i_glide_eff_state_penalty>  (273) 
0

>  <ligand_id>  (273) 
78

>  <original_smiles>  (273) 
Clc1ncnc2[nH]cnc12

>  <smiles>  (273) 
[H]c1nc(Cl)c2nc([H])[n-]c2n1

$$$$
78:2:2
     RDKit          3D

 12 13  0  0  1  0  0  0  0  0999 V2000
   -2.5644    2.9340    6.1069 Cl  0  0  0  0  0  0  0  0  0  0  0  0
   -1.7073    2.0123    4.9208 C   0  0  0  0  0  0  0  0  0  0  0  0
   -1.2299    2.6490    3.8280 N   0  0  0  0  0  0  0  0  0  0  0  0
   -0.5668    1.9087    2.9336 C   0  0  0  0  0  0  0  0  0  0  0  0
   -0.3068    0.6029    3.0135 N   0  0  0  0  0  0  0  0  0  0  0  0
   -0.7820   -0.0316    4.1012 C   0  0  0  0  0  0  0  0  0  0  0  0
   -0.7239   -1.2947    4.4934 N   0  0  0  0  0  0  0  0  0  0  0  0
   -1.3833   -1.3903    5.6697 C   0  0  0  0  0  0  0  0  0  0  0  0
   -1.9160   -0.2193    6.0798 N   0  0  0  0  0  0  0  0  0  0  0  0
   -1.5029    0.6246    5.0873 C   0  0  0  0  0  0  0  0  0  0  0  0
   -0.1816    2.4245    2.0693 H   0  0  0  0  0  0  0  0  0  0  0  0
   -1.4487   -2.3500    6.1678 H   0  0  0  0  0  0  0  0  0  0  0  0
  1  2  1  0
  2 10  2  0
  2  3  1  0
  3  4  2  0
  4  5  1  0
  4 11  1  0
  5  6  2  0
  6 10  1  0
  6  7  1  0
  7  8  1  0
  8  9  2  0
  8 12  1  0
  9 10  1  0
M  CHG  1   7  -1
M  END
>  <i_m_ct_stereo_status>  (274) 
1

>  <s_m_source_file>  (274) 
/var/tmp/pbs.5076255.sched01/tmptehp0e0j/84lnm28v0z.sdf

>  <i_m_source_file_index>  (274) 
30

>  <i_lp_mmshare_version>  (274) 
48012

>  <i_f3d_flags>  (274) 
0

>  <s_epik_input>  (274) 
bjFbY0hdbmMoQ2wpYyhjMTIpbltjSF1bbkhdMg==

>  <s_epik_cmdline>  (274) 
J2VwaWtfcHl0aG9uJywgJy1waHQnLCAnMi4wJywgJy1waCcsICc3LjAnLCAnLXRuJywgJzgnLCAnLW1hJywgJzIwMCcsICctaW1hZScsICc8aW5maWxlLm1hZT4nLCAnLW9tYWUnLCAnPG91dGZpbGUubWFlPic=

>  <r_lp_tautomer_probability>  (274) 
1

>  <r_epik_Ionization_Penalty>  (274) 
2.13657

>  <r_epik_Ionization_Penalty_Charging>  (274) 
1.44573

>  <r_epik_Ionization_Penalty_Neutral>  (274) 
0.690841

>  <r_epik_State_Penalty>  (274) 
1.54937

>  <r_epik_Charging_Adjusted_Penalty>  (274) 
2.9951

>  <i_epik_Tot_Q>  (274) 
-1

>  <i_epik_Tot_abs_Q>  (274) 
1

>  <s_lp_Force_Field>  (274) 
OPLS3e

>  <r_lp_Energy>  (274) 
15.8028

>  <b_lp_Chiralities_Consistent>  (274) 
1

>  <s_lp_Variant>  (274) 
78:0-3

>  <s_i_glide_gridfile>  (274) 
pfpi4k_grid

>  <i_i_glide_lignum>  (274) 
30

>  <i_i_glide_rotatable_bonds>  (274) 
0

>  <r_i_docking_score>  (274) 
-4.14028

>  <r_i_glide_ligand_efficiency>  (274) 
-0.414028

>  <r_i_glide_ligand_efficiency_sa>  (274) 
-0.891996

>  <r_i_glide_ligand_efficiency_ln>  (274) 
-1.25365

>  <r_i_glide_gscore>  (274) 
-4.14028

>  <r_i_glide_lipo>  (274) 
-0.103551

>  <r_i_glide_hbond>  (274) 
-0.148559

>  <r_i_glide_metal>  (274) 
-0

>  <r_i_glide_rewards>  (274) 
-2.25

>  <r_i_glide_evdw>  (274) 
-12.0604

>  <r_i_glide_ecoul>  (274) 
-5.9716

>  <r_i_glide_erotb>  (274) 
0

>  <r_i_glide_esite>  (274) 
-0.139407

>  <r_i_glide_emodel>  (274) 
-25.7596

>  <r_i_glide_energy>  (274) 
-18.032

>  <r_i_glide_einternal>  (274) 
0

>  <r_i_glide_intrahb_reward>  (274) 
-0

>  <i_i_glide_confnum>  (274) 
2

>  <i_i_glide_posenum>  (274) 
14

>  <r_i_glide_eff_state_penalty>  (274) 
0

>  <ligand_id>  (274) 
78

>  <original_smiles>  (274) 
Clc1ncnc2[nH]cnc12

>  <smiles>  (274) 
[H]c1nc(Cl)c2nc([H])[n-]c2n1

$$$$
79:0:0
     RDKit          3D

 72 76  0  0  1  0  0  0  0  0999 V2000
    0.9429   -0.1854    7.9823 C   0  0  0  0  0  0  0  0  0  0  0  0
    2.1772    0.7396    8.0498 C   0  0  2  0  0  0  0  0  0  0  0  0
    1.8656    2.1387    8.6134 C   0  0  2  0  0  0  0  0  0  0  0  0
    1.1449    3.1105    7.6142 C   0  0  0  0  0  0  0  0  0  0  0  0
    1.9055    3.7985    6.3977 C   0  0  1  0  0  0  0  0  0  0  0  0
    0.7996    4.5652    5.9448 O   0  0  0  0  0  0  0  0  0  0  0  0
    0.9467    5.7961    5.3551 C   0  0  2  0  0  0  0  0  0  0  0  0
    1.0574    6.8840    6.4645 C   0  0  0  0  0  0  0  0  0  0  0  0
    2.2421    7.3996    6.9550 C   0  0  0  0  0  0  0  0  0  0  0  0
    3.6577    6.9738    6.5854 C   0  0  0  0  0  0  0  0  0  0  0  0
    4.5202    7.8285    6.2883 O   0  0  0  0  0  0  0  0  0  0  0  0
    3.9409    5.5131    6.3726 O   0  0  0  0  0  0  0  0  0  0  0  0
    3.1570    4.4656    7.0296 C   0  0  2  0  0  0  0  0  0  0  0  0
    4.1046    3.2434    7.1486 C   0  0  1  0  0  0  0  0  0  0  0  0
    4.4008    2.9596    8.6574 C   0  0  0  0  0  0  0  0  0  0  0  0
    5.3786    1.7681    8.8232 C   0  0  0  0  0  0  0  0  0  0  0  0
    5.2250    4.1709    9.2111 C   0  0  0  0  0  0  0  0  0  0  0  0
    3.0609    2.6989    9.4595 C   0  0  1  0  0  0  0  0  0  0  0  0
    2.5822    3.8196   10.4104 C   0  0  0  0  0  0  0  0  0  0  0  0
    3.2614    4.1929   11.3652 O   0  0  0  0  0  0  0  0  0  0  0  0
    3.5571    2.1037    6.1545 C   0  0  1  0  0  0  0  0  0  0  0  0
    4.6528    1.6993    5.3328 O   0  0  0  0  0  0  0  0  0  0  0  0
    3.0328    0.7295    6.7538 C   0  0  1  0  0  0  0  0  0  0  0  0
    4.0283   -0.2757    6.9148 O   0  0  0  0  0  0  0  0  0  0  0  0
    2.4787    2.8763    5.2667 C   0  0  2  0  0  0  0  0  0  0  0  0
    3.2734    3.6525    4.1427 C   0  0  0  0  0  0  0  0  0  0  0  0
    1.3902    2.0499    4.4486 C   0  0  1  0  0  0  0  0  0  0  0  0
    0.4146    1.4052    5.2380 O   0  0  0  0  0  0  0  0  0  0  0  0
    0.6265    2.7170    3.2331 C   0  0  1  0  0  0  0  0  0  0  0  0
    0.1161    1.6515    2.4395 O   0  0  0  0  0  0  0  0  0  0  0  0
   -0.5411    3.7452    3.4283 C   0  0  1  0  0  0  0  0  0  0  0  0
   -1.4154    3.4630    4.5125 O   0  0  0  0  0  0  0  0  0  0  0  0
   -0.2287    5.2821    3.2990 C   0  0  1  0  0  0  0  0  0  0  0  0
   -1.2809    6.0438    2.4559 C   0  0  0  0  0  0  0  0  0  0  0  0
   -2.5582    5.4126    2.4728 O   0  0  0  0  0  0  0  0  0  0  0  0
   -0.1415    6.0234    4.5326 O   0  0  0  0  0  0  0  0  0  0  0  0
    0.1267    0.2348    7.4005 H   0  0  0  0  0  0  0  0  0  0  0  0
    0.5502   -0.3792    8.9807 H   0  0  0  0  0  0  0  0  0  0  0  0
    1.1951   -1.1548    7.5486 H   0  0  0  0  0  0  0  0  0  0  0  0
    2.7618    0.2501    8.8296 H   0  0  0  0  0  0  0  0  0  0  0  0
    1.0974    1.9412    9.3680 H   0  0  0  0  0  0  0  0  0  0  0  0
    0.2226    2.6318    7.2871 H   0  0  0  0  0  0  0  0  0  0  0  0
    0.7429    3.9207    8.2255 H   0  0  0  0  0  0  0  0  0  0  0  0
    1.8305    5.8613    4.7171 H   0  0  0  0  0  0  0  0  0  0  0  0
    0.0792    7.1953    6.7954 H   0  0  0  0  0  0  0  0  0  0  0  0
    2.4724    6.6624    6.4591 H   0  0  0  0  0  0  0  0  0  0  0  0
    2.8730    4.8872    7.9877 H   0  0  0  0  0  0  0  0  0  0  0  0
    5.0594    3.5726    6.7356 H   0  0  0  0  0  0  0  0  0  0  0  0
    5.9798    1.8524    9.7283 H   0  0  0  0  0  0  0  0  0  0  0  0
    6.0756    1.6960    7.9867 H   0  0  0  0  0  0  0  0  0  0  0  0
    4.8755    0.8155    8.9282 H   0  0  0  0  0  0  0  0  0  0  0  0
    5.4813    4.0443   10.2637 H   0  0  0  0  0  0  0  0  0  0  0  0
    4.7072    5.1277    9.1346 H   0  0  0  0  0  0  0  0  0  0  0  0
    6.1731    4.2921    8.6868 H   0  0  0  0  0  0  0  0  0  0  0  0
    3.3064    1.9118   10.1741 H   0  0  0  0  0  0  0  0  0  0  0  0
    1.6036    4.2487   10.2023 H   0  0  0  0  0  0  0  0  0  0  0  0
    4.6793    2.2318    4.5527 H   0  0  0  0  0  0  0  0  0  0  0  0
    2.4557    0.2478    5.9715 H   0  0  0  0  0  0  0  0  0  0  0  0
    4.6256   -0.0144    7.5965 H   0  0  0  0  0  0  0  0  0  0  0  0
    3.5941    2.9696    3.3579 H   0  0  0  0  0  0  0  0  0  0  0  0
    4.1910    4.1321    4.4687 H   0  0  0  0  0  0  0  0  0  0  0  0
    2.7100    4.4116    3.6092 H   0  0  0  0  0  0  0  0  0  0  0  0
    1.9666    1.2407    4.0006 H   0  0  0  0  0  0  0  0  0  0  0  0
   -0.1640    2.0723    5.5791 H   0  0  0  0  0  0  0  0  0  0  0  0
    1.3357    3.1682    2.5428 H   0  0  0  0  0  0  0  0  0  0  0  0
   -0.1206    1.9882    1.5841 H   0  0  0  0  0  0  0  0  0  0  0  0
   -1.1783    3.5341    2.5710 H   0  0  0  0  0  0  0  0  0  0  0  0
   -1.7342    2.5793    4.4022 H   0  0  0  0  0  0  0  0  0  0  0  0
    0.7173    5.4167    2.7683 H   0  0  0  0  0  0  0  0  0  0  0  0
   -1.3623    7.0656    2.8096 H   0  0  0  0  0  0  0  0  0  0  0  0
   -0.9762    6.1269    1.4193 H   0  0  0  0  0  0  0  0  0  0  0  0
   -2.4454    4.5653    2.0681 H   0  0  0  0  0  0  0  0  0  0  0  0
  1  2  1  0
  1 37  1  0
  1 38  1  0
  1 39  1  0
  2 23  1  0
  2  3  1  0
  2 40  1  1
  3 18  1  0
  3  4  1  0
  3 41  1  1
  4  5  1  0
  4 42  1  0
  4 43  1  0
  5 13  1  0
  5 25  1  0
  5  6  1  6
  6  7  1  0
  7 36  1  0
  7  8  1  0
  7 44  1  6
  8  9  2  3
  8 45  1  0
  9 10  1  0
  9 46  1  0
 10 11  2  0
 10 12  1  0
 12 13  1  0
 13 14  1  0
 13 47  1  1
 14 15  1  0
 14 21  1  0
 14 48  1  6
 15 16  1  0
 15 17  1  0
 15 18  1  0
 16 49  1  0
 16 50  1  0
 16 51  1  0
 17 52  1  0
 17 53  1  0
 17 54  1  0
 18 19  1  0
 18 55  1  1
 19 20  2  0
 19 56  1  0
 21 22  1  6
 21 23  1  0
 21 25  1  0
 22 57  1  0
 23 24  1  0
 23 58  1  6
 24 59  1  0
 25 26  1  6
 25 27  1  0
 26 60  1  0
 26 61  1  0
 26 62  1  0
 27 28  1  0
 27 29  1  0
 27 63  1  6
 28 64  1  0
 29 30  1  0
 29 31  1  0
 29 65  1  6
 30 66  1  0
 31 32  1  0
 31 33  1  0
 31 67  1  6
 32 68  1  0
 33 34  1  0
 33 36  1  0
 33 69  1  6
 34 35  1  0
 34 70  1  0
 34 71  1  0
 35 72  1  0
M  END
>  <i_m_ct_stereo_status>  (275) 
1

>  <s_m_source_file>  (275) 
/var/tmp/pbs.5076255.sched01/tmptehp0e0j/84lnm28v0z.sdf

>  <i_m_source_file_index>  (275) 
31

>  <i_lp_mmshare_version>  (275) 
48012

>  <i_f3d_flags>  (275) 
3

>  <s_epik_input>  (275) 
W0NIM11DMShbQ0gzXSlbQ0BASF0oW0NIXT1PKVtDQEhdKFtDSDJdMilbQ0BASF0oW0NIM10pW0NASF0oW09IXSlbQ0BAXShbT0hdKShbQ0BASF0xW0NASF0zW0NAXTI0NSlbQ0BAXTUoW0NIM10pW0NAQEhdKFtPSF0pW0NAQEhdKFtPSF0pW0NAQEhdKFtPSF0pW0NAQEhdKFtDSDJdW09IXSlPW0NASF0oTzQpL1tDSF09W0NIXVxDKD1PKU8z

>  <s_epik_cmdline>  (275) 
J2VwaWtfcHl0aG9uJywgJy1waHQnLCAnMi4wJywgJy1waCcsICc3LjAnLCAnLXRuJywgJzgnLCAnLW1hJywgJzIwMCcsICctaW1hZScsICc8aW5maWxlLm1hZT4nLCAnLW9tYWUnLCAnPG91dGZpbGUubWFlPic=

>  <r_lp_tautomer_probability>  (275) 
1

>  <r_epik_Ionization_Penalty>  (275) 
6.72156e-07

>  <r_epik_Ionization_Penalty_Charging>  (275) 
0

>  <r_epik_Ionization_Penalty_Neutral>  (275) 
6.72156e-07

>  <r_epik_State_Penalty>  (275) 
-0

>  <r_epik_Charging_Adjusted_Penalty>  (275) 
0

>  <i_epik_Tot_Q>  (275) 
0

>  <i_epik_Tot_abs_Q>  (275) 
0

>  <s_epik_Chemistry_Notes>  (275) 
This compound has an ester and may undergo hydrolysis at high or low pH. This compound contains an acetal/aminal-like group ( X-CH(R)-Y where X, Y are N, S, or O) that may be acid/base labile, releasing an aldehyde.

>  <s_lp_Force_Field>  (275) 
OPLS3e

>  <r_lp_Energy>  (275) 
121.22

>  <b_lp_Chiralities_Consistent>  (275) 
0

>  <s_lp_Variant>  (275) 
79:0-1

>  <s_i_glide_gridfile>  (275) 
pfpi4k_grid

>  <i_i_glide_lignum>  (275) 
31

>  <i_i_glide_rotatable_bonds>  (275) 
8

>  <r_i_docking_score>  (275) 
1.10882

>  <r_i_glide_ligand_efficiency>  (275) 
0.0308007

>  <r_i_glide_ligand_efficiency_sa>  (275) 
0.101702

>  <r_i_glide_ligand_efficiency_ln>  (275) 
0.241915

>  <r_i_glide_gscore>  (275) 
1.10882

>  <r_i_glide_lipo>  (275) 
0

>  <r_i_glide_hbond>  (275) 
-0.00247972

>  <r_i_glide_metal>  (275) 
-0

>  <r_i_glide_rewards>  (275) 
0

>  <r_i_glide_evdw>  (275) 
-9.61245

>  <r_i_glide_ecoul>  (275) 
-10.2868

>  <r_i_glide_erotb>  (275) 
0.0780357

>  <r_i_glide_esite>  (275) 
-0.0148104

>  <r_i_glide_emodel>  (275) 
-3.92126

>  <r_i_glide_energy>  (275) 
-19.8992

>  <r_i_glide_einternal>  (275) 
6.90598

>  <r_i_glide_intrahb_reward>  (275) 
-0

>  <i_i_glide_confnum>  (275) 
6

>  <i_i_glide_posenum>  (275) 
17

>  <r_i_glide_eff_state_penalty>  (275) 
0

>  <ligand_id>  (275) 
79

>  <original_smiles>  (275) 
CC1C2CC34OC5C=CC(=O)OC3C(C(C)(C)C2C=O)C(O)(C1O)C4(C)C(O)C(O)C(O)C(CO)O5

>  <smiles>  (275) 
[H]OC([H])([H])C1([H])OC2([H])OC34C([H])([H])C5([H])C([H])(C([H])=O)C(C([H])([H])[H])(C([H])([H])[H])C([H])(C3([H])OC(=O)C([H])=C2[H])C(O[H])(C([H])(O[H])C5([H])C([H])([H])[H])C4(C([H])([H])[H])C([H])(O[H])C([H])(O[H])C1([H])O[H]

$$$$
79:0:1
     RDKit          3D

 72 76  0  0  1  0  0  0  0  0999 V2000
    0.5719   -1.9188    6.7884 C   0  0  0  0  0  0  0  0  0  0  0  0
    1.7527   -0.9258    6.8721 C   0  0  2  0  0  0  0  0  0  0  0  0
    1.4190    0.3495    7.6622 C   0  0  2  0  0  0  0  0  0  0  0  0
    0.5400    1.4012    6.8987 C   0  0  0  0  0  0  0  0  0  0  0  0
    1.1244    2.3081    5.7307 C   0  0  1  0  0  0  0  0  0  0  0  0
   -0.0655    3.0493    5.5063 O   0  0  0  0  0  0  0  0  0  0  0  0
   -0.0458    4.3617    5.1012 C   0  0  2  0  0  0  0  0  0  0  0  0
    0.1135    5.2895    6.3454 C   0  0  0  0  0  0  0  0  0  0  0  0
    1.3067    5.8281    6.7971 C   0  0  0  0  0  0  0  0  0  0  0  0
    2.6967    5.5433    6.2260 C   0  0  0  0  0  0  0  0  0  0  0  0
    3.4631    6.4906    5.9716 O   0  0  0  0  0  0  0  0  0  0  0  0
    3.0543    4.1502    5.7619 O   0  0  0  0  0  0  0  0  0  0  0  0
    2.3984    2.9698    6.3288 C   0  0  2  0  0  0  0  0  0  0  0  0
    3.4211    1.8156    6.1763 C   0  0  1  0  0  0  0  0  0  0  0  0
    3.8902    1.3440    7.5904 C   0  0  0  0  0  0  0  0  0  0  0  0
    4.9494    0.2167    7.4800 C   0  0  0  0  0  0  0  0  0  0  0  0
    4.6964    2.5194    8.2396 C   0  0  0  0  0  0  0  0  0  0  0  0
    2.6592    0.8721    8.4675 C   0  0  1  0  0  0  0  0  0  0  0  0
    2.2137    1.8106    9.6152 C   0  0  0  0  0  0  0  0  0  0  0  0
    1.1252    1.6765   10.1717 O   0  0  0  0  0  0  0  0  0  0  0  0
    2.8415    0.7951    5.0786 C   0  0  1  0  0  0  0  0  0  0  0  0
    3.8703    0.5969    4.1052 O   0  0  0  0  0  0  0  0  0  0  0  0
    2.4637   -0.6860    5.5133 C   0  0  1  0  0  0  0  0  0  0  0  0
    3.5280   -1.6269    5.4255 O   0  0  0  0  0  0  0  0  0  0  0  0
    1.6300    1.6040    4.4252 C   0  0  2  0  0  0  0  0  0  0  0  0
    2.2532    2.5886    3.3561 C   0  0  0  0  0  0  0  0  0  0  0  0
    0.5083    0.8273    3.6022 C   0  0  1  0  0  0  0  0  0  0  0  0
   -0.3349    0.0030    4.3778 O   0  0  0  0  0  0  0  0  0  0  0  0
   -0.4177    1.6148    2.5813 C   0  0  1  0  0  0  0  0  0  0  0  0
   -0.9326    0.6450    1.6858 O   0  0  0  0  0  0  0  0  0  0  0  0
   -1.6267    2.5177    3.0331 C   0  0  1  0  0  0  0  0  0  0  0  0
   -2.3518    2.0262    4.1388 O   0  0  0  0  0  0  0  0  0  0  0  0
   -1.4130    4.0702    3.1156 C   0  0  1  0  0  0  0  0  0  0  0  0
   -2.5905    4.8696    2.5135 C   0  0  0  0  0  0  0  0  0  0  0  0
   -2.1630    6.1302    2.0221 O   0  0  0  0  0  0  0  0  0  0  0  0
   -1.2379    4.6193    4.4320 O   0  0  0  0  0  0  0  0  0  0  0  0
   -0.3240   -1.4817    6.3575 H   0  0  0  0  0  0  0  0  0  0  0  0
    0.3006   -2.2820    7.7800 H   0  0  0  0  0  0  0  0  0  0  0  0
    0.8332   -2.7951    6.1935 H   0  0  0  0  0  0  0  0  0  0  0  0
    2.4428   -1.4760    7.5117 H   0  0  0  0  0  0  0  0  0  0  0  0
    0.7462   -0.0177    8.4423 H   0  0  0  0  0  0  0  0  0  0  0  0
   -0.3819    0.9092    6.5951 H   0  0  0  0  0  0  0  0  0  0  0  0
    0.1622    2.0841    7.6635 H   0  0  0  0  0  0  0  0  0  0  0  0
    0.7542    4.5807    4.3928 H   0  0  0  0  0  0  0  0  0  0  0  0
   -0.8462    5.4662    6.8058 H   0  0  0  0  0  0  0  0  0  0  0  0
    1.5236    5.1636    6.1450 H   0  0  0  0  0  0  0  0  0  0  0  0
    2.1903    3.2304    7.3673 H   0  0  0  0  0  0  0  0  0  0  0  0
    4.3052    2.2727    5.7275 H   0  0  0  0  0  0  0  0  0  0  0  0
    5.6383    0.2143    8.3245 H   0  0  0  0  0  0  0  0  0  0  0  0
    5.5574    0.3157    6.5790 H   0  0  0  0  0  0  0  0  0  0  0  0
    4.5179   -0.7758    7.4892 H   0  0  0  0  0  0  0  0  0  0  0  0
    5.0617    2.2636    9.2359 H   0  0  0  0  0  0  0  0  0  0  0  0
    4.1236    3.4411    8.3480 H   0  0  0  0  0  0  0  0  0  0  0  0
    5.5752    2.7835    7.6497 H   0  0  0  0  0  0  0  0  0  0  0  0
    3.0283    0.0142    9.0322 H   0  0  0  0  0  0  0  0  0  0  0  0
    2.9081    2.5869    9.9229 H   0  0  0  0  0  0  0  0  0  0  0  0
    4.0242    1.4021    3.6297 H   0  0  0  0  0  0  0  0  0  0  0  0
    1.8358   -1.0931    4.7291 H   0  0  0  0  0  0  0  0  0  0  0  0
    4.2185   -1.3718    6.0176 H   0  0  0  0  0  0  0  0  0  0  0  0
    2.5369    2.0503    2.4514 H   0  0  0  0  0  0  0  0  0  0  0  0
    3.1704    3.0850    3.6583 H   0  0  0  0  0  0  0  0  0  0  0  0
    1.5925    3.3722    2.9995 H   0  0  0  0  0  0  0  0  0  0  0  0
    1.0812    0.1331    2.9850 H   0  0  0  0  0  0  0  0  0  0  0  0
   -0.9095    0.5731    4.8723 H   0  0  0  0  0  0  0  0  0  0  0  0
    0.1917    2.1962    1.8990 H   0  0  0  0  0  0  0  0  0  0  0  0
   -0.9294    0.9405    0.7729 H   0  0  0  0  0  0  0  0  0  0  0  0
   -2.3592    2.3984    2.2343 H   0  0  0  0  0  0  0  0  0  0  0  0
   -2.8962    1.3081    3.8263 H   0  0  0  0  0  0  0  0  0  0  0  0
   -0.5504    4.3291    2.5297 H   0  0  0  0  0  0  0  0  0  0  0  0
   -3.1227    4.3161    1.7430 H   0  0  0  0  0  0  0  0  0  0  0  0
   -3.3402    5.0468    3.2660 H   0  0  0  0  0  0  0  0  0  0  0  0
   -1.3997    5.9943    1.4683 H   0  0  0  0  0  0  0  0  0  0  0  0
  1  2  1  0
  1 37  1  0
  1 38  1  0
  1 39  1  0
  2 23  1  0
  2  3  1  0
  2 40  1  1
  3 18  1  0
  3  4  1  0
  3 41  1  1
  4  5  1  0
  4 42  1  0
  4 43  1  0
  5 13  1  0
  5 25  1  0
  5  6  1  6
  6  7  1  0
  7 36  1  0
  7  8  1  0
  7 44  1  6
  8  9  2  3
  8 45  1  0
  9 10  1  0
  9 46  1  0
 10 11  2  0
 10 12  1  0
 12 13  1  0
 13 14  1  0
 13 47  1  1
 14 15  1  0
 14 21  1  0
 14 48  1  6
 15 16  1  0
 15 17  1  0
 15 18  1  0
 16 49  1  0
 16 50  1  0
 16 51  1  0
 17 52  1  0
 17 53  1  0
 17 54  1  0
 18 19  1  0
 18 55  1  1
 19 20  2  0
 19 56  1  0
 21 22  1  6
 21 23  1  0
 21 25  1  0
 22 57  1  0
 23 24  1  0
 23 58  1  6
 24 59  1  0
 25 26  1  6
 25 27  1  0
 26 60  1  0
 26 61  1  0
 26 62  1  0
 27 28  1  0
 27 29  1  0
 27 63  1  6
 28 64  1  0
 29 30  1  0
 29 31  1  0
 29 65  1  6
 30 66  1  0
 31 32  1  0
 31 33  1  0
 31 67  1  6
 32 68  1  0
 33 34  1  0
 33 36  1  0
 33 69  1  6
 34 35  1  0
 34 70  1  0
 34 71  1  0
 35 72  1  0
M  END
>  <i_m_ct_stereo_status>  (276) 
1

>  <s_m_source_file>  (276) 
/var/tmp/pbs.5076255.sched01/tmptehp0e0j/84lnm28v0z.sdf

>  <i_m_source_file_index>  (276) 
31

>  <i_lp_mmshare_version>  (276) 
48012

>  <i_f3d_flags>  (276) 
3

>  <s_epik_input>  (276) 
W0NIM11DMShbQ0gzXSlbQ0BASF0oW0NIXT1PKVtDQEhdKFtDSDJdMilbQ0BASF0oW0NIM10pW0NASF0oW09IXSlbQ0BAXShbT0hdKShbQ0BASF0xW0NASF0zW0NAXTI0NSlbQ0BAXTUoW0NIM10pW0NAQEhdKFtPSF0pW0NAQEhdKFtPSF0pW0NAQEhdKFtPSF0pW0NAQEhdKFtDSDJdW09IXSlPW0NASF0oTzQpL1tDSF09W0NIXVxDKD1PKU8z

>  <s_epik_cmdline>  (276) 
J2VwaWtfcHl0aG9uJywgJy1waHQnLCAnMi4wJywgJy1waCcsICc3LjAnLCAnLXRuJywgJzgnLCAnLW1hJywgJzIwMCcsICctaW1hZScsICc8aW5maWxlLm1hZT4nLCAnLW9tYWUnLCAnPG91dGZpbGUubWFlPic=

>  <r_lp_tautomer_probability>  (276) 
1

>  <r_epik_Ionization_Penalty>  (276) 
6.72156e-07

>  <r_epik_Ionization_Penalty_Charging>  (276) 
0

>  <r_epik_Ionization_Penalty_Neutral>  (276) 
6.72156e-07

>  <r_epik_State_Penalty>  (276) 
-0

>  <r_epik_Charging_Adjusted_Penalty>  (276) 
0

>  <i_epik_Tot_Q>  (276) 
0

>  <i_epik_Tot_abs_Q>  (276) 
0

>  <s_epik_Chemistry_Notes>  (276) 
This compound has an ester and may undergo hydrolysis at high or low pH. This compound contains an acetal/aminal-like group ( X-CH(R)-Y where X, Y are N, S, or O) that may be acid/base labile, releasing an aldehyde.

>  <s_lp_Force_Field>  (276) 
OPLS3e

>  <r_lp_Energy>  (276) 
121.22

>  <b_lp_Chiralities_Consistent>  (276) 
0

>  <s_lp_Variant>  (276) 
79:0-1

>  <s_i_glide_gridfile>  (276) 
pfpi4k_grid

>  <i_i_glide_lignum>  (276) 
31

>  <i_i_glide_rotatable_bonds>  (276) 
8

>  <r_i_docking_score>  (276) 
3.32241

>  <r_i_glide_ligand_efficiency>  (276) 
0.0922892

>  <r_i_glide_ligand_efficiency_sa>  (276) 
0.304732

>  <r_i_glide_ligand_efficiency_ln>  (276) 
0.72486

>  <r_i_glide_gscore>  (276) 
3.32241

>  <r_i_glide_lipo>  (276) 
0

>  <r_i_glide_hbond>  (276) 
-0.0656583

>  <r_i_glide_metal>  (276) 
-0

>  <r_i_glide_rewards>  (276) 
0

>  <r_i_glide_evdw>  (276) 
-1.65206

>  <r_i_glide_ecoul>  (276) 
-11.9661

>  <r_i_glide_erotb>  (276) 
0.0780357

>  <r_i_glide_esite>  (276) 
-0.0251934

>  <r_i_glide_emodel>  (276) 
9.67602

>  <r_i_glide_energy>  (276) 
-13.6181

>  <r_i_glide_einternal>  (276) 
4.13203

>  <r_i_glide_intrahb_reward>  (276) 
-0

>  <i_i_glide_confnum>  (276) 
6

>  <i_i_glide_posenum>  (276) 
31

>  <r_i_glide_eff_state_penalty>  (276) 
0

>  <ligand_id>  (276) 
79

>  <original_smiles>  (276) 
CC1C2CC34OC5C=CC(=O)OC3C(C(C)(C)C2C=O)C(O)(C1O)C4(C)C(O)C(O)C(O)C(CO)O5

>  <smiles>  (276) 
[H]OC([H])([H])C1([H])OC2([H])OC34C([H])([H])C5([H])C([H])(C([H])=O)C(C([H])([H])[H])(C([H])([H])[H])C([H])(C3([H])OC(=O)C([H])=C2[H])C(O[H])(C([H])(O[H])C5([H])C([H])([H])[H])C4(C([H])([H])[H])C([H])(O[H])C([H])(O[H])C1([H])O[H]

$$$$
80:0:0
     RDKit          3D

 30 33  0  0  1  0  0  0  0  0999 V2000
   -0.7997   -0.0171    4.4785 Br  0  0  0  0  0  0  0  0  0  0  0  0
    0.6462   -0.2165    3.2499 C   0  0  0  0  0  0  0  0  0  0  0  0
    1.1626    0.7490    2.4314 C   0  0  0  0  0  0  0  0  0  0  0  0
    2.2407    0.2203    1.7086 N   0  0  0  0  0  0  0  0  0  0  0  0
    2.3472   -1.0777    2.0539 C   0  0  0  0  0  0  0  0  0  0  0  0
    3.1706   -2.1861    1.7129 C   0  0  0  0  0  0  0  0  0  0  0  0
    4.1703   -2.1298    0.7234 N   0  0  0  0  0  0  0  0  0  0  0  0
    5.3160   -3.0345    0.7767 C   0  0  0  0  0  0  0  0  0  0  0  0
    5.9581   -3.1867   -0.6153 C   0  0  1  0  0  0  0  0  0  0  0  0
    5.0052   -3.7535   -1.6698 C   0  0  0  0  0  0  0  0  0  0  0  0
    4.3510   -2.5117   -2.2668 C   0  0  0  0  0  0  0  0  0  0  0  0
    4.9943   -1.3667   -1.4847 C   0  0  1  0  0  0  0  0  0  0  0  0
    4.2439   -0.9946   -0.1948 C   0  0  0  0  0  0  0  0  0  0  0  0
    6.2511   -1.8954   -1.1159 O   0  0  0  0  0  0  0  0  0  0  0  0
    2.9863   -3.3866    2.3376 N   0  0  0  0  0  0  0  0  0  0  0  0
    2.0075   -3.4746    3.2659 C   0  0  0  0  0  0  0  0  0  0  0  0
    1.1473   -2.5067    3.6640 N   0  0  0  0  0  0  0  0  0  0  0  0
    1.3828   -1.3615    3.0261 N   0  0  0  0  0  0  0  0  0  0  0  0
    0.8667    1.7872    2.3029 H   0  0  0  0  0  0  0  0  0  0  0  0
    6.0485   -2.6853    1.5061 H   0  0  0  0  0  0  0  0  0  0  0  0
    5.0051   -4.0267    1.0900 H   0  0  0  0  0  0  0  0  0  0  0  0
    6.8616   -3.7844   -0.5443 H   0  0  0  0  0  0  0  0  0  0  0  0
    5.5619   -4.2751   -2.4495 H   0  0  0  0  0  0  0  0  0  0  0  0
    4.2792   -4.4433   -1.2347 H   0  0  0  0  0  0  0  0  0  0  0  0
    4.5982   -2.4403   -3.3288 H   0  0  0  0  0  0  0  0  0  0  0  0
    3.2647   -2.5163   -2.1584 H   0  0  0  0  0  0  0  0  0  0  0  0
    5.1272   -0.4933   -2.1120 H   0  0  0  0  0  0  0  0  0  0  0  0
    3.2400   -0.7103   -0.4889 H   0  0  0  0  0  0  0  0  0  0  0  0
    4.7037   -0.1271    0.2802 H   0  0  0  0  0  0  0  0  0  0  0  0
    1.8878   -4.4439    3.7323 H   0  0  0  0  0  0  0  0  0  0  0  0
  1  2  1  0
  2 18  1  0
  2  3  2  0
  3  4  1  0
  3 19  1  0
  4  5  2  0
  5 18  1  0
  5  6  1  0
  6  7  1  0
  6 15  2  0
  7 13  1  0
  7  8  1  0
  8  9  1  0
  8 20  1  0
  8 21  1  0
  9 14  1  0
  9 10  1  0
  9 22  1  1
 10 11  1  0
 10 23  1  0
 10 24  1  0
 11 12  1  0
 11 25  1  0
 11 26  1  0
 12 13  1  0
 12 14  1  0
 12 27  1  6
 13 28  1  0
 13 29  1  0
 15 16  1  0
 16 17  2  0
 16 30  1  0
 17 18  1  0
M  END
>  <i_m_ct_stereo_status>  (277) 
1

>  <s_m_source_file>  (277) 
/var/tmp/pbs.5076255.sched01/tmptehp0e0j/84lnm28v0z.sdf

>  <i_m_source_file_index>  (277) 
32

>  <i_lp_mmshare_version>  (277) 
48012

>  <i_f3d_flags>  (277) 
0

>  <s_epik_input>  (277) 
bjFbY0hdYyhCciluKGMxMiluW2NIXW5jMk4oW0NIMl1bQ0BASF0zNClbQ0gyXVtDSF0oTzQpW0NIMl1bQ0gyXTM=

>  <s_epik_cmdline>  (277) 
J2VwaWtfcHl0aG9uJywgJy1waHQnLCAnMi4wJywgJy1waCcsICc3LjAnLCAnLXRuJywgJzgnLCAnLW1hJywgJzIwMCcsICctaW1hZScsICc8aW5maWxlLm1hZT4nLCAnLW9tYWUnLCAnPG91dGZpbGUubWFlPic=

>  <r_lp_tautomer_probability>  (277) 
1

>  <r_epik_Ionization_Penalty>  (277) 
4.6171e-05

>  <r_epik_Ionization_Penalty_Charging>  (277) 
2.6259e-08

>  <r_epik_Ionization_Penalty_Neutral>  (277) 
4.61448e-05

>  <r_epik_State_Penalty>  (277) 
-0

>  <r_epik_Charging_Adjusted_Penalty>  (277) 
2.6259e-08

>  <i_epik_Tot_Q>  (277) 
0

>  <i_epik_Tot_abs_Q>  (277) 
0

>  <s_lp_Force_Field>  (277) 
OPLS3e

>  <r_lp_Energy>  (277) 
25.5256

>  <b_lp_Chiralities_Consistent>  (277) 
1

>  <s_lp_Variant>  (277) 
80:0-1

>  <s_i_glide_gridfile>  (277) 
pfpi4k_grid

>  <i_i_glide_lignum>  (277) 
32

>  <i_i_glide_rotatable_bonds>  (277) 
1

>  <r_i_docking_score>  (277) 
-3.03768

>  <r_i_glide_ligand_efficiency>  (277) 
-0.16876

>  <r_i_glide_ligand_efficiency_sa>  (277) 
-0.442277

>  <r_i_glide_ligand_efficiency_ln>  (277) 
-0.780821

>  <r_i_glide_gscore>  (277) 
-3.03768

>  <r_i_glide_lipo>  (277) 
-0.142465

>  <r_i_glide_hbond>  (277) 
-0.141881

>  <r_i_glide_metal>  (277) 
-0

>  <r_i_glide_rewards>  (277) 
-1.30159

>  <r_i_glide_evdw>  (277) 
-24.0948

>  <r_i_glide_ecoul>  (277) 
-2.49131

>  <r_i_glide_erotb>  (277) 
0.192598

>  <r_i_glide_esite>  (277) 
-0.0659103

>  <r_i_glide_emodel>  (277) 
-31.761

>  <r_i_glide_energy>  (277) 
-26.5861

>  <r_i_glide_einternal>  (277) 
0.0553341

>  <r_i_glide_intrahb_reward>  (277) 
-0

>  <i_i_glide_confnum>  (277) 
1

>  <i_i_glide_posenum>  (277) 
1

>  <r_i_glide_eff_state_penalty>  (277) 
0

>  <ligand_id>  (277) 
80

>  <original_smiles>  (277) 
Brc1cnc2c(N3CC4CCC(C3)O4)ncnn12

>  <smiles>  (277) 
[H]c1nc(N2C([H])([H])C3([H])OC([H])(C2([H])[H])C([H])([H])C3([H])[H])c2nc([H])c(Br)n2n1

$$$$
80:0:1
     RDKit          3D

 30 33  0  0  1  0  0  0  0  0999 V2000
    4.3667   -0.9966    5.6588 Br  0  0  0  0  0  0  0  0  0  0  0  0
    4.5953   -1.1202    3.7734 C   0  0  0  0  0  0  0  0  0  0  0  0
    5.3650   -0.3143    2.9875 C   0  0  0  0  0  0  0  0  0  0  0  0
    5.2845   -0.7249    1.6534 N   0  0  0  0  0  0  0  0  0  0  0  0
    4.4563   -1.7782    1.6375 C   0  0  0  0  0  0  0  0  0  0  0  0
    3.9320   -2.6775    0.6600 C   0  0  0  0  0  0  0  0  0  0  0  0
    4.2315   -2.5614   -0.7099 N   0  0  0  0  0  0  0  0  0  0  0  0
    4.2244   -3.7476   -1.5682 C   0  0  0  0  0  0  0  0  0  0  0  0
    3.9927   -3.3673   -3.0521 C   0  0  1  0  0  0  0  0  0  0  0  0
    2.6558   -2.6575   -3.3020 C   0  0  0  0  0  0  0  0  0  0  0  0
    3.0156   -1.1855   -3.1181 C   0  0  0  0  0  0  0  0  0  0  0  0
    4.4961   -1.2053   -2.7674 C   0  0  1  0  0  0  0  0  0  0  0  0
    4.7808   -1.3224   -1.2579 C   0  0  0  0  0  0  0  0  0  0  0  0
    4.9529   -2.3849   -3.4084 O   0  0  0  0  0  0  0  0  0  0  0  0
    3.1036   -3.6920    1.0286 N   0  0  0  0  0  0  0  0  0  0  0  0
    2.7879   -3.8020    2.3354 C   0  0  0  0  0  0  0  0  0  0  0  0
    3.1999   -3.0164    3.3617 N   0  0  0  0  0  0  0  0  0  0  0  0
    4.0181   -2.0541    2.9395 N   0  0  0  0  0  0  0  0  0  0  0  0
    5.9725    0.5296    3.2802 H   0  0  0  0  0  0  0  0  0  0  0  0
    5.1545   -4.3131   -1.4598 H   0  0  0  0  0  0  0  0  0  0  0  0
    3.4143   -4.4080   -1.2659 H   0  0  0  0  0  0  0  0  0  0  0  0
    4.0927   -4.2443   -3.6894 H   0  0  0  0  0  0  0  0  0  0  0  0
    2.3125   -2.8413   -4.3204 H   0  0  0  0  0  0  0  0  0  0  0  0
    1.8770   -2.9963   -2.6117 H   0  0  0  0  0  0  0  0  0  0  0  0
    2.8316   -0.6438   -4.0498 H   0  0  0  0  0  0  0  0  0  0  0  0
    2.4256   -0.7132   -2.3290 H   0  0  0  0  0  0  0  0  0  0  0  0
    4.9861   -0.3229   -3.1611 H   0  0  0  0  0  0  0  0  0  0  0  0
    4.3145   -0.4685   -0.7683 H   0  0  0  0  0  0  0  0  0  0  0  0
    5.8545   -1.2605   -1.0764 H   0  0  0  0  0  0  0  0  0  0  0  0
    2.1196   -4.6080    2.6027 H   0  0  0  0  0  0  0  0  0  0  0  0
  1  2  1  0
  2 18  1  0
  2  3  2  0
  3  4  1  0
  3 19  1  0
  4  5  2  0
  5 18  1  0
  5  6  1  0
  6  7  1  0
  6 15  2  0
  7 13  1  0
  7  8  1  0
  8  9  1  0
  8 20  1  0
  8 21  1  0
  9 14  1  0
  9 10  1  0
  9 22  1  6
 10 11  1  0
 10 23  1  0
 10 24  1  0
 11 12  1  0
 11 25  1  0
 11 26  1  0
 12 13  1  0
 12 14  1  0
 12 27  1  6
 13 28  1  0
 13 29  1  0
 15 16  1  0
 16 17  2  0
 16 30  1  0
 17 18  1  0
M  END
>  <i_m_ct_stereo_status>  (278) 
1

>  <s_m_source_file>  (278) 
/var/tmp/pbs.5076255.sched01/tmptehp0e0j/84lnm28v0z.sdf

>  <i_m_source_file_index>  (278) 
32

>  <i_lp_mmshare_version>  (278) 
48012

>  <i_f3d_flags>  (278) 
0

>  <s_epik_input>  (278) 
bjFbY0hdYyhCciluKGMxMiluW2NIXW5jMk4oW0NIMl1bQ0BASF0zNClbQ0gyXVtDSF0oTzQpW0NIMl1bQ0gyXTM=

>  <s_epik_cmdline>  (278) 
J2VwaWtfcHl0aG9uJywgJy1waHQnLCAnMi4wJywgJy1waCcsICc3LjAnLCAnLXRuJywgJzgnLCAnLW1hJywgJzIwMCcsICctaW1hZScsICc8aW5maWxlLm1hZT4nLCAnLW9tYWUnLCAnPG91dGZpbGUubWFlPic=

>  <r_lp_tautomer_probability>  (278) 
1

>  <r_epik_Ionization_Penalty>  (278) 
4.6171e-05

>  <r_epik_Ionization_Penalty_Charging>  (278) 
2.6259e-08

>  <r_epik_Ionization_Penalty_Neutral>  (278) 
4.61448e-05

>  <r_epik_State_Penalty>  (278) 
-0

>  <r_epik_Charging_Adjusted_Penalty>  (278) 
2.6259e-08

>  <i_epik_Tot_Q>  (278) 
0

>  <i_epik_Tot_abs_Q>  (278) 
0

>  <s_lp_Force_Field>  (278) 
OPLS3e

>  <r_lp_Energy>  (278) 
25.5256

>  <b_lp_Chiralities_Consistent>  (278) 
1

>  <s_lp_Variant>  (278) 
80:0-1

>  <s_i_glide_gridfile>  (278) 
pfpi4k_grid

>  <i_i_glide_lignum>  (278) 
32

>  <i_i_glide_rotatable_bonds>  (278) 
1

>  <r_i_docking_score>  (278) 
-2.95578

>  <r_i_glide_ligand_efficiency>  (278) 
-0.16421

>  <r_i_glide_ligand_efficiency_sa>  (278) 
-0.430352

>  <r_i_glide_ligand_efficiency_ln>  (278) 
-0.759768

>  <r_i_glide_gscore>  (278) 
-2.95578

>  <r_i_glide_lipo>  (278) 
-0.343257

>  <r_i_glide_hbond>  (278) 
0

>  <r_i_glide_metal>  (278) 
-0

>  <r_i_glide_rewards>  (278) 
-1.32048

>  <r_i_glide_evdw>  (278) 
-22.4798

>  <r_i_glide_ecoul>  (278) 
-2.29352

>  <r_i_glide_erotb>  (278) 
0.192598

>  <r_i_glide_esite>  (278) 
-0.0166284

>  <r_i_glide_emodel>  (278) 
-29.7308

>  <r_i_glide_energy>  (278) 
-24.7733

>  <r_i_glide_einternal>  (278) 
0.180349

>  <r_i_glide_intrahb_reward>  (278) 
-0

>  <i_i_glide_confnum>  (278) 
1

>  <i_i_glide_posenum>  (278) 
8

>  <r_i_glide_eff_state_penalty>  (278) 
0

>  <ligand_id>  (278) 
80

>  <original_smiles>  (278) 
Brc1cnc2c(N3CC4CCC(C3)O4)ncnn12

>  <smiles>  (278) 
[H]c1nc(N2C([H])([H])C3([H])OC([H])(C2([H])[H])C([H])([H])C3([H])[H])c2nc([H])c(Br)n2n1

$$$$
80:0:2
     RDKit          3D

 30 33  0  0  1  0  0  0  0  0999 V2000
    5.4644   -3.6477   -0.5810 Br  0  0  0  0  0  0  0  0  0  0  0  0
    4.0085   -4.6995    0.0563 C   0  0  0  0  0  0  0  0  0  0  0  0
    2.6794   -4.4348   -0.1067 C   0  0  0  0  0  0  0  0  0  0  0  0
    1.9169   -5.4519    0.4792 N   0  0  0  0  0  0  0  0  0  0  0  0
    2.7897   -6.3248    1.0009 C   0  0  0  0  0  0  0  0  0  0  0  0
    2.7248   -7.5536    1.7232 C   0  0  0  0  0  0  0  0  0  0  0  0
    1.5003   -8.1356    2.1255 N   0  0  0  0  0  0  0  0  0  0  0  0
    1.4549   -9.5486    2.5290 C   0  0  0  0  0  0  0  0  0  0  0  0
    0.2074   -9.8354    3.3949 C   0  0  1  0  0  0  0  0  0  0  0  0
    0.1751   -9.0099    4.6887 C   0  0  0  0  0  0  0  0  0  0  0  0
   -0.5730   -7.7389    4.2829 C   0  0  0  0  0  0  0  0  0  0  0  0
   -0.8882   -7.9732    2.7996 C   0  0  1  0  0  0  0  0  0  0  0  0
    0.2238   -7.4663    1.8613 C   0  0  0  0  0  0  0  0  0  0  0  0
   -0.9434   -9.3832    2.6915 O   0  0  0  0  0  0  0  0  0  0  0  0
    3.8669   -8.1969    2.0890 N   0  0  0  0  0  0  0  0  0  0  0  0
    5.0497   -7.6281    1.7543 C   0  0  0  0  0  0  0  0  0  0  0  0
    5.2502   -6.4675    1.0838 N   0  0  0  0  0  0  0  0  0  0  0  0
    4.0978   -5.8926    0.7434 N   0  0  0  0  0  0  0  0  0  0  0  0
    2.2044   -3.6069   -0.6102 H   0  0  0  0  0  0  0  0  0  0  0  0
    1.4620  -10.2011    1.6532 H   0  0  0  0  0  0  0  0  0  0  0  0
    2.3278   -9.8110    3.1266 H   0  0  0  0  0  0  0  0  0  0  0  0
    0.1349  -10.8997    3.6062 H   0  0  0  0  0  0  0  0  0  0  0  0
   -0.3936   -9.5361    5.4581 H   0  0  0  0  0  0  0  0  0  0  0  0
    1.1774   -8.8094    5.0746 H   0  0  0  0  0  0  0  0  0  0  0  0
   -1.4987   -7.6550    4.8594 H   0  0  0  0  0  0  0  0  0  0  0  0
    0.0242   -6.8369    4.4442 H   0  0  0  0  0  0  0  0  0  0  0  0
   -1.8400   -7.5224    2.5285 H   0  0  0  0  0  0  0  0  0  0  0  0
    0.3215   -6.4049    2.0692 H   0  0  0  0  0  0  0  0  0  0  0  0
   -0.0697   -7.5867    0.8162 H   0  0  0  0  0  0  0  0  0  0  0  0
    5.9387   -8.1519    2.0724 H   0  0  0  0  0  0  0  0  0  0  0  0
  1  2  1  0
  2 18  1  0
  2  3  2  0
  3  4  1  0
  3 19  1  0
  4  5  2  0
  5 18  1  0
  5  6  1  0
  6  7  1  0
  6 15  2  0
  7 13  1  0
  7  8  1  0
  8  9  1  0
  8 20  1  0
  8 21  1  0
  9 14  1  0
  9 10  1  0
  9 22  1  1
 10 11  1  0
 10 23  1  0
 10 24  1  0
 11 12  1  0
 11 25  1  0
 11 26  1  0
 12 13  1  0
 12 14  1  0
 12 27  1  6
 13 28  1  0
 13 29  1  0
 15 16  1  0
 16 17  2  0
 16 30  1  0
 17 18  1  0
M  END
>  <i_m_ct_stereo_status>  (279) 
1

>  <s_m_source_file>  (279) 
/var/tmp/pbs.5076255.sched01/tmptehp0e0j/84lnm28v0z.sdf

>  <i_m_source_file_index>  (279) 
32

>  <i_lp_mmshare_version>  (279) 
48012

>  <i_f3d_flags>  (279) 
0

>  <s_epik_input>  (279) 
bjFbY0hdYyhCciluKGMxMiluW2NIXW5jMk4oW0NIMl1bQ0BASF0zNClbQ0gyXVtDSF0oTzQpW0NIMl1bQ0gyXTM=

>  <s_epik_cmdline>  (279) 
J2VwaWtfcHl0aG9uJywgJy1waHQnLCAnMi4wJywgJy1waCcsICc3LjAnLCAnLXRuJywgJzgnLCAnLW1hJywgJzIwMCcsICctaW1hZScsICc8aW5maWxlLm1hZT4nLCAnLW9tYWUnLCAnPG91dGZpbGUubWFlPic=

>  <r_lp_tautomer_probability>  (279) 
1

>  <r_epik_Ionization_Penalty>  (279) 
4.6171e-05

>  <r_epik_Ionization_Penalty_Charging>  (279) 
2.6259e-08

>  <r_epik_Ionization_Penalty_Neutral>  (279) 
4.61448e-05

>  <r_epik_State_Penalty>  (279) 
-0

>  <r_epik_Charging_Adjusted_Penalty>  (279) 
2.6259e-08

>  <i_epik_Tot_Q>  (279) 
0

>  <i_epik_Tot_abs_Q>  (279) 
0

>  <s_lp_Force_Field>  (279) 
OPLS3e

>  <r_lp_Energy>  (279) 
25.5256

>  <b_lp_Chiralities_Consistent>  (279) 
1

>  <s_lp_Variant>  (279) 
80:0-1

>  <s_i_glide_gridfile>  (279) 
pfpi4k_grid

>  <i_i_glide_lignum>  (279) 
32

>  <i_i_glide_rotatable_bonds>  (279) 
1

>  <r_i_docking_score>  (279) 
-2.93425

>  <r_i_glide_ligand_efficiency>  (279) 
-0.163014

>  <r_i_glide_ligand_efficiency_sa>  (279) 
-0.427217

>  <r_i_glide_ligand_efficiency_ln>  (279) 
-0.754233

>  <r_i_glide_gscore>  (279) 
-2.93425

>  <r_i_glide_lipo>  (279) 
-0.142102

>  <r_i_glide_hbond>  (279) 
-0.0731626

>  <r_i_glide_metal>  (279) 
-0

>  <r_i_glide_rewards>  (279) 
-1.47506

>  <r_i_glide_evdw>  (279) 
-25.2297

>  <r_i_glide_ecoul>  (279) 
-0.936497

>  <r_i_glide_erotb>  (279) 
0.192598

>  <r_i_glide_esite>  (279) 
-0.0345576

>  <r_i_glide_emodel>  (279) 
-31.1143

>  <r_i_glide_energy>  (279) 
-26.1662

>  <r_i_glide_einternal>  (279) 
0.137191

>  <r_i_glide_intrahb_reward>  (279) 
-0

>  <i_i_glide_confnum>  (279) 
6

>  <i_i_glide_posenum>  (279) 
9

>  <r_i_glide_eff_state_penalty>  (279) 
0

>  <ligand_id>  (279) 
80

>  <original_smiles>  (279) 
Brc1cnc2c(N3CC4CCC(C3)O4)ncnn12

>  <smiles>  (279) 
[H]c1nc(N2C([H])([H])C3([H])OC([H])(C2([H])[H])C([H])([H])C3([H])[H])c2nc([H])c(Br)n2n1

$$$$
81:0:0
     RDKit          3D

 51 54  0  0  1  0  0  0  0  0999 V2000
    1.9212   -5.9060    1.5350 C   0  0  0  0  0  0  0  0  0  0  0  0
    3.3883   -5.9539    2.0173 C   0  0  1  0  0  0  0  0  0  0  0  0
    4.3229   -6.2593    0.8211 C   0  0  0  0  0  0  0  0  0  0  0  0
    4.5636   -5.0594   -0.1083 C   0  0  0  0  0  0  0  0  0  0  0  0
    5.1686   -3.8567    0.6449 C   0  0  2  0  0  0  0  0  0  0  0  0
    4.2520   -3.4617    1.8395 C   0  0  1  0  0  0  0  0  0  0  0  0
    3.0555   -2.6132    1.3686 C   0  0  0  0  0  0  0  0  0  0  0  0
    3.5314   -1.3417    0.6554 C   0  0  0  0  0  0  0  0  0  0  0  0
    4.4110   -1.6529   -0.5738 C   0  0  2  0  0  0  0  0  0  0  0  0
    3.5430   -2.0895   -1.7766 C   0  0  0  0  0  0  0  0  0  0  0  0
    4.4011   -2.4031   -2.9941 C   0  0  0  0  0  0  0  0  0  0  0  0
    4.2069   -1.8858   -4.0940 O   0  0  0  0  0  0  0  0  0  0  0  0
    5.5236   -3.3969   -2.7581 C   0  0  0  0  0  0  0  0  0  0  0  0
    6.3728   -3.0081   -1.5276 C   0  0  0  0  0  0  0  0  0  0  0  0
    5.6034   -2.6107   -0.2259 C   0  0  2  0  0  0  0  0  0  0  0  0
    6.6342   -1.8071    0.6113 C   0  0  0  0  0  0  0  0  0  0  0  0
    3.8447   -4.6617    2.7396 C   0  0  2  0  0  0  0  0  0  0  0  0
    4.9551   -5.1014    3.7190 C   0  0  0  0  0  0  0  0  0  0  0  0
    4.8602   -6.6270    3.8536 C   0  0  0  0  0  0  0  0  0  0  0  0
    3.5825   -7.0351    3.1086 C   0  0  1  0  0  0  0  0  0  0  0  0
    2.5206   -7.0375    4.0469 O   0  0  0  0  0  0  0  0  0  0  0  0
    1.5593   -6.9036    1.2844 H   0  0  0  0  0  0  0  0  0  0  0  0
    1.8055   -5.2917    0.6465 H   0  0  0  0  0  0  0  0  0  0  0  0
    1.2604   -5.5058    2.3040 H   0  0  0  0  0  0  0  0  0  0  0  0
    5.2965   -6.5973    1.1767 H   0  0  0  0  0  0  0  0  0  0  0  0
    3.9184   -7.0905    0.2422 H   0  0  0  0  0  0  0  0  0  0  0  0
    5.2511   -5.4094   -0.8739 H   0  0  0  0  0  0  0  0  0  0  0  0
    3.6409   -4.7886   -0.6169 H   0  0  0  0  0  0  0  0  0  0  0  0
    6.0902   -4.2540    1.0720 H   0  0  0  0  0  0  0  0  0  0  0  0
    4.8214   -2.8062    2.4976 H   0  0  0  0  0  0  0  0  0  0  0  0
    2.4063   -3.1756    0.7007 H   0  0  0  0  0  0  0  0  0  0  0  0
    2.4394   -2.3302    2.2222 H   0  0  0  0  0  0  0  0  0  0  0  0
    2.6676   -0.7475    0.3542 H   0  0  0  0  0  0  0  0  0  0  0  0
    4.0821   -0.7191    1.3617 H   0  0  0  0  0  0  0  0  0  0  0  0
    4.8449   -0.6977   -0.8767 H   0  0  0  0  0  0  0  0  0  0  0  0
    2.9508   -2.9699   -1.5377 H   0  0  0  0  0  0  0  0  0  0  0  0
    2.8387   -1.2983   -2.0306 H   0  0  0  0  0  0  0  0  0  0  0  0
    5.0788   -4.3862   -2.6569 H   0  0  0  0  0  0  0  0  0  0  0  0
    6.1625   -3.4478   -3.6399 H   0  0  0  0  0  0  0  0  0  0  0  0
    7.0786   -3.8099   -1.3058 H   0  0  0  0  0  0  0  0  0  0  0  0
    6.9955   -2.1733   -1.8480 H   0  0  0  0  0  0  0  0  0  0  0  0
    6.9932   -0.9273    0.0758 H   0  0  0  0  0  0  0  0  0  0  0  0
    7.5092   -2.4136    0.8553 H   0  0  0  0  0  0  0  0  0  0  0  0
    6.2282   -1.4381    1.5507 H   0  0  0  0  0  0  0  0  0  0  0  0
    3.0161   -4.3366    3.3726 H   0  0  0  0  0  0  0  0  0  0  0  0
    5.9486   -4.8242    3.3647 H   0  0  0  0  0  0  0  0  0  0  0  0
    4.8118   -4.6186    4.6873 H   0  0  0  0  0  0  0  0  0  0  0  0
    5.7262   -7.0833    3.3698 H   0  0  0  0  0  0  0  0  0  0  0  0
    4.8788   -6.9595    4.8923 H   0  0  0  0  0  0  0  0  0  0  0  0
    3.6617   -8.0383    2.6843 H   0  0  0  0  0  0  0  0  0  0  0  0
    2.6759   -7.7321    4.6671 H   0  0  0  0  0  0  0  0  0  0  0  0
  2  1  1  6
  1 22  1  0
  1 23  1  0
  1 24  1  0
  2 17  1  0
  2 20  1  0
  2  3  1  0
  3  4  1  0
  3 25  1  0
  3 26  1  0
  4  5  1  0
  4 27  1  0
  4 28  1  0
  5 15  1  0
  5  6  1  0
  5 29  1  1
  6  7  1  0
  6 17  1  0
  6 30  1  1
  7  8  1  0
  7 31  1  0
  7 32  1  0
  8  9  1  0
  8 33  1  0
  8 34  1  0
  9 15  1  0
  9 10  1  0
  9 35  1  6
 10 11  1  0
 10 36  1  0
 10 37  1  0
 11 12  2  0
 11 13  1  0
 13 14  1  0
 13 38  1  0
 13 39  1  0
 14 15  1  0
 14 40  1  0
 14 41  1  0
 15 16  1  1
 16 42  1  0
 16 43  1  0
 16 44  1  0
 17 18  1  0
 17 45  1  1
 18 19  1  0
 18 46  1  0
 18 47  1  0
 19 20  1  0
 19 48  1  0
 19 49  1  0
 20 21  1  0
 20 50  1  6
 21 51  1  0
M  END
>  <i_m_ct_stereo_status>  (280) 
1

>  <s_m_source_file>  (280) 
/var/tmp/pbs.5076255.sched01/tmptehp0e0j/84lnm28v0z.sdf

>  <i_m_source_file_index>  (280) 
33

>  <i_lp_mmshare_version>  (280) 
48012

>  <i_f3d_flags>  (280) 
0

>  <s_epik_input>  (280) 
W09IXVtDQEBIXTFbQ0gyXVtDSDJdW0NASF0oW0NAXTEyW0NIM10pW0NASF0zW0NAQEhdKFtDSDJdW0NIMl0yKVtDQF00KFtDSDNdKVtDQEhdKFtDSDJdW0NIMl0zKVtDSDJdQyg9TylbQ0gyXVtDSDJdNA==

>  <s_epik_cmdline>  (280) 
J2VwaWtfcHl0aG9uJywgJy1waHQnLCAnMi4wJywgJy1waCcsICc3LjAnLCAnLXRuJywgJzgnLCAnLW1hJywgJzIwMCcsICctaW1hZScsICc8aW5maWxlLm1hZT4nLCAnLW9tYWUnLCAnPG91dGZpbGUubWFlPic=

>  <r_lp_tautomer_probability>  (280) 
1

>  <r_epik_Ionization_Penalty>  (280) 
2.94733e-06

>  <r_epik_Ionization_Penalty_Charging>  (280) 
0

>  <r_epik_Ionization_Penalty_Neutral>  (280) 
2.94733e-06

>  <r_epik_State_Penalty>  (280) 
-0

>  <r_epik_Charging_Adjusted_Penalty>  (280) 
0

>  <i_epik_Tot_Q>  (280) 
0

>  <i_epik_Tot_abs_Q>  (280) 
0

>  <s_lp_Force_Field>  (280) 
OPLS3e

>  <r_lp_Energy>  (280) 
40.9512

>  <b_lp_Chiralities_Consistent>  (280) 
1

>  <s_lp_Variant>  (280) 
81:0-1

>  <s_i_glide_gridfile>  (280) 
pfpi4k_grid

>  <i_i_glide_lignum>  (280) 
33

>  <i_i_glide_rotatable_bonds>  (280) 
1

>  <r_i_docking_score>  (280) 
-4.09747

>  <r_i_glide_ligand_efficiency>  (280) 
-0.195118

>  <r_i_glide_ligand_efficiency_sa>  (280) 
-0.538315

>  <r_i_glide_ligand_efficiency_ln>  (280) 
-1.01309

>  <r_i_glide_gscore>  (280) 
-4.09747

>  <r_i_glide_lipo>  (280) 
-0.495376

>  <r_i_glide_hbond>  (280) 
-0.255472

>  <r_i_glide_metal>  (280) 
-0

>  <r_i_glide_rewards>  (280) 
-1.6031

>  <r_i_glide_evdw>  (280) 
-26.5262

>  <r_i_glide_ecoul>  (280) 
-2.78146

>  <r_i_glide_erotb>  (280) 
0

>  <r_i_glide_esite>  (280) 
0

>  <r_i_glide_emodel>  (280) 
-36.5712

>  <r_i_glide_energy>  (280) 
-29.3076

>  <r_i_glide_einternal>  (280) 
0.330161

>  <r_i_glide_intrahb_reward>  (280) 
-0

>  <i_i_glide_confnum>  (280) 
1

>  <i_i_glide_posenum>  (280) 
20

>  <r_i_glide_eff_state_penalty>  (280) 
0

>  <ligand_id>  (280) 
81

>  <original_smiles>  (280) 
CC12CCC3C(CCC4CC(=O)CCC43C)C1CCC2O

>  <smiles>  (280) 
[H]OC1([H])C([H])([H])C([H])([H])C2([H])C3([H])C([H])([H])C([H])([H])C4([H])C([H])([H])C(=O)C([H])([H])C([H])([H])C4(C([H])([H])[H])C3([H])C([H])([H])C([H])([H])C12C([H])([H])[H]

$$$$
81:0:1
     RDKit          3D

 51 54  0  0  1  0  0  0  0  0999 V2000
    1.9477   -5.8806    1.5654 C   0  0  0  0  0  0  0  0  0  0  0  0
    3.4165   -5.9185    2.0455 C   0  0  1  0  0  0  0  0  0  0  0  0
    4.3515   -6.2286    0.8499 C   0  0  0  0  0  0  0  0  0  0  0  0
    4.5855   -5.0343   -0.0884 C   0  0  0  0  0  0  0  0  0  0  0  0
    5.1856   -3.8234    0.6569 C   0  0  2  0  0  0  0  0  0  0  0  0
    4.2698   -3.4246    1.8508 C   0  0  1  0  0  0  0  0  0  0  0  0
    3.0680   -2.5849    1.3773 C   0  0  0  0  0  0  0  0  0  0  0  0
    3.5366   -1.3160    0.6556 C   0  0  0  0  0  0  0  0  0  0  0  0
    4.4158   -1.6304   -0.5726 C   0  0  2  0  0  0  0  0  0  0  0  0
    3.5483   -2.0782   -1.7713 C   0  0  0  0  0  0  0  0  0  0  0  0
    4.4064   -2.3950   -2.9876 C   0  0  0  0  0  0  0  0  0  0  0  0
    4.2078   -1.8860   -4.0902 O   0  0  0  0  0  0  0  0  0  0  0  0
    5.5341   -3.3822   -2.7472 C   0  0  0  0  0  0  0  0  0  0  0  0
    6.3829   -2.9807   -1.5209 C   0  0  0  0  0  0  0  0  0  0  0  0
    5.6136   -2.5803   -0.2207 C   0  0  2  0  0  0  0  0  0  0  0  0
    6.6411   -1.7671    0.6123 C   0  0  0  0  0  0  0  0  0  0  0  0
    3.8689   -4.6199    2.7591 C   0  0  2  0  0  0  0  0  0  0  0  0
    4.9822   -5.0488    3.7408 C   0  0  0  0  0  0  0  0  0  0  0  0
    4.8952   -6.5744    3.8835 C   0  0  0  0  0  0  0  0  0  0  0  0
    3.6179   -6.9940    3.1432 C   0  0  1  0  0  0  0  0  0  0  0  0
    2.5584   -6.9933    4.0834 O   0  0  0  0  0  0  0  0  0  0  0  0
    1.5930   -6.8823    1.3226 H   0  0  0  0  0  0  0  0  0  0  0  0
    1.8186   -5.2739    0.6727 H   0  0  0  0  0  0  0  0  0  0  0  0
    1.2853   -5.4795    2.3322 H   0  0  0  0  0  0  0  0  0  0  0  0
    5.3268   -6.5602    1.2058 H   0  0  0  0  0  0  0  0  0  0  0  0
    3.9499   -7.0653    0.2775 H   0  0  0  0  0  0  0  0  0  0  0  0
    5.2746   -5.3862   -0.8523 H   0  0  0  0  0  0  0  0  0  0  0  0
    3.6604   -4.7722   -0.5969 H   0  0  0  0  0  0  0  0  0  0  0  0
    6.1097   -4.2138    1.0850 H   0  0  0  0  0  0  0  0  0  0  0  0
    4.8371   -2.7623    2.5040 H   0  0  0  0  0  0  0  0  0  0  0  0
    2.4211   -3.1544    0.7133 H   0  0  0  0  0  0  0  0  0  0  0  0
    2.4519   -2.2991    2.2302 H   0  0  0  0  0  0  0  0  0  0  0  0
    2.6696   -0.7281    0.3518 H   0  0  0  0  0  0  0  0  0  0  0  0
    4.0855   -0.6865    1.3570 H   0  0  0  0  0  0  0  0  0  0  0  0
    4.8451   -0.6753   -0.8823 H   0  0  0  0  0  0  0  0  0  0  0  0
    2.9609   -2.9601   -1.5267 H   0  0  0  0  0  0  0  0  0  0  0  0
    2.8394   -1.2922   -2.0293 H   0  0  0  0  0  0  0  0  0  0  0  0
    5.0941   -4.3730   -2.6407 H   0  0  0  0  0  0  0  0  0  0  0  0
    6.1715   -3.4350   -3.6297 H   0  0  0  0  0  0  0  0  0  0  0  0
    7.0922   -3.7781   -1.2966 H   0  0  0  0  0  0  0  0  0  0  0  0
    7.0010   -2.1441   -1.8469 H   0  0  0  0  0  0  0  0  0  0  0  0
    6.9941   -0.8867    0.0773 H   0  0  0  0  0  0  0  0  0  0  0  0
    7.5196   -2.3683    0.8577 H   0  0  0  0  0  0  0  0  0  0  0  0
    6.2342   -1.3984    1.5519 H   0  0  0  0  0  0  0  0  0  0  0  0
    3.0402   -4.2893    3.3885 H   0  0  0  0  0  0  0  0  0  0  0  0
    5.9741   -4.7701    3.3820 H   0  0  0  0  0  0  0  0  0  0  0  0
    4.8418   -4.5593    4.7067 H   0  0  0  0  0  0  0  0  0  0  0  0
    5.7633   -7.0292    3.4009 H   0  0  0  0  0  0  0  0  0  0  0  0
    4.9150   -6.9048    4.9231 H   0  0  0  0  0  0  0  0  0  0  0  0
    3.7005   -7.9996    2.7254 H   0  0  0  0  0  0  0  0  0  0  0  0
    2.5444   -6.1542    4.5136 H   0  0  0  0  0  0  0  0  0  0  0  0
  2  1  1  6
  1 22  1  0
  1 23  1  0
  1 24  1  0
  2 17  1  0
  2 20  1  0
  2  3  1  0
  3  4  1  0
  3 25  1  0
  3 26  1  0
  4  5  1  0
  4 27  1  0
  4 28  1  0
  5 15  1  0
  5  6  1  0
  5 29  1  1
  6  7  1  0
  6 17  1  0
  6 30  1  1
  7  8  1  0
  7 31  1  0
  7 32  1  0
  8  9  1  0
  8 33  1  0
  8 34  1  0
  9 15  1  0
  9 10  1  0
  9 35  1  6
 10 11  1  0
 10 36  1  0
 10 37  1  0
 11 12  2  0
 11 13  1  0
 13 14  1  0
 13 38  1  0
 13 39  1  0
 14 15  1  0
 14 40  1  0
 14 41  1  0
 15 16  1  1
 16 42  1  0
 16 43  1  0
 16 44  1  0
 17 18  1  0
 17 45  1  1
 18 19  1  0
 18 46  1  0
 18 47  1  0
 19 20  1  0
 19 48  1  0
 19 49  1  0
 20 21  1  0
 20 50  1  6
 21 51  1  0
M  END
>  <i_m_ct_stereo_status>  (281) 
1

>  <s_m_source_file>  (281) 
/var/tmp/pbs.5076255.sched01/tmptehp0e0j/84lnm28v0z.sdf

>  <i_m_source_file_index>  (281) 
33

>  <i_lp_mmshare_version>  (281) 
48012

>  <i_f3d_flags>  (281) 
0

>  <s_epik_input>  (281) 
W09IXVtDQEBIXTFbQ0gyXVtDSDJdW0NASF0oW0NAXTEyW0NIM10pW0NASF0zW0NAQEhdKFtDSDJdW0NIMl0yKVtDQF00KFtDSDNdKVtDQEhdKFtDSDJdW0NIMl0zKVtDSDJdQyg9TylbQ0gyXVtDSDJdNA==

>  <s_epik_cmdline>  (281) 
J2VwaWtfcHl0aG9uJywgJy1waHQnLCAnMi4wJywgJy1waCcsICc3LjAnLCAnLXRuJywgJzgnLCAnLW1hJywgJzIwMCcsICctaW1hZScsICc8aW5maWxlLm1hZT4nLCAnLW9tYWUnLCAnPG91dGZpbGUubWFlPic=

>  <r_lp_tautomer_probability>  (281) 
1

>  <r_epik_Ionization_Penalty>  (281) 
2.94733e-06

>  <r_epik_Ionization_Penalty_Charging>  (281) 
0

>  <r_epik_Ionization_Penalty_Neutral>  (281) 
2.94733e-06

>  <r_epik_State_Penalty>  (281) 
-0

>  <r_epik_Charging_Adjusted_Penalty>  (281) 
0

>  <i_epik_Tot_Q>  (281) 
0

>  <i_epik_Tot_abs_Q>  (281) 
0

>  <s_lp_Force_Field>  (281) 
OPLS3e

>  <r_lp_Energy>  (281) 
40.9512

>  <b_lp_Chiralities_Consistent>  (281) 
1

>  <s_lp_Variant>  (281) 
81:0-1

>  <s_i_glide_gridfile>  (281) 
pfpi4k_grid

>  <i_i_glide_lignum>  (281) 
33

>  <i_i_glide_rotatable_bonds>  (281) 
1

>  <r_i_docking_score>  (281) 
-4.05876

>  <r_i_glide_ligand_efficiency>  (281) 
-0.193274

>  <r_i_glide_ligand_efficiency_sa>  (281) 
-0.533229

>  <r_i_glide_ligand_efficiency_ln>  (281) 
-1.00352

>  <r_i_glide_gscore>  (281) 
-4.05876

>  <r_i_glide_lipo>  (281) 
-0.482422

>  <r_i_glide_hbond>  (281) 
-0.252561

>  <r_i_glide_metal>  (281) 
-0

>  <r_i_glide_rewards>  (281) 
-1.60336

>  <r_i_glide_evdw>  (281) 
-26.5446

>  <r_i_glide_ecoul>  (281) 
-2.62127

>  <r_i_glide_erotb>  (281) 
0

>  <r_i_glide_esite>  (281) 
0

>  <r_i_glide_emodel>  (281) 
-36.5315

>  <r_i_glide_energy>  (281) 
-29.1659

>  <r_i_glide_einternal>  (281) 
0.017621

>  <r_i_glide_intrahb_reward>  (281) 
-0

>  <i_i_glide_confnum>  (281) 
1

>  <i_i_glide_posenum>  (281) 
1

>  <r_i_glide_eff_state_penalty>  (281) 
0

>  <ligand_id>  (281) 
81

>  <original_smiles>  (281) 
CC12CCC3C(CCC4CC(=O)CCC43C)C1CCC2O

>  <smiles>  (281) 
[H]OC1([H])C([H])([H])C([H])([H])C2([H])C3([H])C([H])([H])C([H])([H])C4([H])C([H])([H])C(=O)C([H])([H])C([H])([H])C4(C([H])([H])[H])C3([H])C([H])([H])C([H])([H])C12C([H])([H])[H]

$$$$
81:0:2
     RDKit          3D

 51 54  0  0  1  0  0  0  0  0999 V2000
    1.8227   -2.8684    2.8818 C   0  0  0  0  0  0  0  0  0  0  0  0
    2.8730   -4.0044    2.8432 C   0  0  1  0  0  0  0  0  0  0  0  0
    2.7874   -4.7598    1.4902 C   0  0  0  0  0  0  0  0  0  0  0  0
    3.4047   -4.0006    0.3052 C   0  0  0  0  0  0  0  0  0  0  0  0
    4.8960   -3.6802    0.5519 C   0  0  2  0  0  0  0  0  0  0  0  0
    5.0562   -2.8778    1.8780 C   0  0  1  0  0  0  0  0  0  0  0  0
    4.7264   -1.3846    1.6760 C   0  0  0  0  0  0  0  0  0  0  0  0
    5.6227   -0.7714    0.5974 C   0  0  0  0  0  0  0  0  0  0  0  0
    5.4772   -1.4924   -0.7589 C   0  0  2  0  0  0  0  0  0  0  0  0
    4.1966   -1.0567   -1.4952 C   0  0  0  0  0  0  0  0  0  0  0  0
    4.0668   -1.7479   -2.8442 C   0  0  0  0  0  0  0  0  0  0  0  0
    3.9278   -1.1304   -3.8991 O   0  0  0  0  0  0  0  0  0  0  0  0
    4.1578   -3.2593   -2.8053 C   0  0  0  0  0  0  0  0  0  0  0  0
    5.4101   -3.7143   -2.0269 C   0  0  0  0  0  0  0  0  0  0  0  0
    5.6977   -3.0376   -0.6452 C   0  0  2  0  0  0  0  0  0  0  0  0
    7.2112   -3.2935   -0.3871 C   0  0  0  0  0  0  0  0  0  0  0  0
    4.3198   -3.5129    3.0892 C   0  0  2  0  0  0  0  0  0  0  0  0
    5.0700   -4.7114    3.7089 C   0  0  0  0  0  0  0  0  0  0  0  0
    4.0067   -5.7163    4.1745 C   0  0  0  0  0  0  0  0  0  0  0  0
    2.6570   -5.0097    4.0020 C   0  0  1  0  0  0  0  0  0  0  0  0
    2.3528   -4.3577    5.2218 O   0  0  0  0  0  0  0  0  0  0  0  0
    0.8149   -3.2696    2.9828 H   0  0  0  0  0  0  0  0  0  0  0  0
    1.8295   -2.2581    1.9815 H   0  0  0  0  0  0  0  0  0  0  0  0
    1.9840   -2.1976    3.7256 H   0  0  0  0  0  0  0  0  0  0  0  0
    3.2955   -5.7223    1.5600 H   0  0  0  0  0  0  0  0  0  0  0  0
    1.7487   -5.0015    1.2671 H   0  0  0  0  0  0  0  0  0  0  0  0
    3.3030   -4.6543   -0.5597 H   0  0  0  0  0  0  0  0  0  0  0  0
    2.8286   -3.1027    0.0910 H   0  0  0  0  0  0  0  0  0  0  0  0
    5.3494   -4.6570    0.7197 H   0  0  0  0  0  0  0  0  0  0  0  0
    6.1097   -2.8972    2.1551 H   0  0  0  0  0  0  0  0  0  0  0  0
    3.6857   -1.2418    1.3950 H   0  0  0  0  0  0  0  0  0  0  0  0
    4.8690   -0.8405    2.6099 H   0  0  0  0  0  0  0  0  0  0  0  0
    5.3835    0.2841    0.4818 H   0  0  0  0  0  0  0  0  0  0  0  0
    6.6601   -0.8054    0.9340 H   0  0  0  0  0  0  0  0  0  0  0  0
    6.2735   -1.1161   -1.3929 H   0  0  0  0  0  0  0  0  0  0  0  0
    3.3066   -1.2588   -0.9050 H   0  0  0  0  0  0  0  0  0  0  0  0
    4.2292    0.0162   -1.6682 H   0  0  0  0  0  0  0  0  0  0  0  0
    3.2405   -3.6379   -2.3617 H   0  0  0  0  0  0  0  0  0  0  0  0
    4.1849   -3.6513   -3.8228 H   0  0  0  0  0  0  0  0  0  0  0  0
    5.3554   -4.7933   -1.8940 H   0  0  0  0  0  0  0  0  0  0  0  0
    6.2583   -3.5433   -2.6940 H   0  0  0  0  0  0  0  0  0  0  0  0
    7.8314   -2.8966   -1.1930 H   0  0  0  0  0  0  0  0  0  0  0  0
    7.4266   -4.3608   -0.3197 H   0  0  0  0  0  0  0  0  0  0  0  0
    7.5734   -2.8392    0.5343 H   0  0  0  0  0  0  0  0  0  0  0  0
    4.2749   -2.7628    3.8804 H   0  0  0  0  0  0  0  0  0  0  0  0
    5.7422   -5.1903    2.9947 H   0  0  0  0  0  0  0  0  0  0  0  0
    5.6810   -4.3761    4.5484 H   0  0  0  0  0  0  0  0  0  0  0  0
    4.0439   -6.5982    3.5330 H   0  0  0  0  0  0  0  0  0  0  0  0
    4.1843   -6.0709    5.1908 H   0  0  0  0  0  0  0  0  0  0  0  0
    1.8576   -5.7212    3.7896 H   0  0  0  0  0  0  0  0  0  0  0  0
    2.3297   -5.0082    5.9062 H   0  0  0  0  0  0  0  0  0  0  0  0
  2  1  1  6
  1 22  1  0
  1 23  1  0
  1 24  1  0
  2 17  1  0
  2 20  1  0
  2  3  1  0
  3  4  1  0
  3 25  1  0
  3 26  1  0
  4  5  1  0
  4 27  1  0
  4 28  1  0
  5 15  1  0
  5  6  1  0
  5 29  1  1
  6  7  1  0
  6 17  1  0
  6 30  1  1
  7  8  1  0
  7 31  1  0
  7 32  1  0
  8  9  1  0
  8 33  1  0
  8 34  1  0
  9 15  1  0
  9 10  1  0
  9 35  1  6
 10 11  1  0
 10 36  1  0
 10 37  1  0
 11 12  2  0
 11 13  1  0
 13 14  1  0
 13 38  1  0
 13 39  1  0
 14 15  1  0
 14 40  1  0
 14 41  1  0
 15 16  1  1
 16 42  1  0
 16 43  1  0
 16 44  1  0
 17 18  1  0
 17 45  1  1
 18 19  1  0
 18 46  1  0
 18 47  1  0
 19 20  1  0
 19 48  1  0
 19 49  1  0
 20 21  1  0
 20 50  1  6
 21 51  1  0
M  END
>  <i_m_ct_stereo_status>  (282) 
1

>  <s_m_source_file>  (282) 
/var/tmp/pbs.5076255.sched01/tmptehp0e0j/84lnm28v0z.sdf

>  <i_m_source_file_index>  (282) 
33

>  <i_lp_mmshare_version>  (282) 
48012

>  <i_f3d_flags>  (282) 
0

>  <s_epik_input>  (282) 
W09IXVtDQEBIXTFbQ0gyXVtDSDJdW0NASF0oW0NAXTEyW0NIM10pW0NASF0zW0NAQEhdKFtDSDJdW0NIMl0yKVtDQF00KFtDSDNdKVtDQEhdKFtDSDJdW0NIMl0zKVtDSDJdQyg9TylbQ0gyXVtDSDJdNA==

>  <s_epik_cmdline>  (282) 
J2VwaWtfcHl0aG9uJywgJy1waHQnLCAnMi4wJywgJy1waCcsICc3LjAnLCAnLXRuJywgJzgnLCAnLW1hJywgJzIwMCcsICctaW1hZScsICc8aW5maWxlLm1hZT4nLCAnLW9tYWUnLCAnPG91dGZpbGUubWFlPic=

>  <r_lp_tautomer_probability>  (282) 
1

>  <r_epik_Ionization_Penalty>  (282) 
2.94733e-06

>  <r_epik_Ionization_Penalty_Charging>  (282) 
0

>  <r_epik_Ionization_Penalty_Neutral>  (282) 
2.94733e-06

>  <r_epik_State_Penalty>  (282) 
-0

>  <r_epik_Charging_Adjusted_Penalty>  (282) 
0

>  <i_epik_Tot_Q>  (282) 
0

>  <i_epik_Tot_abs_Q>  (282) 
0

>  <s_lp_Force_Field>  (282) 
OPLS3e

>  <r_lp_Energy>  (282) 
40.9512

>  <b_lp_Chiralities_Consistent>  (282) 
1

>  <s_lp_Variant>  (282) 
81:0-1

>  <s_i_glide_gridfile>  (282) 
pfpi4k_grid

>  <i_i_glide_lignum>  (282) 
33

>  <i_i_glide_rotatable_bonds>  (282) 
1

>  <r_i_docking_score>  (282) 
-3.48037

>  <r_i_glide_ligand_efficiency>  (282) 
-0.165732

>  <r_i_glide_ligand_efficiency_sa>  (282) 
-0.457241

>  <r_i_glide_ligand_efficiency_ln>  (282) 
-0.860513

>  <r_i_glide_gscore>  (282) 
-3.48037

>  <r_i_glide_lipo>  (282) 
-0.530124

>  <r_i_glide_hbond>  (282) 
0

>  <r_i_glide_metal>  (282) 
-0

>  <r_i_glide_rewards>  (282) 
-1.44906

>  <r_i_glide_evdw>  (282) 
-25.6244

>  <r_i_glide_ecoul>  (282) 
-1.46636

>  <r_i_glide_erotb>  (282) 
0

>  <r_i_glide_esite>  (282) 
0

>  <r_i_glide_emodel>  (282) 
-33.2209

>  <r_i_glide_energy>  (282) 
-27.0908

>  <r_i_glide_einternal>  (282) 
0.317699

>  <r_i_glide_intrahb_reward>  (282) 
-0

>  <i_i_glide_confnum>  (282) 
2

>  <i_i_glide_posenum>  (282) 
35

>  <r_i_glide_eff_state_penalty>  (282) 
0

>  <ligand_id>  (282) 
81

>  <original_smiles>  (282) 
CC12CCC3C(CCC4CC(=O)CCC43C)C1CCC2O

>  <smiles>  (282) 
[H]OC1([H])C([H])([H])C([H])([H])C2([H])C3([H])C([H])([H])C([H])([H])C4([H])C([H])([H])C(=O)C([H])([H])C([H])([H])C4(C([H])([H])[H])C3([H])C([H])([H])C([H])([H])C12C([H])([H])[H]

$$$$
82:0:0
     RDKit          3D

 44 48  0  0  1  0  0  0  0  0999 V2000
    6.8018   -0.8411    0.8372 C   0  0  0  0  0  0  0  0  0  0  0  0
    6.1273   -1.9559    0.0400 C   0  0  2  0  0  0  0  0  0  0  0  0
    5.4435   -1.3392   -1.1887 C   0  0  0  0  0  0  0  0  0  0  0  0
    4.9168   -2.4310   -2.0519 C   0  0  1  0  0  0  0  0  0  0  0  0
    3.5237   -2.7665   -1.6019 C   0  0  1  0  0  0  0  0  0  0  0  0
    3.8086   -2.5101   -3.0720 C   0  0  0  0  0  0  0  0  0  0  0  0
    3.3865   -1.2204   -3.7324 C   0  0  0  0  0  0  0  0  0  0  0  0
    3.7112   -3.6316   -4.0704 C   0  0  0  0  0  0  0  0  0  0  0  0
    3.5326   -3.9162   -0.6111 C   0  0  1  0  0  0  0  0  0  0  0  0
    2.2497   -4.5119   -0.6646 O   0  0  0  0  0  0  0  0  0  0  0  0
    4.6127   -5.0524   -0.9009 C   0  0  0  0  0  0  0  0  0  0  0  0
    5.8094   -4.8913   -0.1216 O   0  0  0  0  0  0  0  0  0  0  0  0
    5.6359   -4.3329    1.1731 C   0  0  1  0  0  0  0  0  0  0  0  0
    6.6088   -4.6857    2.1167 O   0  0  0  0  0  0  0  0  0  0  0  0
    5.2710   -2.8583    0.9785 C   0  0  2  0  0  0  0  0  0  0  0  0
    3.8082   -3.3376    0.7964 C   0  0  1  0  0  0  0  0  0  0  0  0
    2.6758   -2.4962    1.4225 C   0  0  0  0  0  0  0  0  0  0  0  0
    4.1861   -4.5978    1.5885 C   0  0  1  0  0  0  0  0  0  0  0  0
    3.4878   -5.7340    2.2257 C   0  0  0  0  0  0  0  0  0  0  0  0
    3.9219   -4.5948    2.9871 O   0  0  0  0  0  0  0  0  0  0  0  0
    6.0810   -0.1224    1.2206 H   0  0  0  0  0  0  0  0  0  0  0  0
    7.5016   -0.3065    0.2040 H   0  0  0  0  0  0  0  0  0  0  0  0
    7.3821   -1.2144    1.6761 H   0  0  0  0  0  0  0  0  0  0  0  0
    6.9507   -2.5689   -0.3249 H   0  0  0  0  0  0  0  0  0  0  0  0
    4.6639   -0.6303   -0.9082 H   0  0  0  0  0  0  0  0  0  0  0  0
    6.1680   -0.8010   -1.7837 H   0  0  0  0  0  0  0  0  0  0  0  0
    5.6755   -3.1781   -2.2516 H   0  0  0  0  0  0  0  0  0  0  0  0
    2.8741   -1.9735   -1.2420 H   0  0  0  0  0  0  0  0  0  0  0  0
    2.3601   -1.2969   -4.0998 H   0  0  0  0  0  0  0  0  0  0  0  0
    4.0432   -0.9913   -4.5761 H   0  0  0  0  0  0  0  0  0  0  0  0
    3.4381   -0.3894   -3.0232 H   0  0  0  0  0  0  0  0  0  0  0  0
    2.6852   -3.7080   -4.4320 H   0  0  0  0  0  0  0  0  0  0  0  0
    4.0067   -4.5961   -3.6528 H   0  0  0  0  0  0  0  0  0  0  0  0
    4.3992   -3.4680   -4.8837 H   0  0  0  0  0  0  0  0  0  0  0  0
    2.2438   -5.0479   -1.4529 H   0  0  0  0  0  0  0  0  0  0  0  0
    4.2092   -6.0237   -0.5919 H   0  0  0  0  0  0  0  0  0  0  0  0
    4.9300   -5.1642   -1.9310 H   0  0  0  0  0  0  0  0  0  0  0  0
    7.4316   -4.4496    1.7053 H   0  0  0  0  0  0  0  0  0  0  0  0
    5.2598   -2.4172    1.9660 H   0  0  0  0  0  0  0  0  0  0  0  0
    2.8609   -2.2557    2.4592 H   0  0  0  0  0  0  0  0  0  0  0  0
    1.7284   -3.0113    1.3875 H   0  0  0  0  0  0  0  0  0  0  0  0
    2.5618   -1.5512    0.8991 H   0  0  0  0  0  0  0  0  0  0  0  0
    2.4142   -5.8335    2.0448 H   0  0  0  0  0  0  0  0  0  0  0  0
    4.0472   -6.6620    2.3805 H   0  0  0  0  0  0  0  0  0  0  0  0
  1  2  1  0
  1 21  1  0
  1 22  1  0
  1 23  1  0
  2 15  1  0
  2  3  1  0
  2 24  1  6
  3  4  1  0
  3 25  1  0
  3 26  1  0
  4  6  1  0
  4  5  1  0
  4 27  1  6
  5  6  1  0
  5  9  1  0
  5 28  1  1
  6  7  1  0
  6  8  1  0
  7 29  1  0
  7 30  1  0
  7 31  1  0
  8 32  1  0
  8 33  1  0
  8 34  1  0
  9 16  1  0
  9 10  1  1
  9 11  1  0
 10 35  1  0
 11 12  1  0
 11 36  1  0
 11 37  1  0
 12 13  1  0
 13 18  1  0
 13 14  1  1
 13 15  1  0
 14 38  1  0
 15 16  1  0
 15 39  1  1
 16 17  1  1
 16 18  1  0
 17 40  1  0
 17 41  1  0
 17 42  1  0
 18 20  1  1
 18 19  1  0
 19 20  1  0
 19 43  1  0
 19 44  1  0
M  END
>  <i_m_ct_stereo_status>  (283) 
1

>  <s_m_source_file>  (283) 
/var/tmp/pbs.5076255.sched01/tmptehp0e0j/84lnm28v0z.sdf

>  <i_m_source_file_index>  (283) 
34

>  <i_lp_mmshare_version>  (283) 
48012

>  <i_f3d_flags>  (283) 
0

>  <s_epik_input>  (283) 
W0NIM11bQ0BASF0xW0NIMl1bQ0BIXShDMihbQ0gzXSlbQ0gzXSlbQ0BASF0yW0NAQF0oW09IXSkoW0NIMl1PMylbQ0BdNChbQ0gzXSlbQ0BIXTFbQ0BAXTMoW09IXSlbQ0BdNDVbQ0gyXU81

>  <s_epik_cmdline>  (283) 
J2VwaWtfcHl0aG9uJywgJy1waHQnLCAnMi4wJywgJy1waCcsICc3LjAnLCAnLXRuJywgJzgnLCAnLW1hJywgJzIwMCcsICctaW1hZScsICc8aW5maWxlLm1hZT4nLCAnLW9tYWUnLCAnPG91dGZpbGUubWFlPic=

>  <r_lp_tautomer_probability>  (283) 
1

>  <r_epik_Ionization_Penalty>  (283) 
2.68601e-07

>  <r_epik_Ionization_Penalty_Charging>  (283) 
0

>  <r_epik_Ionization_Penalty_Neutral>  (283) 
2.68601e-07

>  <r_epik_State_Penalty>  (283) 
-0

>  <r_epik_Charging_Adjusted_Penalty>  (283) 
0

>  <i_epik_Tot_Q>  (283) 
0

>  <i_epik_Tot_abs_Q>  (283) 
0

>  <s_lp_Force_Field>  (283) 
OPLS3e

>  <r_lp_Energy>  (283) 
68.9686

>  <b_lp_Chiralities_Consistent>  (283) 
1

>  <s_lp_Variant>  (283) 
82:0-1

>  <s_i_glide_gridfile>  (283) 
pfpi4k_grid

>  <i_i_glide_lignum>  (283) 
34

>  <i_i_glide_rotatable_bonds>  (283) 
2

>  <r_i_docking_score>  (283) 
-3.70596

>  <r_i_glide_ligand_efficiency>  (283) 
-0.185298

>  <r_i_glide_ligand_efficiency_sa>  (283) 
-0.502976

>  <r_i_glide_ligand_efficiency_ln>  (283) 
-0.92748

>  <r_i_glide_gscore>  (283) 
-3.70596

>  <r_i_glide_lipo>  (283) 
-0.412493

>  <r_i_glide_hbond>  (283) 
-0.32

>  <r_i_glide_metal>  (283) 
-0

>  <r_i_glide_rewards>  (283) 
-1.58191

>  <r_i_glide_evdw>  (283) 
-10.6326

>  <r_i_glide_ecoul>  (283) 
-5.73284

>  <r_i_glide_erotb>  (283) 
0

>  <r_i_glide_esite>  (283) 
0

>  <r_i_glide_emodel>  (283) 
-19.2401

>  <r_i_glide_energy>  (283) 
-16.3654

>  <r_i_glide_einternal>  (283) 
0.241517

>  <r_i_glide_intrahb_reward>  (283) 
-0

>  <i_i_glide_confnum>  (283) 
1

>  <i_i_glide_posenum>  (283) 
1

>  <r_i_glide_eff_state_penalty>  (283) 
0

>  <ligand_id>  (283) 
82

>  <original_smiles>  (283) 
CC1CC2C(C2(C)C)C2(O)COC3(O)C1C2(C)C31CO1

>  <smiles>  (283) 
[H]OC12OC([H])([H])C3(O[H])C4([H])C([H])(C([H])([H])C([H])(C([H])([H])[H])C1([H])C3(C([H])([H])[H])C21OC1([H])[H])C4(C([H])([H])[H])C([H])([H])[H]

$$$$
82:0:1
     RDKit          3D

 44 48  0  0  1  0  0  0  0  0999 V2000
    6.8037   -0.8334    0.8468 C   0  0  0  0  0  0  0  0  0  0  0  0
    6.1259   -1.9572    0.0614 C   0  0  2  0  0  0  0  0  0  0  0  0
    5.4372   -1.3368   -1.1716 C   0  0  0  0  0  0  0  0  0  0  0  0
    4.9115   -2.4321   -2.0382 C   0  0  1  0  0  0  0  0  0  0  0  0
    3.5176   -2.7714   -1.5834 C   0  0  1  0  0  0  0  0  0  0  0  0
    3.8016   -2.5138   -3.0519 C   0  0  0  0  0  0  0  0  0  0  0  0
    3.3695   -1.2187   -3.7082 C   0  0  0  0  0  0  0  0  0  0  0  0
    3.7026   -3.6401   -4.0506 C   0  0  0  0  0  0  0  0  0  0  0  0
    3.5406   -3.9274   -0.5896 C   0  0  1  0  0  0  0  0  0  0  0  0
    2.2595   -4.5282   -0.6371 O   0  0  0  0  0  0  0  0  0  0  0  0
    4.6225   -5.0581   -0.8760 C   0  0  0  0  0  0  0  0  0  0  0  0
    5.8183   -4.9082   -0.0833 O   0  0  0  0  0  0  0  0  0  0  0  0
    5.6418   -4.3369    1.2048 C   0  0  1  0  0  0  0  0  0  0  0  0
    6.6053   -4.6726    2.1792 O   0  0  0  0  0  0  0  0  0  0  0  0
    5.2727   -2.8628    1.0052 C   0  0  2  0  0  0  0  0  0  0  0  0
    3.8125   -3.3467    0.8203 C   0  0  1  0  0  0  0  0  0  0  0  0
    2.6809   -2.5124    1.4467 C   0  0  0  0  0  0  0  0  0  0  0  0
    4.1962   -4.6105    1.6185 C   0  0  1  0  0  0  0  0  0  0  0  0
    3.5071   -5.7514    2.2402 C   0  0  0  0  0  0  0  0  0  0  0  0
    3.9361   -4.6228    3.0133 O   0  0  0  0  0  0  0  0  0  0  0  0
    6.0865   -0.1209    1.2417 H   0  0  0  0  0  0  0  0  0  0  0  0
    7.4920   -0.2928    0.2067 H   0  0  0  0  0  0  0  0  0  0  0  0
    7.3958   -1.2118    1.6729 H   0  0  0  0  0  0  0  0  0  0  0  0
    6.9480   -2.5655   -0.3088 H   0  0  0  0  0  0  0  0  0  0  0  0
    4.6550   -0.6307   -0.8907 H   0  0  0  0  0  0  0  0  0  0  0  0
    6.1583   -0.7928   -1.7683 H   0  0  0  0  0  0  0  0  0  0  0  0
    5.6749   -3.1788   -2.2356 H   0  0  0  0  0  0  0  0  0  0  0  0
    2.8686   -1.9824   -1.2161 H   0  0  0  0  0  0  0  0  0  0  0  0
    2.3444   -1.2992   -4.0684 H   0  0  0  0  0  0  0  0  0  0  0  0
    4.0217   -0.9862   -4.5505 H   0  0  0  0  0  0  0  0  0  0  0  0
    3.4226   -0.3914   -2.9947 H   0  0  0  0  0  0  0  0  0  0  0  0
    2.6748   -3.7187   -4.4095 H   0  0  0  0  0  0  0  0  0  0  0  0
    4.0058   -4.5925   -3.6366 H   0  0  0  0  0  0  0  0  0  0  0  0
    4.3844   -3.4670   -4.8695 H   0  0  0  0  0  0  0  0  0  0  0  0
    2.2372   -5.0523   -1.4313 H   0  0  0  0  0  0  0  0  0  0  0  0
    4.2178   -6.0295   -0.5786 H   0  0  0  0  0  0  0  0  0  0  0  0
    4.9339   -5.1664   -1.9087 H   0  0  0  0  0  0  0  0  0  0  0  0
    6.4682   -5.5816    2.4112 H   0  0  0  0  0  0  0  0  0  0  0  0
    5.2700   -2.4115    1.9902 H   0  0  0  0  0  0  0  0  0  0  0  0
    2.8663   -2.2697    2.4810 H   0  0  0  0  0  0  0  0  0  0  0  0
    1.7352   -3.0264    1.4120 H   0  0  0  0  0  0  0  0  0  0  0  0
    2.5630   -1.5642    0.9237 H   0  0  0  0  0  0  0  0  0  0  0  0
    2.4332   -5.8516    2.0635 H   0  0  0  0  0  0  0  0  0  0  0  0
    4.0660   -6.6784    2.3849 H   0  0  0  0  0  0  0  0  0  0  0  0
  1  2  1  0
  1 21  1  0
  1 22  1  0
  1 23  1  0
  2 15  1  0
  2  3  1  0
  2 24  1  6
  3  4  1  0
  3 25  1  0
  3 26  1  0
  4  6  1  0
  4  5  1  0
  4 27  1  6
  5  6  1  0
  5  9  1  0
  5 28  1  1
  6  7  1  0
  6  8  1  0
  7 29  1  0
  7 30  1  0
  7 31  1  0
  8 32  1  0
  8 33  1  0
  8 34  1  0
  9 16  1  0
  9 10  1  1
  9 11  1  0
 10 35  1  0
 11 12  1  0
 11 36  1  0
 11 37  1  0
 12 13  1  0
 13 18  1  0
 13 14  1  1
 13 15  1  0
 14 38  1  0
 15 16  1  0
 15 39  1  1
 16 17  1  1
 16 18  1  0
 17 40  1  0
 17 41  1  0
 17 42  1  0
 18 20  1  1
 18 19  1  0
 19 20  1  0
 19 43  1  0
 19 44  1  0
M  END
>  <i_m_ct_stereo_status>  (284) 
1

>  <s_m_source_file>  (284) 
/var/tmp/pbs.5076255.sched01/tmptehp0e0j/84lnm28v0z.sdf

>  <i_m_source_file_index>  (284) 
34

>  <i_lp_mmshare_version>  (284) 
48012

>  <i_f3d_flags>  (284) 
0

>  <s_epik_input>  (284) 
W0NIM11bQ0BASF0xW0NIMl1bQ0BIXShDMihbQ0gzXSlbQ0gzXSlbQ0BASF0yW0NAQF0oW09IXSkoW0NIMl1PMylbQ0BdNChbQ0gzXSlbQ0BIXTFbQ0BAXTMoW09IXSlbQ0BdNDVbQ0gyXU81

>  <s_epik_cmdline>  (284) 
J2VwaWtfcHl0aG9uJywgJy1waHQnLCAnMi4wJywgJy1waCcsICc3LjAnLCAnLXRuJywgJzgnLCAnLW1hJywgJzIwMCcsICctaW1hZScsICc8aW5maWxlLm1hZT4nLCAnLW9tYWUnLCAnPG91dGZpbGUubWFlPic=

>  <r_lp_tautomer_probability>  (284) 
1

>  <r_epik_Ionization_Penalty>  (284) 
2.68601e-07

>  <r_epik_Ionization_Penalty_Charging>  (284) 
0

>  <r_epik_Ionization_Penalty_Neutral>  (284) 
2.68601e-07

>  <r_epik_State_Penalty>  (284) 
-0

>  <r_epik_Charging_Adjusted_Penalty>  (284) 
0

>  <i_epik_Tot_Q>  (284) 
0

>  <i_epik_Tot_abs_Q>  (284) 
0

>  <s_lp_Force_Field>  (284) 
OPLS3e

>  <r_lp_Energy>  (284) 
68.9686

>  <b_lp_Chiralities_Consistent>  (284) 
1

>  <s_lp_Variant>  (284) 
82:0-1

>  <s_i_glide_gridfile>  (284) 
pfpi4k_grid

>  <i_i_glide_lignum>  (284) 
34

>  <i_i_glide_rotatable_bonds>  (284) 
2

>  <r_i_docking_score>  (284) 
-3.69747

>  <r_i_glide_ligand_efficiency>  (284) 
-0.184874

>  <r_i_glide_ligand_efficiency_sa>  (284) 
-0.501824

>  <r_i_glide_ligand_efficiency_ln>  (284) 
-0.925355

>  <r_i_glide_gscore>  (284) 
-3.69747

>  <r_i_glide_lipo>  (284) 
-0.418752

>  <r_i_glide_hbond>  (284) 
-0.32

>  <r_i_glide_metal>  (284) 
-0

>  <r_i_glide_rewards>  (284) 
-1.58148

>  <r_i_glide_evdw>  (284) 
-10.3222

>  <r_i_glide_ecoul>  (284) 
-5.7409

>  <r_i_glide_erotb>  (284) 
0

>  <r_i_glide_esite>  (284) 
0

>  <r_i_glide_emodel>  (284) 
-18.354

>  <r_i_glide_energy>  (284) 
-16.0631

>  <r_i_glide_einternal>  (284) 
1.44103

>  <r_i_glide_intrahb_reward>  (284) 
-0

>  <i_i_glide_confnum>  (284) 
1

>  <i_i_glide_posenum>  (284) 
29

>  <r_i_glide_eff_state_penalty>  (284) 
0

>  <ligand_id>  (284) 
82

>  <original_smiles>  (284) 
CC1CC2C(C2(C)C)C2(O)COC3(O)C1C2(C)C31CO1

>  <smiles>  (284) 
[H]OC12OC([H])([H])C3(O[H])C4([H])C([H])(C([H])([H])C([H])(C([H])([H])[H])C1([H])C3(C([H])([H])[H])C21OC1([H])[H])C4(C([H])([H])[H])C([H])([H])[H]

$$$$
82:0:2
     RDKit          3D

 44 48  0  0  1  0  0  0  0  0999 V2000
    2.3018   -4.8212    1.3007 C   0  0  0  0  0  0  0  0  0  0  0  0
    2.7800   -3.5808    0.4986 C   0  0  2  0  0  0  0  0  0  0  0  0
    2.3645   -3.6737   -0.9846 C   0  0  0  0  0  0  0  0  0  0  0  0
    2.8293   -2.4768   -1.7455 C   0  0  1  0  0  0  0  0  0  0  0  0
    4.2287   -2.7104   -2.3252 C   0  0  1  0  0  0  0  0  0  0  0  0
    3.0961   -2.1912   -3.2045 C   0  0  0  0  0  0  0  0  0  0  0  0
    2.4718   -3.1259   -4.2034 C   0  0  0  0  0  0  0  0  0  0  0  0
    3.2408   -0.8025   -3.7957 C   0  0  0  0  0  0  0  0  0  0  0  0
    5.2124   -2.1283   -1.3186 C   0  0  1  0  0  0  0  0  0  0  0  0
    6.5091   -1.9635   -1.8897 O   0  0  0  0  0  0  0  0  0  0  0  0
    4.8420   -0.7770   -0.5910 C   0  0  0  0  0  0  0  0  0  0  0  0
    4.3072   -0.9702    0.7528 O   0  0  0  0  0  0  0  0  0  0  0  0
    4.8280   -2.1357    1.4246 C   0  0  1  0  0  0  0  0  0  0  0  0
    4.7930   -2.0750    2.8312 O   0  0  0  0  0  0  0  0  0  0  0  0
    4.2882   -3.3980    0.7632 C   0  0  2  0  0  0  0  0  0  0  0  0
    5.4224   -3.2178   -0.2591 C   0  0  1  0  0  0  0  0  0  0  0  0
    6.1867   -4.4448   -0.6928 C   0  0  0  0  0  0  0  0  0  0  0  0
    6.1617   -2.4526    0.7848 C   0  0  1  0  0  0  0  0  0  0  0  0
    7.5311   -1.8853    0.8812 C   0  0  0  0  0  0  0  0  0  0  0  0
    7.1710   -3.1641    1.4599 O   0  0  0  0  0  0  0  0  0  0  0  0
    2.7613   -5.7477    0.9395 H   0  0  0  0  0  0  0  0  0  0  0  0
    1.2446   -5.0317    1.2286 H   0  0  0  0  0  0  0  0  0  0  0  0
    2.5267   -4.6818    2.3636 H   0  0  0  0  0  0  0  0  0  0  0  0
    2.2874   -2.6849    0.8885 H   0  0  0  0  0  0  0  0  0  0  0  0
    2.7749   -4.5778   -1.4066 H   0  0  0  0  0  0  0  0  0  0  0  0
    1.2874   -3.7184   -1.1001 H   0  0  0  0  0  0  0  0  0  0  0  0
    2.6075   -1.5693   -1.2324 H   0  0  0  0  0  0  0  0  0  0  0  0
    4.4975   -3.7235   -2.6494 H   0  0  0  0  0  0  0  0  0  0  0  0
    3.0759   -3.1178   -5.1248 H   0  0  0  0  0  0  0  0  0  0  0  0
    1.4430   -2.7981   -4.4149 H   0  0  0  0  0  0  0  0  0  0  0  0
    2.4115   -4.1487   -3.8208 H   0  0  0  0  0  0  0  0  0  0  0  0
    3.7814   -0.8080   -4.7487 H   0  0  0  0  0  0  0  0  0  0  0  0
    3.7218   -0.1055   -3.1304 H   0  0  0  0  0  0  0  0  0  0  0  0
    2.2665   -0.3734   -4.0207 H   0  0  0  0  0  0  0  0  0  0  0  0
    6.6135   -2.6877   -2.4582 H   0  0  0  0  0  0  0  0  0  0  0  0
    5.7953   -0.2610   -0.4532 H   0  0  0  0  0  0  0  0  0  0  0  0
    4.2153   -0.1266   -1.1856 H   0  0  0  0  0  0  0  0  0  0  0  0
    3.9082   -1.8326    3.0497 H   0  0  0  0  0  0  0  0  0  0  0  0
    4.6509   -4.2341    1.3732 H   0  0  0  0  0  0  0  0  0  0  0  0
    6.4964   -5.0861    0.1270 H   0  0  0  0  0  0  0  0  0  0  0  0
    7.1400   -4.1141   -1.1081 H   0  0  0  0  0  0  0  0  0  0  0  0
    5.5624   -5.0722   -1.3467 H   0  0  0  0  0  0  0  0  0  0  0  0
    8.2974   -1.9455    0.1100 H   0  0  0  0  0  0  0  0  0  0  0  0
    7.6463   -1.0950    1.6225 H   0  0  0  0  0  0  0  0  0  0  0  0
  1  2  1  0
  1 21  1  0
  1 22  1  0
  1 23  1  0
  2 15  1  0
  2  3  1  0
  2 24  1  1
  3  4  1  0
  3 25  1  0
  3 26  1  0
  4  6  1  0
  4  5  1  0
  4 27  1  1
  5  6  1  0
  5  9  1  0
  5 28  1  6
  6  7  1  0
  6  8  1  0
  7 29  1  0
  7 30  1  0
  7 31  1  0
  8 32  1  0
  8 33  1  0
  8 34  1  0
  9 16  1  0
  9 10  1  6
  9 11  1  0
 10 35  1  0
 11 12  1  0
 11 36  1  0
 11 37  1  0
 12 13  1  0
 13 18  1  0
 13 14  1  1
 13 15  1  0
 14 38  1  0
 15 16  1  0
 15 39  1  1
 16 17  1  6
 16 18  1  0
 17 40  1  0
 17 41  1  0
 17 42  1  0
 18 20  1  1
 18 19  1  0
 19 20  1  0
 19 43  1  0
 19 44  1  0
M  END
>  <i_m_ct_stereo_status>  (285) 
1

>  <s_m_source_file>  (285) 
/var/tmp/pbs.5076255.sched01/tmptehp0e0j/84lnm28v0z.sdf

>  <i_m_source_file_index>  (285) 
34

>  <i_lp_mmshare_version>  (285) 
48012

>  <i_f3d_flags>  (285) 
0

>  <s_epik_input>  (285) 
W0NIM11bQ0BASF0xW0NIMl1bQ0BIXShDMihbQ0gzXSlbQ0gzXSlbQ0BASF0yW0NAQF0oW09IXSkoW0NIMl1PMylbQ0BdNChbQ0gzXSlbQ0BIXTFbQ0BAXTMoW09IXSlbQ0BdNDVbQ0gyXU81

>  <s_epik_cmdline>  (285) 
J2VwaWtfcHl0aG9uJywgJy1waHQnLCAnMi4wJywgJy1waCcsICc3LjAnLCAnLXRuJywgJzgnLCAnLW1hJywgJzIwMCcsICctaW1hZScsICc8aW5maWxlLm1hZT4nLCAnLW9tYWUnLCAnPG91dGZpbGUubWFlPic=

>  <r_lp_tautomer_probability>  (285) 
1

>  <r_epik_Ionization_Penalty>  (285) 
2.68601e-07

>  <r_epik_Ionization_Penalty_Charging>  (285) 
0

>  <r_epik_Ionization_Penalty_Neutral>  (285) 
2.68601e-07

>  <r_epik_State_Penalty>  (285) 
-0

>  <r_epik_Charging_Adjusted_Penalty>  (285) 
0

>  <i_epik_Tot_Q>  (285) 
0

>  <i_epik_Tot_abs_Q>  (285) 
0

>  <s_lp_Force_Field>  (285) 
OPLS3e

>  <r_lp_Energy>  (285) 
68.9686

>  <b_lp_Chiralities_Consistent>  (285) 
1

>  <s_lp_Variant>  (285) 
82:0-1

>  <s_i_glide_gridfile>  (285) 
pfpi4k_grid

>  <i_i_glide_lignum>  (285) 
34

>  <i_i_glide_rotatable_bonds>  (285) 
2

>  <r_i_docking_score>  (285) 
-2.99175

>  <r_i_glide_ligand_efficiency>  (285) 
-0.149587

>  <r_i_glide_ligand_efficiency_sa>  (285) 
-0.406043

>  <r_i_glide_ligand_efficiency_ln>  (285) 
-0.748736

>  <r_i_glide_gscore>  (285) 
-2.99175

>  <r_i_glide_lipo>  (285) 
-0.497825

>  <r_i_glide_hbond>  (285) 
-0.153787

>  <r_i_glide_metal>  (285) 
-0

>  <r_i_glide_rewards>  (285) 
-1.54636

>  <r_i_glide_evdw>  (285) 
-3.48793

>  <r_i_glide_ecoul>  (285) 
-4.12922

>  <r_i_glide_erotb>  (285) 
0

>  <r_i_glide_esite>  (285) 
0

>  <r_i_glide_emodel>  (285) 
-7.59526

>  <r_i_glide_energy>  (285) 
-7.61716

>  <r_i_glide_einternal>  (285) 
0.0334353

>  <r_i_glide_intrahb_reward>  (285) 
-0

>  <i_i_glide_confnum>  (285) 
1

>  <i_i_glide_posenum>  (285) 
35

>  <r_i_glide_eff_state_penalty>  (285) 
0

>  <ligand_id>  (285) 
82

>  <original_smiles>  (285) 
CC1CC2C(C2(C)C)C2(O)COC3(O)C1C2(C)C31CO1

>  <smiles>  (285) 
[H]OC12OC([H])([H])C3(O[H])C4([H])C([H])(C([H])([H])C([H])(C([H])([H])[H])C1([H])C3(C([H])([H])[H])C21OC1([H])[H])C4(C([H])([H])[H])C([H])([H])[H]

$$$$
83:0:0
     RDKit          3D

 38 40  0  0  1  0  0  0  0  0999 V2000
    3.5483   -4.7928   -0.0194 C   0  0  0  0  0  0  0  0  0  0  0  0
    2.7514   -5.8624    0.6496 C   0  0  0  0  0  0  0  0  0  0  0  0
    1.4124   -5.8584    0.6275 N   0  0  0  0  0  0  0  0  0  0  0  0
    1.0098   -6.9924    1.3113 N   0  0  0  0  0  0  0  0  0  0  0  0
    2.1315   -7.6299    1.6816 C   0  0  0  0  0  0  0  0  0  0  0  0
    2.1075   -8.9380    2.4320 C   0  0  0  0  0  0  0  0  0  0  0  0
    1.7385   -8.8146    3.9261 C   0  0  0  0  0  0  0  0  0  0  0  0
    2.4597   -9.8992    4.7583 C   0  0  0  0  0  0  0  0  0  0  0  0
    2.0702   -9.8332    6.2385 C   0  0  0  0  0  0  0  0  0  0  0  0
    0.5489   -9.9282    6.4044 C   0  0  0  0  0  0  0  0  0  0  0  0
   -0.1747   -8.8447    5.5959 C   0  0  0  0  0  0  0  0  0  0  0  0
    0.2127   -8.9078    4.1153 C   0  0  0  0  0  0  0  0  0  0  0  0
    3.2360   -6.9550    1.2792 N   0  0  0  0  0  0  0  0  0  0  0  0
    4.6062   -7.3099    1.4402 C   0  0  0  0  0  0  0  0  0  0  0  0
    5.0924   -8.6252    1.2083 C   0  0  0  0  0  0  0  0  0  0  0  0
    6.3898   -8.9423    1.3950 N   0  0  0  0  0  0  0  0  0  0  0  0
    7.2102   -7.9643    1.7733 C   0  0  0  0  0  0  0  0  0  0  0  0
    6.8857   -6.6877    1.9699 N   0  0  0  0  0  0  0  0  0  0  0  0
    5.5862   -6.3596    1.8152 C   0  0  0  0  0  0  0  0  0  0  0  0
    2.8843   -4.1537   -0.5972 H   0  0  0  0  0  0  0  0  0  0  0  0
    4.2837   -5.2273   -0.7025 H   0  0  0  0  0  0  0  0  0  0  0  0
    4.0436   -4.1597    0.7181 H   0  0  0  0  0  0  0  0  0  0  0  0
    1.4325   -9.6189    1.9057 H   0  0  0  0  0  0  0  0  0  0  0  0
    3.0816   -9.4287    2.3848 H   0  0  0  0  0  0  0  0  0  0  0  0
    2.0928   -7.8490    4.2992 H   0  0  0  0  0  0  0  0  0  0  0  0
    2.2172  -10.8842    4.3612 H   0  0  0  0  0  0  0  0  0  0  0  0
    3.5400   -9.7897    4.6703 H   0  0  0  0  0  0  0  0  0  0  0  0
    2.5631  -10.6490    6.7698 H   0  0  0  0  0  0  0  0  0  0  0  0
    2.4344   -8.9022    6.6727 H   0  0  0  0  0  0  0  0  0  0  0  0
    0.2137  -10.9111    6.0743 H   0  0  0  0  0  0  0  0  0  0  0  0
    0.2828   -9.8538    7.4547 H   0  0  0  0  0  0  0  0  0  0  0  0
   -1.2508   -8.9843    5.6836 H   0  0  0  0  0  0  0  0  0  0  0  0
    0.0661   -7.8582    5.9935 H   0  0  0  0  0  0  0  0  0  0  0  0
   -0.2892   -8.1074    3.5655 H   0  0  0  0  0  0  0  0  0  0  0  0
   -0.1490   -9.8476    3.6933 H   0  0  0  0  0  0  0  0  0  0  0  0
    4.4646   -9.4337    0.8504 H   0  0  0  0  0  0  0  0  0  0  0  0
    8.2460   -8.2368    1.9302 H   0  0  0  0  0  0  0  0  0  0  0  0
    5.3511   -5.3184    2.0009 H   0  0  0  0  0  0  0  0  0  0  0  0
  1  2  1  0
  1 20  1  0
  1 21  1  0
  1 22  1  0
  2 13  1  0
  2  3  2  0
  3  4  1  0
  4  5  2  0
  5  6  1  0
  5 13  1  0
  6  7  1  0
  6 23  1  0
  6 24  1  0
  7 12  1  0
  7  8  1  0
  7 25  1  0
  8  9  1  0
  8 26  1  0
  8 27  1  0
  9 10  1  0
  9 28  1  0
  9 29  1  0
 10 11  1  0
 10 30  1  0
 10 31  1  0
 11 12  1  0
 11 32  1  0
 11 33  1  0
 12 34  1  0
 12 35  1  0
 13 14  1  0
 14 19  1  0
 14 15  2  0
 15 16  1  0
 15 36  1  0
 16 17  2  0
 17 18  1  0
 17 37  1  0
 18 19  2  0
 19 38  1  0
M  END
>  <i_m_ct_stereo_status>  (286) 
1

>  <s_m_source_file>  (286) 
/var/tmp/pbs.5076255.sched01/tmptehp0e0j/84lnm28v0z.sdf

>  <i_m_source_file_index>  (286) 
35

>  <i_lp_mmshare_version>  (286) 
48012

>  <i_f3d_flags>  (286) 
0

>  <s_epik_input>  (286) 
W2NIXTFuW2NIXW5bY0hdYzEtbjJjKG5uYzJbQ0gzXSlbQ0gyXVtDSF0zW0NIMl1bQ0gyXVtDSDJdW0NIMl1bQ0gyXTM=

>  <s_epik_cmdline>  (286) 
J2VwaWtfcHl0aG9uJywgJy1waHQnLCAnMi4wJywgJy1waCcsICc3LjAnLCAnLXRuJywgJzgnLCAnLW1hJywgJzIwMCcsICctaW1hZScsICc8aW5maWxlLm1hZT4nLCAnLW9tYWUnLCAnPG91dGZpbGUubWFlPic=

>  <r_lp_tautomer_probability>  (286) 
1

>  <r_epik_Ionization_Penalty>  (286) 
4.14115e-05

>  <r_epik_Ionization_Penalty_Charging>  (286) 
0

>  <r_epik_Ionization_Penalty_Neutral>  (286) 
4.14115e-05

>  <r_epik_State_Penalty>  (286) 
-0

>  <r_epik_Charging_Adjusted_Penalty>  (286) 
0

>  <i_epik_Tot_Q>  (286) 
0

>  <i_epik_Tot_abs_Q>  (286) 
0

>  <s_lp_Force_Field>  (286) 
OPLS3e

>  <r_lp_Energy>  (286) 
25.472

>  <b_lp_Chiralities_Consistent>  (286) 
1

>  <s_lp_Variant>  (286) 
83:0-1

>  <s_i_glide_gridfile>  (286) 
pfpi4k_grid

>  <i_i_glide_lignum>  (286) 
35

>  <i_i_glide_rotatable_bonds>  (286) 
3

>  <r_i_docking_score>  (286) 
-3.18233

>  <r_i_glide_ligand_efficiency>  (286) 
-0.167491

>  <r_i_glide_ligand_efficiency_sa>  (286) 
-0.446933

>  <r_i_glide_ligand_efficiency_ln>  (286) 
-0.806789

>  <r_i_glide_gscore>  (286) 
-3.18233

>  <r_i_glide_lipo>  (286) 
-0.157885

>  <r_i_glide_hbond>  (286) 
0

>  <r_i_glide_metal>  (286) 
-0

>  <r_i_glide_rewards>  (286) 
-1.85496

>  <r_i_glide_evdw>  (286) 
-20.8207

>  <r_i_glide_ecoul>  (286) 
-4.77587

>  <r_i_glide_erotb>  (286) 
0.79931

>  <r_i_glide_esite>  (286) 
-0.211382

>  <r_i_glide_emodel>  (286) 
-30.2252

>  <r_i_glide_energy>  (286) 
-25.5966

>  <r_i_glide_einternal>  (286) 
1.158

>  <r_i_glide_intrahb_reward>  (286) 
-0

>  <i_i_glide_confnum>  (286) 
3

>  <i_i_glide_posenum>  (286) 
34

>  <r_i_glide_eff_state_penalty>  (286) 
0

>  <ligand_id>  (286) 
83

>  <original_smiles>  (286) 
Cc1nnc(CC2CCCCC2)n1-c1cncnc1

>  <smiles>  (286) 
[H]c1nc([H])c(-n2c(C([H])([H])[H])nnc2C([H])([H])C2([H])C([H])([H])C([H])([H])C([H])([H])C([H])([H])C2([H])[H])c([H])n1

$$$$
83:0:1
     RDKit          3D

 38 40  0  0  1  0  0  0  0  0999 V2000
    3.5992   -3.7404    1.0873 C   0  0  0  0  0  0  0  0  0  0  0  0
    3.1153   -5.1581    1.1937 C   0  0  0  0  0  0  0  0  0  0  0  0
    1.8161   -5.4641    1.0901 N   0  0  0  0  0  0  0  0  0  0  0  0
    1.7206   -6.8192    1.2691 N   0  0  0  0  0  0  0  0  0  0  0  0
    2.9695   -7.2725    1.4745 C   0  0  0  0  0  0  0  0  0  0  0  0
    3.2527   -8.7457    1.6406 C   0  0  0  0  0  0  0  0  0  0  0  0
    2.6205   -9.3652    2.9137 C   0  0  0  0  0  0  0  0  0  0  0  0
    3.3409  -10.6724    3.3243 C   0  0  0  0  0  0  0  0  0  0  0  0
    2.6774  -11.3480    4.5436 C   0  0  0  0  0  0  0  0  0  0  0  0
    1.1839  -11.6048    4.2925 C   0  0  0  0  0  0  0  0  0  0  0  0
    0.4582  -10.3133    3.9188 C   0  0  0  0  0  0  0  0  0  0  0  0
    1.1121   -9.6423    2.7051 C   0  0  0  0  0  0  0  0  0  0  0  0
    3.8646   -6.2594    1.4281 N   0  0  0  0  0  0  0  0  0  0  0  0
    5.2898   -6.3403    1.5766 C   0  0  0  0  0  0  0  0  0  0  0  0
    6.1734   -5.6125    0.7511 C   0  0  0  0  0  0  0  0  0  0  0  0
    7.5097   -5.7014    0.8831 N   0  0  0  0  0  0  0  0  0  0  0  0
    7.9719   -6.5390    1.8139 C   0  0  0  0  0  0  0  0  0  0  0  0
    7.2362   -7.2859    2.6400 N   0  0  0  0  0  0  0  0  0  0  0  0
    5.9001   -7.1723    2.5440 C   0  0  0  0  0  0  0  0  0  0  0  0
    2.7559   -3.0951    0.8446 H   0  0  0  0  0  0  0  0  0  0  0  0
    4.3401   -3.6087    0.2962 H   0  0  0  0  0  0  0  0  0  0  0  0
    4.0096   -3.4087    2.0411 H   0  0  0  0  0  0  0  0  0  0  0  0
    2.8844   -9.2756    0.7585 H   0  0  0  0  0  0  0  0  0  0  0  0
    4.3263   -8.9362    1.6205 H   0  0  0  0  0  0  0  0  0  0  0  0
    2.7315   -8.6726    3.7503 H   0  0  0  0  0  0  0  0  0  0  0  0
    3.3387  -11.3651    2.4797 H   0  0  0  0  0  0  0  0  0  0  0  0
    4.3875  -10.4670    3.5554 H   0  0  0  0  0  0  0  0  0  0  0  0
    3.1825  -12.2903    4.7610 H   0  0  0  0  0  0  0  0  0  0  0  0
    2.7985  -10.7223    5.4276 H   0  0  0  0  0  0  0  0  0  0  0  0
    1.0661  -12.3146    3.4764 H   0  0  0  0  0  0  0  0  0  0  0  0
    0.7277  -12.0460    5.1736 H   0  0  0  0  0  0  0  0  0  0  0  0
   -0.5819  -10.5246    3.6793 H   0  0  0  0  0  0  0  0  0  0  0  0
    0.4611   -9.6267    4.7655 H   0  0  0  0  0  0  0  0  0  0  0  0
    0.5552   -8.7273    2.5070 H   0  0  0  0  0  0  0  0  0  0  0  0
    0.9857  -10.2650    1.8199 H   0  0  0  0  0  0  0  0  0  0  0  0
    5.8345   -4.9750   -0.0638 H   0  0  0  0  0  0  0  0  0  0  0  0
    9.0431   -6.6051    1.9106 H   0  0  0  0  0  0  0  0  0  0  0  0
    5.3304   -7.7851    3.2320 H   0  0  0  0  0  0  0  0  0  0  0  0
  1  2  1  0
  1 20  1  0
  1 21  1  0
  1 22  1  0
  2 13  1  0
  2  3  2  0
  3  4  1  0
  4  5  2  0
  5  6  1  0
  5 13  1  0
  6  7  1  0
  6 23  1  0
  6 24  1  0
  7 12  1  0
  7  8  1  0
  7 25  1  0
  8  9  1  0
  8 26  1  0
  8 27  1  0
  9 10  1  0
  9 28  1  0
  9 29  1  0
 10 11  1  0
 10 30  1  0
 10 31  1  0
 11 12  1  0
 11 32  1  0
 11 33  1  0
 12 34  1  0
 12 35  1  0
 13 14  1  0
 14 19  1  0
 14 15  2  0
 15 16  1  0
 15 36  1  0
 16 17  2  0
 17 18  1  0
 17 37  1  0
 18 19  2  0
 19 38  1  0
M  END
>  <i_m_ct_stereo_status>  (287) 
1

>  <s_m_source_file>  (287) 
/var/tmp/pbs.5076255.sched01/tmptehp0e0j/84lnm28v0z.sdf

>  <i_m_source_file_index>  (287) 
35

>  <i_lp_mmshare_version>  (287) 
48012

>  <i_f3d_flags>  (287) 
0

>  <s_epik_input>  (287) 
W2NIXTFuW2NIXW5bY0hdYzEtbjJjKG5uYzJbQ0gzXSlbQ0gyXVtDSF0zW0NIMl1bQ0gyXVtDSDJdW0NIMl1bQ0gyXTM=

>  <s_epik_cmdline>  (287) 
J2VwaWtfcHl0aG9uJywgJy1waHQnLCAnMi4wJywgJy1waCcsICc3LjAnLCAnLXRuJywgJzgnLCAnLW1hJywgJzIwMCcsICctaW1hZScsICc8aW5maWxlLm1hZT4nLCAnLW9tYWUnLCAnPG91dGZpbGUubWFlPic=

>  <r_lp_tautomer_probability>  (287) 
1

>  <r_epik_Ionization_Penalty>  (287) 
4.14115e-05

>  <r_epik_Ionization_Penalty_Charging>  (287) 
0

>  <r_epik_Ionization_Penalty_Neutral>  (287) 
4.14115e-05

>  <r_epik_State_Penalty>  (287) 
-0

>  <r_epik_Charging_Adjusted_Penalty>  (287) 
0

>  <i_epik_Tot_Q>  (287) 
0

>  <i_epik_Tot_abs_Q>  (287) 
0

>  <s_lp_Force_Field>  (287) 
OPLS3e

>  <r_lp_Energy>  (287) 
25.472

>  <b_lp_Chiralities_Consistent>  (287) 
1

>  <s_lp_Variant>  (287) 
83:0-1

>  <s_i_glide_gridfile>  (287) 
pfpi4k_grid

>  <i_i_glide_lignum>  (287) 
35

>  <i_i_glide_rotatable_bonds>  (287) 
3

>  <r_i_docking_score>  (287) 
-2.95658

>  <r_i_glide_ligand_efficiency>  (287) 
-0.15561

>  <r_i_glide_ligand_efficiency_sa>  (287) 
-0.415229

>  <r_i_glide_ligand_efficiency_ln>  (287) 
-0.749558

>  <r_i_glide_gscore>  (287) 
-2.95658

>  <r_i_glide_lipo>  (287) 
-0.35278

>  <r_i_glide_hbond>  (287) 
0

>  <r_i_glide_metal>  (287) 
-0

>  <r_i_glide_rewards>  (287) 
-1.79465

>  <r_i_glide_evdw>  (287) 
-19.4037

>  <r_i_glide_ecoul>  (287) 
-3.23834

>  <r_i_glide_erotb>  (287) 
0.79931

>  <r_i_glide_esite>  (287) 
-0.152528

>  <r_i_glide_emodel>  (287) 
-26.2404

>  <r_i_glide_energy>  (287) 
-22.6421

>  <r_i_glide_einternal>  (287) 
1.96548

>  <r_i_glide_intrahb_reward>  (287) 
-0

>  <i_i_glide_confnum>  (287) 
5

>  <i_i_glide_posenum>  (287) 
26

>  <r_i_glide_eff_state_penalty>  (287) 
0

>  <ligand_id>  (287) 
83

>  <original_smiles>  (287) 
Cc1nnc(CC2CCCCC2)n1-c1cncnc1

>  <smiles>  (287) 
[H]c1nc([H])c(-n2c(C([H])([H])[H])nnc2C([H])([H])C2([H])C([H])([H])C([H])([H])C([H])([H])C([H])([H])C2([H])[H])c([H])n1

$$$$
83:0:2
     RDKit          3D

 38 40  0  0  1  0  0  0  0  0999 V2000
    3.3861   -4.5256   -0.1044 C   0  0  0  0  0  0  0  0  0  0  0  0
    2.6707   -5.6725    0.5314 C   0  0  0  0  0  0  0  0  0  0  0  0
    1.3530   -5.8622    0.3564 N   0  0  0  0  0  0  0  0  0  0  0  0
    1.0025   -6.9627    1.1036 N   0  0  0  0  0  0  0  0  0  0  0  0
    2.1332   -7.4070    1.6742 C   0  0  0  0  0  0  0  0  0  0  0  0
    2.1613   -8.6521    2.5265 C   0  0  0  0  0  0  0  0  0  0  0  0
    1.5663   -8.4468    3.9455 C   0  0  0  0  0  0  0  0  0  0  0  0
    2.2025   -9.4107    4.9763 C   0  0  0  0  0  0  0  0  0  0  0  0
    1.5823   -9.2598    6.3767 C   0  0  0  0  0  0  0  0  0  0  0  0
    0.0609   -9.4449    6.3343 C   0  0  0  0  0  0  0  0  0  0  0  0
   -0.5817   -8.4727    5.3331 C   0  0  0  0  0  0  0  0  0  0  0  0
    0.0312   -8.6224    3.9350 C   0  0  0  0  0  0  0  0  0  0  0  0
    3.1885   -6.6228    1.3466 N   0  0  0  0  0  0  0  0  0  0  0  0
    4.5531   -6.7606    1.7710 C   0  0  0  0  0  0  0  0  0  0  0  0
    4.9065   -7.1824    3.0779 C   0  0  0  0  0  0  0  0  0  0  0  0
    6.1913   -7.3453    3.4565 N   0  0  0  0  0  0  0  0  0  0  0  0
    7.1302   -7.0506    2.5616 C   0  0  0  0  0  0  0  0  0  0  0  0
    6.9235   -6.6286    1.3158 N   0  0  0  0  0  0  0  0  0  0  0  0
    5.6417   -6.5014    0.9018 C   0  0  0  0  0  0  0  0  0  0  0  0
    2.6897   -3.9786   -0.7492 H   0  0  0  0  0  0  0  0  0  0  0  0
    4.2108   -4.8403   -0.7294 H   0  0  0  0  0  0  0  0  0  0  0  0
    3.7372   -3.8299    0.6647 H   0  0  0  0  0  0  0  0  0  0  0  0
    1.6201   -9.4495    2.0107 H   0  0  0  0  0  0  0  0  0  0  0  0
    3.1787   -9.0412    2.5755 H   0  0  0  0  0  0  0  0  0  0  0  0
    1.7940   -7.4338    4.2882 H   0  0  0  0  0  0  0  0  0  0  0  0
    2.0739  -10.4377    4.6355 H   0  0  0  0  0  0  0  0  0  0  0  0
    3.2767   -9.2385    5.0446 H   0  0  0  0  0  0  0  0  0  0  0  0
    2.0254   -9.9960    7.0472 H   0  0  0  0  0  0  0  0  0  0  0  0
    1.8273   -8.2797    6.7859 H   0  0  0  0  0  0  0  0  0  0  0  0
   -0.1691  -10.4736    6.0546 H   0  0  0  0  0  0  0  0  0  0  0  0
   -0.3615   -9.2996    7.3260 H   0  0  0  0  0  0  0  0  0  0  0  0
   -1.6541   -8.6574    5.2761 H   0  0  0  0  0  0  0  0  0  0  0  0
   -0.4531   -7.4467    5.6783 H   0  0  0  0  0  0  0  0  0  0  0  0
   -0.4310   -7.8975    3.2638 H   0  0  0  0  0  0  0  0  0  0  0  0
   -0.2207   -9.6079    3.5431 H   0  0  0  0  0  0  0  0  0  0  0  0
    4.1756   -7.4235    3.8359 H   0  0  0  0  0  0  0  0  0  0  0  0
    8.1636   -7.1609    2.8674 H   0  0  0  0  0  0  0  0  0  0  0  0
    5.5201   -6.2333   -0.1337 H   0  0  0  0  0  0  0  0  0  0  0  0
  1  2  1  0
  1 20  1  0
  1 21  1  0
  1 22  1  0
  2 13  1  0
  2  3  2  0
  3  4  1  0
  4  5  2  0
  5  6  1  0
  5 13  1  0
  6  7  1  0
  6 23  1  0
  6 24  1  0
  7 12  1  0
  7  8  1  0
  7 25  1  0
  8  9  1  0
  8 26  1  0
  8 27  1  0
  9 10  1  0
  9 28  1  0
  9 29  1  0
 10 11  1  0
 10 30  1  0
 10 31  1  0
 11 12  1  0
 11 32  1  0
 11 33  1  0
 12 34  1  0
 12 35  1  0
 13 14  1  0
 14 19  1  0
 14 15  2  0
 15 16  1  0
 15 36  1  0
 16 17  2  0
 17 18  1  0
 17 37  1  0
 18 19  2  0
 19 38  1  0
M  END
>  <i_m_ct_stereo_status>  (288) 
1

>  <s_m_source_file>  (288) 
/var/tmp/pbs.5076255.sched01/tmptehp0e0j/84lnm28v0z.sdf

>  <i_m_source_file_index>  (288) 
35

>  <i_lp_mmshare_version>  (288) 
48012

>  <i_f3d_flags>  (288) 
0

>  <s_epik_input>  (288) 
W2NIXTFuW2NIXW5bY0hdYzEtbjJjKG5uYzJbQ0gzXSlbQ0gyXVtDSF0zW0NIMl1bQ0gyXVtDSDJdW0NIMl1bQ0gyXTM=

>  <s_epik_cmdline>  (288) 
J2VwaWtfcHl0aG9uJywgJy1waHQnLCAnMi4wJywgJy1waCcsICc3LjAnLCAnLXRuJywgJzgnLCAnLW1hJywgJzIwMCcsICctaW1hZScsICc8aW5maWxlLm1hZT4nLCAnLW9tYWUnLCAnPG91dGZpbGUubWFlPic=

>  <r_lp_tautomer_probability>  (288) 
1

>  <r_epik_Ionization_Penalty>  (288) 
4.14115e-05

>  <r_epik_Ionization_Penalty_Charging>  (288) 
0

>  <r_epik_Ionization_Penalty_Neutral>  (288) 
4.14115e-05

>  <r_epik_State_Penalty>  (288) 
-0

>  <r_epik_Charging_Adjusted_Penalty>  (288) 
0

>  <i_epik_Tot_Q>  (288) 
0

>  <i_epik_Tot_abs_Q>  (288) 
0

>  <s_lp_Force_Field>  (288) 
OPLS3e

>  <r_lp_Energy>  (288) 
25.472

>  <b_lp_Chiralities_Consistent>  (288) 
1

>  <s_lp_Variant>  (288) 
83:0-1

>  <s_i_glide_gridfile>  (288) 
pfpi4k_grid

>  <i_i_glide_lignum>  (288) 
35

>  <i_i_glide_rotatable_bonds>  (288) 
3

>  <r_i_docking_score>  (288) 
-2.90241

>  <r_i_glide_ligand_efficiency>  (288) 
-0.152758

>  <r_i_glide_ligand_efficiency_sa>  (288) 
-0.40762

>  <r_i_glide_ligand_efficiency_ln>  (288) 
-0.735822

>  <r_i_glide_gscore>  (288) 
-2.90241

>  <r_i_glide_lipo>  (288) 
-0.129727

>  <r_i_glide_hbond>  (288) 
0

>  <r_i_glide_metal>  (288) 
-0

>  <r_i_glide_rewards>  (288) 
-1.75375

>  <r_i_glide_evdw>  (288) 
-17.6092

>  <r_i_glide_ecoul>  (288) 
-4.77604

>  <r_i_glide_erotb>  (288) 
0.79931

>  <r_i_glide_esite>  (288) 
-0.221378

>  <r_i_glide_emodel>  (288) 
-26.0092

>  <r_i_glide_energy>  (288) 
-22.3852

>  <r_i_glide_einternal>  (288) 
1.35844

>  <r_i_glide_intrahb_reward>  (288) 
-0

>  <i_i_glide_confnum>  (288) 
5

>  <i_i_glide_posenum>  (288) 
29

>  <r_i_glide_eff_state_penalty>  (288) 
0

>  <ligand_id>  (288) 
83

>  <original_smiles>  (288) 
Cc1nnc(CC2CCCCC2)n1-c1cncnc1

>  <smiles>  (288) 
[H]c1nc([H])c(-n2c(C([H])([H])[H])nnc2C([H])([H])C2([H])C([H])([H])C([H])([H])C([H])([H])C([H])([H])C2([H])[H])c([H])n1

$$$$
84:0:0
     RDKit          3D

 23 25  0  0  1  0  0  0  0  0999 V2000
   -0.3511   -8.5949    2.3416 C   0  0  0  0  0  0  0  0  0  0  0  0
    0.6087   -7.6218    1.7317 C   0  0  0  0  0  0  0  0  0  0  0  0
    0.2118   -6.6515    0.9148 N   0  0  0  0  0  0  0  0  0  0  0  0
    1.4095   -5.9836    0.5933 O   0  0  0  0  0  0  0  0  0  0  0  0
    2.3887   -6.6262    1.2807 C   0  0  0  0  0  0  0  0  0  0  0  0
    3.7736   -6.1820    1.1319 C   0  0  0  0  0  0  0  0  0  0  0  0
    4.7637   -6.9229    1.6529 N   0  0  0  0  0  0  0  0  0  0  0  0
    5.9407   -6.3105    1.4120 N   0  0  0  0  0  0  0  0  0  0  0  0
    7.2876   -6.5104    1.6535 C   0  0  0  0  0  0  0  0  0  0  0  0
    8.0005   -5.4559    1.1107 C   0  0  0  0  0  0  0  0  0  0  0  0
    7.1354   -4.4957    0.4803 C   0  0  0  0  0  0  0  0  0  0  0  0
    7.5036   -3.2217   -0.2429 C   0  0  0  0  0  0  0  0  0  0  0  0
    5.9007   -5.1451    0.7373 C   0  0  0  0  0  0  0  0  0  0  0  0
    4.2710   -4.6786    0.2887 S   0  0  0  0  0  0  0  0  0  0  0  0
    1.9432   -7.6515    2.0071 N   0  0  0  0  0  0  0  0  0  0  0  0
   -1.3701   -8.4148    1.9997 H   0  0  0  0  0  0  0  0  0  0  0  0
   -0.3288   -8.5114    3.4263 H   0  0  0  0  0  0  0  0  0  0  0  0
   -0.0814   -9.6197    2.0817 H   0  0  0  0  0  0  0  0  0  0  0  0
    7.6079   -7.3932    2.1884 H   0  0  0  0  0  0  0  0  0  0  0  0
    9.0740   -5.3822    1.1595 H   0  0  0  0  0  0  0  0  0  0  0  0
    6.6380   -2.6885   -0.6375 H   0  0  0  0  0  0  0  0  0  0  0  0
    8.1741   -3.4527   -1.0678 H   0  0  0  0  0  0  0  0  0  0  0  0
    8.0445   -2.5667    0.4364 H   0  0  0  0  0  0  0  0  0  0  0  0
  1  2  1  0
  1 16  1  0
  1 17  1  0
  1 18  1  0
  2 15  1  0
  2  3  2  0
  3  4  1  0
  4  5  1  0
  5  6  1  0
  5 15  2  0
  6 14  1  0
  6  7  2  0
  7  8  1  0
  8 13  1  0
  8  9  1  0
  9 10  2  0
  9 19  1  0
 10 11  1  0
 10 20  1  0
 11 12  1  0
 11 13  2  0
 12 21  1  0
 12 22  1  0
 12 23  1  0
 13 14  1  0
M  END
>  <i_m_ct_stereo_status>  (289) 
1

>  <s_m_source_file>  (289) 
/var/tmp/pbs.5076255.sched01/tmptehp0e0j/84lnm28v0z.sdf

>  <i_m_source_file_index>  (289) 
36

>  <i_lp_mmshare_version>  (289) 
48012

>  <i_f3d_flags>  (289) 
0

>  <s_epik_input>  (289) 
W0NIM11jMW5vYyhuMSktYyhuMilzYyhuMjMpYyhbQ0gzXSlbY0hdW2NIXTM=

>  <s_epik_cmdline>  (289) 
J2VwaWtfcHl0aG9uJywgJy1waHQnLCAnMi4wJywgJy1waCcsICc3LjAnLCAnLXRuJywgJzgnLCAnLW1hJywgJzIwMCcsICctaW1hZScsICc8aW5maWxlLm1hZT4nLCAnLW9tYWUnLCAnPG91dGZpbGUubWFlPic=

>  <r_lp_tautomer_probability>  (289) 
1

>  <r_epik_Ionization_Penalty>  (289) 
1.30334e-08

>  <r_epik_Ionization_Penalty_Charging>  (289) 
0

>  <r_epik_Ionization_Penalty_Neutral>  (289) 
1.30334e-08

>  <r_epik_State_Penalty>  (289) 
-0

>  <r_epik_Charging_Adjusted_Penalty>  (289) 
0

>  <i_epik_Tot_Q>  (289) 
0

>  <i_epik_Tot_abs_Q>  (289) 
0

>  <s_lp_Force_Field>  (289) 
OPLS3e

>  <r_lp_Energy>  (289) 
-3.32544

>  <b_lp_Chiralities_Consistent>  (289) 
1

>  <s_lp_Variant>  (289) 
84:0-1

>  <s_i_glide_gridfile>  (289) 
pfpi4k_grid

>  <i_i_glide_lignum>  (289) 
36

>  <i_i_glide_rotatable_bonds>  (289) 
1

>  <r_i_docking_score>  (289) 
-4.21389

>  <r_i_glide_ligand_efficiency>  (289) 
-0.280926

>  <r_i_glide_ligand_efficiency_sa>  (289) 
-0.692823

>  <r_i_glide_ligand_efficiency_ln>  (289) 
-1.13642

>  <r_i_glide_gscore>  (289) 
-4.21389

>  <r_i_glide_lipo>  (289) 
-0.61922

>  <r_i_glide_hbond>  (289) 
0

>  <r_i_glide_metal>  (289) 
-0

>  <r_i_glide_rewards>  (289) 
-2.0361

>  <r_i_glide_evdw>  (289) 
-20.5146

>  <r_i_glide_ecoul>  (289) 
-4.11847

>  <r_i_glide_erotb>  (289) 
0.34734

>  <r_i_glide_esite>  (289) 
-0.262412

>  <r_i_glide_emodel>  (289) 
-29.4847

>  <r_i_glide_energy>  (289) 
-24.6331

>  <r_i_glide_einternal>  (289) 
3.69867

>  <r_i_glide_intrahb_reward>  (289) 
-0

>  <i_i_glide_confnum>  (289) 
4

>  <i_i_glide_posenum>  (289) 
34

>  <r_i_glide_eff_state_penalty>  (289) 
0

>  <ligand_id>  (289) 
84

>  <original_smiles>  (289) 
Cc1noc(-c2nn3ccc(C)c3s2)n1

>  <smiles>  (289) 
[H]c1c(C([H])([H])[H])c2sc(-c3nc(C([H])([H])[H])no3)nn2c1[H]

$$$$
84:0:1
     RDKit          3D

 23 25  0  0  1  0  0  0  0  0999 V2000
   -0.6506   -9.3163    2.6824 C   0  0  0  0  0  0  0  0  0  0  0  0
    0.2112   -8.2039    2.2045 C   0  0  0  0  0  0  0  0  0  0  0  0
   -0.2971   -7.0449    1.7956 N   0  0  0  0  0  0  0  0  0  0  0  0
    0.8419   -6.3069    1.4294 O   0  0  0  0  0  0  0  0  0  0  0  0
    1.9139   -7.1130    1.6900 C   0  0  0  0  0  0  0  0  0  0  0  0
    3.2478   -6.5753    1.4045 C   0  0  0  0  0  0  0  0  0  0  0  0
    3.4015   -5.3034    0.9945 N   0  0  0  0  0  0  0  0  0  0  0  0
    4.7264   -5.0672    0.8186 N   0  0  0  0  0  0  0  0  0  0  0  0
    5.5829   -4.0507    0.4469 C   0  0  0  0  0  0  0  0  0  0  0  0
    6.8949   -4.5201    0.4854 C   0  0  0  0  0  0  0  0  0  0  0  0
    6.9601   -5.8971    0.8953 C   0  0  0  0  0  0  0  0  0  0  0  0
    8.1857   -6.7756    1.0527 C   0  0  0  0  0  0  0  0  0  0  0  0
    5.5642   -6.0971    1.0664 C   0  0  0  0  0  0  0  0  0  0  0  0
    4.7422   -7.5540    1.5628 S   0  0  0  0  0  0  0  0  0  0  0  0
    1.5675   -8.3093    2.1671 N   0  0  0  0  0  0  0  0  0  0  0  0
   -1.7091   -9.0624    2.6337 H   0  0  0  0  0  0  0  0  0  0  0  0
   -0.3884   -9.5499    3.7139 H   0  0  0  0  0  0  0  0  0  0  0  0
   -0.4737  -10.1958    2.0644 H   0  0  0  0  0  0  0  0  0  0  0  0
    5.1625   -3.0961    0.1914 H   0  0  0  0  0  0  0  0  0  0  0  0
    7.7425   -3.9054    0.2285 H   0  0  0  0  0  0  0  0  0  0  0  0
    7.9560   -7.7890    1.3765 H   0  0  0  0  0  0  0  0  0  0  0  0
    8.8628   -6.3215    1.7761 H   0  0  0  0  0  0  0  0  0  0  0  0
    8.7179   -6.8221    0.1032 H   0  0  0  0  0  0  0  0  0  0  0  0
  1  2  1  0
  1 16  1  0
  1 17  1  0
  1 18  1  0
  2 15  1  0
  2  3  2  0
  3  4  1  0
  4  5  1  0
  5  6  1  0
  5 15  2  0
  6 14  1  0
  6  7  2  0
  7  8  1  0
  8 13  1  0
  8  9  1  0
  9 10  2  0
  9 19  1  0
 10 11  1  0
 10 20  1  0
 11 12  1  0
 11 13  2  0
 12 21  1  0
 12 22  1  0
 12 23  1  0
 13 14  1  0
M  END
>  <i_m_ct_stereo_status>  (290) 
1

>  <s_m_source_file>  (290) 
/var/tmp/pbs.5076255.sched01/tmptehp0e0j/84lnm28v0z.sdf

>  <i_m_source_file_index>  (290) 
36

>  <i_lp_mmshare_version>  (290) 
48012

>  <i_f3d_flags>  (290) 
0

>  <s_epik_input>  (290) 
W0NIM11jMW5vYyhuMSktYyhuMilzYyhuMjMpYyhbQ0gzXSlbY0hdW2NIXTM=

>  <s_epik_cmdline>  (290) 
J2VwaWtfcHl0aG9uJywgJy1waHQnLCAnMi4wJywgJy1waCcsICc3LjAnLCAnLXRuJywgJzgnLCAnLW1hJywgJzIwMCcsICctaW1hZScsICc8aW5maWxlLm1hZT4nLCAnLW9tYWUnLCAnPG91dGZpbGUubWFlPic=

>  <r_lp_tautomer_probability>  (290) 
1

>  <r_epik_Ionization_Penalty>  (290) 
1.30334e-08

>  <r_epik_Ionization_Penalty_Charging>  (290) 
0

>  <r_epik_Ionization_Penalty_Neutral>  (290) 
1.30334e-08

>  <r_epik_State_Penalty>  (290) 
-0

>  <r_epik_Charging_Adjusted_Penalty>  (290) 
0

>  <i_epik_Tot_Q>  (290) 
0

>  <i_epik_Tot_abs_Q>  (290) 
0

>  <s_lp_Force_Field>  (290) 
OPLS3e

>  <r_lp_Energy>  (290) 
-3.32544

>  <b_lp_Chiralities_Consistent>  (290) 
1

>  <s_lp_Variant>  (290) 
84:0-1

>  <s_i_glide_gridfile>  (290) 
pfpi4k_grid

>  <i_i_glide_lignum>  (290) 
36

>  <i_i_glide_rotatable_bonds>  (290) 
1

>  <r_i_docking_score>  (290) 
-3.89731

>  <r_i_glide_ligand_efficiency>  (290) 
-0.259821

>  <r_i_glide_ligand_efficiency_sa>  (290) 
-0.640773

>  <r_i_glide_ligand_efficiency_ln>  (290) 
-1.05104

>  <r_i_glide_gscore>  (290) 
-3.89731

>  <r_i_glide_lipo>  (290) 
-0.521188

>  <r_i_glide_hbond>  (290) 
0

>  <r_i_glide_metal>  (290) 
-0

>  <r_i_glide_rewards>  (290) 
-1.98056

>  <r_i_glide_evdw>  (290) 
-20.478

>  <r_i_glide_ecoul>  (290) 
-3.11762

>  <r_i_glide_erotb>  (290) 
0.34734

>  <r_i_glide_esite>  (290) 
-0.251361

>  <r_i_glide_emodel>  (290) 
-29.8966

>  <r_i_glide_energy>  (290) 
-23.5956

>  <r_i_glide_einternal>  (290) 
0.041609

>  <r_i_glide_intrahb_reward>  (290) 
-0

>  <i_i_glide_confnum>  (290) 
3

>  <i_i_glide_posenum>  (290) 
1

>  <r_i_glide_eff_state_penalty>  (290) 
0

>  <ligand_id>  (290) 
84

>  <original_smiles>  (290) 
Cc1noc(-c2nn3ccc(C)c3s2)n1

>  <smiles>  (290) 
[H]c1c(C([H])([H])[H])c2sc(-c3nc(C([H])([H])[H])no3)nn2c1[H]

$$$$
84:0:2
     RDKit          3D

 23 25  0  0  1  0  0  0  0  0999 V2000
   -0.4750   -7.9142    1.8299 C   0  0  0  0  0  0  0  0  0  0  0  0
    0.8922   -7.3829    1.5668 C   0  0  0  0  0  0  0  0  0  0  0  0
    1.9865   -7.9795    2.0248 N   0  0  0  0  0  0  0  0  0  0  0  0
    3.0292   -7.1558    1.5589 O   0  0  0  0  0  0  0  0  0  0  0  0
    2.4288   -6.1448    0.8781 C   0  0  0  0  0  0  0  0  0  0  0  0
    3.2510   -5.0899    0.2810 C   0  0  0  0  0  0  0  0  0  0  0  0
    2.6633   -4.0003   -0.2350 N   0  0  0  0  0  0  0  0  0  0  0  0
    3.6144   -3.1857   -0.7457 N   0  0  0  0  0  0  0  0  0  0  0  0
    3.7092   -1.9645   -1.3894 C   0  0  0  0  0  0  0  0  0  0  0  0
    5.0407   -1.6884   -1.6428 C   0  0  0  0  0  0  0  0  0  0  0  0
    5.9004   -2.7429   -1.1696 C   0  0  0  0  0  0  0  0  0  0  0  0
    7.4056   -2.8386   -1.2448 C   0  0  0  0  0  0  0  0  0  0  0  0
    4.8956   -3.5967   -0.6424 C   0  0  0  0  0  0  0  0  0  0  0  0
    5.0416   -5.1489    0.1611 S   0  0  0  0  0  0  0  0  0  0  0  0
    1.0924   -6.2465    0.8537 N   0  0  0  0  0  0  0  0  0  0  0  0
   -0.4392   -8.8390    2.4059 H   0  0  0  0  0  0  0  0  0  0  0  0
   -0.9883   -8.1254    0.8870 H   0  0  0  0  0  0  0  0  0  0  0  0
   -1.0642   -7.1815    2.3840 H   0  0  0  0  0  0  0  0  0  0  0  0
    2.8010   -1.4147   -1.5927 H   0  0  0  0  0  0  0  0  0  0  0  0
    5.3693   -0.7878   -2.1316 H   0  0  0  0  0  0  0  0  0  0  0  0
    7.7991   -3.7569   -0.8080 H   0  0  0  0  0  0  0  0  0  0  0  0
    7.8553   -1.9960   -0.7235 H   0  0  0  0  0  0  0  0  0  0  0  0
    7.7193   -2.7854   -2.2859 H   0  0  0  0  0  0  0  0  0  0  0  0
  1  2  1  0
  1 16  1  0
  1 17  1  0
  1 18  1  0
  2 15  1  0
  2  3  2  0
  3  4  1  0
  4  5  1  0
  5  6  1  0
  5 15  2  0
  6 14  1  0
  6  7  2  0
  7  8  1  0
  8 13  1  0
  8  9  1  0
  9 10  2  0
  9 19  1  0
 10 11  1  0
 10 20  1  0
 11 12  1  0
 11 13  2  0
 12 21  1  0
 12 22  1  0
 12 23  1  0
 13 14  1  0
M  END
>  <i_m_ct_stereo_status>  (291) 
1

>  <s_m_source_file>  (291) 
/var/tmp/pbs.5076255.sched01/tmptehp0e0j/84lnm28v0z.sdf

>  <i_m_source_file_index>  (291) 
36

>  <i_lp_mmshare_version>  (291) 
48012

>  <i_f3d_flags>  (291) 
0

>  <s_epik_input>  (291) 
W0NIM11jMW5vYyhuMSktYyhuMilzYyhuMjMpYyhbQ0gzXSlbY0hdW2NIXTM=

>  <s_epik_cmdline>  (291) 
J2VwaWtfcHl0aG9uJywgJy1waHQnLCAnMi4wJywgJy1waCcsICc3LjAnLCAnLXRuJywgJzgnLCAnLW1hJywgJzIwMCcsICctaW1hZScsICc8aW5maWxlLm1hZT4nLCAnLW9tYWUnLCAnPG91dGZpbGUubWFlPic=

>  <r_lp_tautomer_probability>  (291) 
1

>  <r_epik_Ionization_Penalty>  (291) 
1.30334e-08

>  <r_epik_Ionization_Penalty_Charging>  (291) 
0

>  <r_epik_Ionization_Penalty_Neutral>  (291) 
1.30334e-08

>  <r_epik_State_Penalty>  (291) 
-0

>  <r_epik_Charging_Adjusted_Penalty>  (291) 
0

>  <i_epik_Tot_Q>  (291) 
0

>  <i_epik_Tot_abs_Q>  (291) 
0

>  <s_lp_Force_Field>  (291) 
OPLS3e

>  <r_lp_Energy>  (291) 
-3.32544

>  <b_lp_Chiralities_Consistent>  (291) 
1

>  <s_lp_Variant>  (291) 
84:0-1

>  <s_i_glide_gridfile>  (291) 
pfpi4k_grid

>  <i_i_glide_lignum>  (291) 
36

>  <i_i_glide_rotatable_bonds>  (291) 
1

>  <r_i_docking_score>  (291) 
-3.59628

>  <r_i_glide_ligand_efficiency>  (291) 
-0.239752

>  <r_i_glide_ligand_efficiency_sa>  (291) 
-0.59128

>  <r_i_glide_ligand_efficiency_ln>  (291) 
-0.969858

>  <r_i_glide_gscore>  (291) 
-3.59628

>  <r_i_glide_lipo>  (291) 
-0.0971911

>  <r_i_glide_hbond>  (291) 
-0.16

>  <r_i_glide_metal>  (291) 
-0

>  <r_i_glide_rewards>  (291) 
-1.9379

>  <r_i_glide_evdw>  (291) 
-22.1907

>  <r_i_glide_ecoul>  (291) 
-3.75243

>  <r_i_glide_erotb>  (291) 
0.34734

>  <r_i_glide_esite>  (291) 
-0.0761301

>  <r_i_glide_emodel>  (291) 
-29.7806

>  <r_i_glide_energy>  (291) 
-25.9431

>  <r_i_glide_einternal>  (291) 
3.70089

>  <r_i_glide_intrahb_reward>  (291) 
-0

>  <i_i_glide_confnum>  (291) 
2

>  <i_i_glide_posenum>  (291) 
23

>  <r_i_glide_eff_state_penalty>  (291) 
0

>  <ligand_id>  (291) 
84

>  <original_smiles>  (291) 
Cc1noc(-c2nn3ccc(C)c3s2)n1

>  <smiles>  (291) 
[H]c1c(C([H])([H])[H])c2sc(-c3nc(C([H])([H])[H])no3)nn2c1[H]

$$$$
87:0:0
     RDKit          3D

 59 65  0  0  1  0  0  0  0  0999 V2000
    3.7492   -2.4066    5.5498 C   0  0  0  0  0  0  0  0  0  0  0  0
    3.1128   -1.2256    5.4367 C   0  0  0  0  0  0  0  0  0  0  0  0
    2.5956   -0.4775    6.6123 C   0  0  0  0  0  0  0  0  0  0  0  0
    2.8666   -0.7565    7.7779 O   0  0  0  0  0  0  0  0  0  0  0  0
    1.8321    0.8331    6.2253 C   0  0  1  0  0  0  0  0  0  0  0  0
    2.8968    1.6231    5.4317 C   0  0  0  0  0  0  0  0  0  0  0  0
    3.4404    0.9561    4.3845 C   0  0  0  0  0  0  0  0  0  0  0  0
    2.8858   -0.4533    4.1360 C   0  0  2  0  0  0  0  0  0  0  0  0
    1.3737   -0.2380    4.0102 C   0  0  0  0  0  0  0  0  0  0  0  0
    0.9699   -0.6296    2.8731 O   0  0  0  0  0  0  0  0  0  0  0  0
    0.8591    0.4817    5.0773 C   0  0  0  0  0  0  0  0  0  0  0  0
   -0.4354    1.1854    5.1234 C   0  0  0  0  0  0  0  0  0  0  0  0
   -1.4986    0.6278    4.8447 O   0  0  0  0  0  0  0  0  0  0  0  0
   -0.3752    2.6967    5.5462 C   0  0  1  0  0  0  0  0  0  0  0  0
   -1.8399    3.2966    5.5567 C   0  0  1  0  0  0  0  0  0  0  0  0
   -2.6272    3.0188    4.4102 O   0  0  0  0  0  0  0  0  0  0  0  0
   -2.7121    2.8769    6.7369 C   0  0  0  0  0  0  0  0  0  0  0  0
   -2.1269    3.4406    8.0223 C   0  0  1  0  0  0  0  0  0  0  0  0
   -3.1345    3.2941    9.1849 C   0  0  0  0  0  0  0  0  0  0  0  0
   -0.7360    2.8200    8.2831 C   0  0  1  0  0  0  0  0  0  0  0  0
   -0.0423    3.5399    9.4696 C   0  0  0  0  0  0  0  0  0  0  0  0
   -0.8812    1.4586    8.6469 O   0  0  0  0  0  0  0  0  0  0  0  0
    0.1001    0.6814    8.2271 C   0  0  0  0  0  0  0  0  0  0  0  0
    0.1709   -0.5296    8.4251 O   0  0  0  0  0  0  0  0  0  0  0  0
    1.1113    1.5325    7.4336 C   0  0  2  0  0  0  0  0  0  0  0  0
    0.2241    2.7590    7.0398 C   0  0  1  0  0  0  0  0  0  0  0  0
    0.6312    3.4280    4.4832 C   0  0  1  0  0  0  0  0  0  0  0  0
    0.2142    4.8122    3.8725 C   0  0  1  0  0  0  0  0  0  0  0  0
   -1.0530    4.9460    3.2828 O   0  0  0  0  0  0  0  0  0  0  0  0
    0.4981    5.7557    4.8477 O   0  0  0  0  0  0  0  0  0  0  0  0
    1.7614    5.3910    5.4064 C   0  0  0  0  0  0  0  0  0  0  0  0
    2.0383    3.9517    4.9121 C   0  0  1  0  0  0  0  0  0  0  0  0
    3.1195    3.1050    5.6342 C   0  0  1  0  0  0  0  0  0  0  0  0
    3.3263    3.4606    6.9852 O   0  0  0  0  0  0  0  0  0  0  0  0
    4.1349   -2.9297    4.6846 H   0  0  0  0  0  0  0  0  0  0  0  0
    3.9000   -2.8714    6.5113 H   0  0  0  0  0  0  0  0  0  0  0  0
    4.1115    1.3935    3.6629 H   0  0  0  0  0  0  0  0  0  0  0  0
    3.3394   -0.9336    3.2735 H   0  0  0  0  0  0  0  0  0  0  0  0
   -1.7496    4.3756    5.6178 H   0  0  0  0  0  0  0  0  0  0  0  0
   -2.5982    2.0838    4.2401 H   0  0  0  0  0  0  0  0  0  0  0  0
   -3.7170    3.2698    6.5947 H   0  0  0  0  0  0  0  0  0  0  0  0
   -2.8113    1.7940    6.7978 H   0  0  0  0  0  0  0  0  0  0  0  0
   -1.9867    4.5129    7.8789 H   0  0  0  0  0  0  0  0  0  0  0  0
   -3.3491    2.2512    9.4234 H   0  0  0  0  0  0  0  0  0  0  0  0
   -4.0847    3.7637    8.9294 H   0  0  0  0  0  0  0  0  0  0  0  0
   -2.7934    3.7784   10.1014 H   0  0  0  0  0  0  0  0  0  0  0  0
    0.0572    4.6090    9.2847 H   0  0  0  0  0  0  0  0  0  0  0  0
    0.9573    3.1559    9.6642 H   0  0  0  0  0  0  0  0  0  0  0  0
   -0.5948    3.4175   10.3981 H   0  0  0  0  0  0  0  0  0  0  0  0
    1.8605    1.8169    8.1731 H   0  0  0  0  0  0  0  0  0  0  0  0
    0.8034    3.6717    7.1186 H   0  0  0  0  0  0  0  0  0  0  0  0
    0.7595    2.7742    3.6177 H   0  0  0  0  0  0  0  0  0  0  0  0
    0.8839    5.0538    3.0358 H   0  0  0  0  0  0  0  0  0  0  0  0
   -0.9281    4.7054    2.3646 H   0  0  0  0  0  0  0  0  0  0  0  0
    2.5409    6.0794    5.0883 H   0  0  0  0  0  0  0  0  0  0  0  0
    1.6861    5.4850    6.4848 H   0  0  0  0  0  0  0  0  0  0  0  0
    2.5401    4.1022    3.9517 H   0  0  0  0  0  0  0  0  0  0  0  0
    4.0749    3.3428    5.1597 H   0  0  0  0  0  0  0  0  0  0  0  0
    2.5195    3.3056    7.4475 H   0  0  0  0  0  0  0  0  0  0  0  0
  1  2  2  0
  1 35  1  0
  1 36  1  0
  2  8  1  0
  2  3  1  0
  3  4  2  0
  5  3  1  1
  5 11  1  0
  5 25  1  0
  5  6  1  0
  6 33  1  0
  6  7  2  0
  7  8  1  0
  7 37  1  0
  8  9  1  0
  8 38  1  6
  9 10  1  0
  9 11  2  0
 11 12  1  0
 12 13  2  0
 14 12  1  6
 14 26  1  0
 14 15  1  0
 14 27  1  0
 15 16  1  0
 15 17  1  0
 15 39  1  1
 16 40  1  0
 17 18  1  0
 17 41  1  0
 17 42  1  0
 18 19  1  0
 18 20  1  0
 18 43  1  6
 19 44  1  0
 19 45  1  0
 19 46  1  0
 20 26  1  0
 20 21  1  1
 20 22  1  0
 21 47  1  0
 21 48  1  0
 21 49  1  0
 22 23  1  0
 23 24  2  0
 23 25  1  0
 25 26  1  0
 25 50  1  1
 26 51  1  6
 27 32  1  0
 27 28  1  0
 27 52  1  6
 28 29  1  0
 28 30  1  0
 28 53  1  6
 29 54  1  0
 30 31  1  0
 31 32  1  0
 31 55  1  0
 31 56  1  0
 32 33  1  0
 32 57  1  6
 33 34  1  0
 33 58  1  6
 34 59  1  0
M  CHG  1  10  -1
M  END
>  <i_m_ct_stereo_status>  (292) 
1

>  <s_m_source_file>  (292) 
/var/tmp/pbs.5076255.sched01/tmptehp0e0j/84lnm28v0z.sdf

>  <i_m_source_file_index>  (292) 
40

>  <i_lp_mmshare_version>  (292) 
48012

>  <i_f3d_flags>  (292) 
0

>  <s_epik_input>  (292) 
Tz1DMUMoPVtDSDJdKVtDQEhdKFtDSF09QzJbQ0BdMTM0KUMoPU8pW0NAQEhdM0MoPU8pW0NAQF01KFtDQEhdNltDQF0oW0NIM10pKE9DKD1PKVtDQEBIXTQ2KVtDQEhdKFtDSDNdKVtDSDJdW0NAQEhdNVtPSF0pW0NAQEhdN1tDQEhdKFtDQEhdMltPSF0pW0NIMl1PW0NAQEhdN1tPSF0=

>  <s_epik_cmdline>  (292) 
J2VwaWtfcHl0aG9uJywgJy1waHQnLCAnMi4wJywgJy1waCcsICc3LjAnLCAnLXRuJywgJzgnLCAnLW1hJywgJzIwMCcsICctaW1hZScsICc8aW5maWxlLm1hZT4nLCAnLW9tYWUnLCAnPG91dGZpbGUubWFlPic=

>  <r_lp_tautomer_probability>  (292) 
1

>  <r_epik_Ionization_Penalty>  (292) 
5.98473

>  <r_epik_Ionization_Penalty_Charging>  (292) 
0.000552496

>  <r_epik_Ionization_Penalty_Neutral>  (292) 
5.98417

>  <r_epik_State_Penalty>  (292) 
-0

>  <r_epik_Charging_Adjusted_Penalty>  (292) 
0.000552496

>  <i_epik_Tot_Q>  (292) 
-1

>  <i_epik_Tot_abs_Q>  (292) 
1

>  <s_epik_Chemistry_Notes>  (292) 
This compound has an ester and may undergo hydrolysis at high or low pH. This compound contains an acetal/aminal-like group ( X-CH(R)-Y where X, Y are N, S, or O) that may be acid/base labile, releasing an aldehyde.

>  <s_lp_Force_Field>  (292) 
OPLS3e

>  <r_lp_Energy>  (292) 
112.462

>  <b_lp_Chiralities_Consistent>  (292) 
1

>  <s_lp_Variant>  (292) 
87:0-1

>  <s_i_glide_gridfile>  (292) 
pfpi4k_grid

>  <i_i_glide_lignum>  (292) 
40

>  <i_i_glide_rotatable_bonds>  (292) 
3

>  <r_i_docking_score>  (292) 
-3.50325

>  <r_i_glide_ligand_efficiency>  (292) 
-0.103037

>  <r_i_glide_ligand_efficiency_sa>  (292) 
-0.3338

>  <r_i_glide_ligand_efficiency_ln>  (292) 
-0.773967

>  <r_i_glide_gscore>  (292) 
-3.50325

>  <r_i_glide_lipo>  (292) 
-0.202722

>  <r_i_glide_hbond>  (292) 
0

>  <r_i_glide_metal>  (292) 
-0

>  <r_i_glide_rewards>  (292) 
-0.708223

>  <r_i_glide_evdw>  (292) 
-25.4872

>  <r_i_glide_ecoul>  (292) 
-7.90146

>  <r_i_glide_erotb>  (292) 
0

>  <r_i_glide_esite>  (292) 
-0.132729

>  <r_i_glide_emodel>  (292) 
-46.5839

>  <r_i_glide_energy>  (292) 
-33.3887

>  <r_i_glide_einternal>  (292) 
2.07757

>  <r_i_glide_intrahb_reward>  (292) 
-0.5

>  <i_i_glide_confnum>  (292) 
2

>  <i_i_glide_posenum>  (292) 
8

>  <r_i_glide_eff_state_penalty>  (292) 
0

>  <ligand_id>  (292) 
87

>  <original_smiles>  (292) 
C=C1C(=O)C23C4=CC1C(=O)C2C(=O)C1(C(O)CC(C)C2(C)OC(=O)C3C21)C1C(O)OCC1C4O

>  <smiles>  (292) 
[H]OC1([H])OC([H])([H])C2([H])C([H])(O[H])C3=C([H])C4([H])C([O-])=C5C(=O)C6(C([H])(O[H])C([H])([H])C([H])(C([H])([H])[H])C7(C([H])([H])[H])OC(=O)C([H])(C53C(=O)C4=C([H])[H])C76[H])C12[H]

$$$$
87:0:1
     RDKit          3D

 59 65  0  0  1  0  0  0  0  0999 V2000
    3.7436   -2.4925    5.8074 C   0  0  0  0  0  0  0  0  0  0  0  0
    3.1119   -1.3136    5.6533 C   0  0  0  0  0  0  0  0  0  0  0  0
    2.5902   -0.5274    6.8021 C   0  0  0  0  0  0  0  0  0  0  0  0
    2.8521   -0.7704    7.9774 O   0  0  0  0  0  0  0  0  0  0  0  0
    1.8361    0.7733    6.3680 C   0  0  1  0  0  0  0  0  0  0  0  0
    2.9104    1.5352    5.5608 C   0  0  0  0  0  0  0  0  0  0  0  0
    3.4567    0.8352    4.5357 C   0  0  0  0  0  0  0  0  0  0  0  0
    2.9010   -0.5801    4.3294 C   0  0  2  0  0  0  0  0  0  0  0  0
    1.3934   -0.3655    4.1821 C   0  0  0  0  0  0  0  0  0  0  0  0
    0.9993   -0.7944    3.0556 O   0  0  0  0  0  0  0  0  0  0  0  0
    0.8729    0.3894    5.2235 C   0  0  0  0  0  0  0  0  0  0  0  0
   -0.4213    1.0862    5.2448 C   0  0  0  0  0  0  0  0  0  0  0  0
   -1.4737    0.4988    5.0004 O   0  0  0  0  0  0  0  0  0  0  0  0
   -0.3631    2.6145    5.6208 C   0  0  1  0  0  0  0  0  0  0  0  0
   -1.8176    3.2325    5.6065 C   0  0  1  0  0  0  0  0  0  0  0  0
   -2.5975    2.9396    4.4640 O   0  0  0  0  0  0  0  0  0  0  0  0
   -2.7082    2.8481    6.7841 C   0  0  0  0  0  0  0  0  0  0  0  0
   -2.1309    3.4446    8.0574 C   0  0  1  0  0  0  0  0  0  0  0  0
   -3.1459    3.3347    9.2166 C   0  0  0  0  0  0  0  0  0  0  0  0
   -0.7434    2.8281    8.3465 C   0  0  1  0  0  0  0  0  0  0  0  0
   -0.0559    3.5827    9.5146 C   0  0  0  0  0  0  0  0  0  0  0  0
   -0.8939    1.4792    8.7518 O   0  0  0  0  0  0  0  0  0  0  0  0
    0.0884    0.6881    8.3608 C   0  0  0  0  0  0  0  0  0  0  0  0
    0.1538   -0.5183    8.5920 O   0  0  0  0  0  0  0  0  0  0  0  0
    1.1077    1.5118    7.5502 C   0  0  2  0  0  0  0  0  0  0  0  0
    0.2269    2.7264    7.1136 C   0  0  1  0  0  0  0  0  0  0  0  0
    0.6547    3.3096    4.5437 C   0  0  1  0  0  0  0  0  0  0  0  0
    0.2432    4.6682    3.8855 C   0  0  1  0  0  0  0  0  0  0  0  0
   -1.0193    4.7642    3.2781 O   0  0  0  0  0  0  0  0  0  0  0  0
    0.5157    5.6452    4.8278 O   0  0  0  0  0  0  0  0  0  0  0  0
    1.7775    5.3024    5.4085 C   0  0  0  0  0  0  0  0  0  0  0  0
    2.0582    3.8473    4.9648 C   0  0  1  0  0  0  0  0  0  0  0  0
    3.1339    3.0227    5.7204 C   0  0  1  0  0  0  0  0  0  0  0  0
    3.3310    3.4197    7.0605 O   0  0  0  0  0  0  0  0  0  0  0  0
    4.1349   -3.0430    4.9620 H   0  0  0  0  0  0  0  0  0  0  0  0
    3.8863   -2.9273    6.7836 H   0  0  0  0  0  0  0  0  0  0  0  0
    4.1297    1.2459    3.7996 H   0  0  0  0  0  0  0  0  0  0  0  0
    3.3578   -1.0900    3.4856 H   0  0  0  0  0  0  0  0  0  0  0  0
   -1.7180    4.3123    5.6355 H   0  0  0  0  0  0  0  0  0  0  0  0
   -2.0598    3.0712    3.6967 H   0  0  0  0  0  0  0  0  0  0  0  0
   -3.7126    3.2360    6.6196 H   0  0  0  0  0  0  0  0  0  0  0  0
   -2.8085    1.7667    6.8686 H   0  0  0  0  0  0  0  0  0  0  0  0
   -1.9857    4.5120    7.8828 H   0  0  0  0  0  0  0  0  0  0  0  0
   -3.3657    2.3007    9.4850 H   0  0  0  0  0  0  0  0  0  0  0  0
   -4.0920    3.8000    8.9399 H   0  0  0  0  0  0  0  0  0  0  0  0
   -2.8091    3.8465   10.1191 H   0  0  0  0  0  0  0  0  0  0  0  0
    0.0487    4.6453    9.2984 H   0  0  0  0  0  0  0  0  0  0  0  0
    0.9407    3.2012    9.7286 H   0  0  0  0  0  0  0  0  0  0  0  0
   -0.6154    3.4903   10.4426 H   0  0  0  0  0  0  0  0  0  0  0  0
    1.8502    1.8151    8.2877 H   0  0  0  0  0  0  0  0  0  0  0  0
    0.8060    3.6408    7.1672 H   0  0  0  0  0  0  0  0  0  0  0  0
    0.7906    2.6286    3.7002 H   0  0  0  0  0  0  0  0  0  0  0  0
    0.9180    4.8903    3.0483 H   0  0  0  0  0  0  0  0  0  0  0  0
   -0.8569    4.6163    2.3471 H   0  0  0  0  0  0  0  0  0  0  0  0
    2.5630    5.9774    5.0755 H   0  0  0  0  0  0  0  0  0  0  0  0
    1.6987    5.4326    6.4832 H   0  0  0  0  0  0  0  0  0  0  0  0
    2.5680    3.9653    4.0040 H   0  0  0  0  0  0  0  0  0  0  0  0
    4.0925    3.2391    5.2445 H   0  0  0  0  0  0  0  0  0  0  0  0
    2.5144    3.3026    7.5168 H   0  0  0  0  0  0  0  0  0  0  0  0
  1  2  2  0
  1 35  1  0
  1 36  1  0
  2  8  1  0
  2  3  1  0
  3  4  2  0
  5  3  1  1
  5 11  1  0
  5 25  1  0
  5  6  1  0
  6 33  1  0
  6  7  2  0
  7  8  1  0
  7 37  1  0
  8  9  1  0
  8 38  1  6
  9 10  1  0
  9 11  2  0
 11 12  1  0
 12 13  2  0
 14 12  1  6
 14 26  1  0
 14 15  1  0
 14 27  1  0
 15 16  1  0
 15 17  1  0
 15 39  1  1
 16 40  1  0
 17 18  1  0
 17 41  1  0
 17 42  1  0
 18 19  1  0
 18 20  1  0
 18 43  1  6
 19 44  1  0
 19 45  1  0
 19 46  1  0
 20 26  1  0
 20 21  1  1
 20 22  1  0
 21 47  1  0
 21 48  1  0
 21 49  1  0
 22 23  1  0
 23 24  2  0
 23 25  1  0
 25 26  1  0
 25 50  1  1
 26 51  1  6
 27 32  1  0
 27 28  1  0
 27 52  1  6
 28 29  1  0
 28 30  1  0
 28 53  1  6
 29 54  1  0
 30 31  1  0
 31 32  1  0
 31 55  1  0
 31 56  1  0
 32 33  1  0
 32 57  1  6
 33 34  1  0
 33 58  1  6
 34 59  1  0
M  CHG  1  10  -1
M  END
>  <i_m_ct_stereo_status>  (293) 
1

>  <s_m_source_file>  (293) 
/var/tmp/pbs.5076255.sched01/tmptehp0e0j/84lnm28v0z.sdf

>  <i_m_source_file_index>  (293) 
40

>  <i_lp_mmshare_version>  (293) 
48012

>  <i_f3d_flags>  (293) 
0

>  <s_epik_input>  (293) 
Tz1DMUMoPVtDSDJdKVtDQEhdKFtDSF09QzJbQ0BdMTM0KUMoPU8pW0NAQEhdM0MoPU8pW0NAQF01KFtDQEhdNltDQF0oW0NIM10pKE9DKD1PKVtDQEBIXTQ2KVtDQEhdKFtDSDNdKVtDSDJdW0NAQEhdNVtPSF0pW0NAQEhdN1tDQEhdKFtDQEhdMltPSF0pW0NIMl1PW0NAQEhdN1tPSF0=

>  <s_epik_cmdline>  (293) 
J2VwaWtfcHl0aG9uJywgJy1waHQnLCAnMi4wJywgJy1waCcsICc3LjAnLCAnLXRuJywgJzgnLCAnLW1hJywgJzIwMCcsICctaW1hZScsICc8aW5maWxlLm1hZT4nLCAnLW9tYWUnLCAnPG91dGZpbGUubWFlPic=

>  <r_lp_tautomer_probability>  (293) 
1

>  <r_epik_Ionization_Penalty>  (293) 
5.98473

>  <r_epik_Ionization_Penalty_Charging>  (293) 
0.000552496

>  <r_epik_Ionization_Penalty_Neutral>  (293) 
5.98417

>  <r_epik_State_Penalty>  (293) 
-0

>  <r_epik_Charging_Adjusted_Penalty>  (293) 
0.000552496

>  <i_epik_Tot_Q>  (293) 
-1

>  <i_epik_Tot_abs_Q>  (293) 
1

>  <s_epik_Chemistry_Notes>  (293) 
This compound has an ester and may undergo hydrolysis at high or low pH. This compound contains an acetal/aminal-like group ( X-CH(R)-Y where X, Y are N, S, or O) that may be acid/base labile, releasing an aldehyde.

>  <s_lp_Force_Field>  (293) 
OPLS3e

>  <r_lp_Energy>  (293) 
112.462

>  <b_lp_Chiralities_Consistent>  (293) 
1

>  <s_lp_Variant>  (293) 
87:0-1

>  <s_i_glide_gridfile>  (293) 
pfpi4k_grid

>  <i_i_glide_lignum>  (293) 
40

>  <i_i_glide_rotatable_bonds>  (293) 
3

>  <r_i_docking_score>  (293) 
-3.39144

>  <r_i_glide_ligand_efficiency>  (293) 
-0.0997483

>  <r_i_glide_ligand_efficiency_sa>  (293) 
-0.323146

>  <r_i_glide_ligand_efficiency_ln>  (293) 
-0.749265

>  <r_i_glide_gscore>  (293) 
-3.39144

>  <r_i_glide_lipo>  (293) 
-0.202438

>  <r_i_glide_hbond>  (293) 
-0.00245244

>  <r_i_glide_metal>  (293) 
-0

>  <r_i_glide_rewards>  (293) 
-0.708223

>  <r_i_glide_evdw>  (293) 
-25.2226

>  <r_i_glide_ecoul>  (293) 
-7.22631

>  <r_i_glide_erotb>  (293) 
0

>  <r_i_glide_esite>  (293) 
-0.13325

>  <r_i_glide_emodel>  (293) 
-45.1517

>  <r_i_glide_energy>  (293) 
-32.4489

>  <r_i_glide_einternal>  (293) 
2.54839

>  <r_i_glide_intrahb_reward>  (293) 
-0.5

>  <i_i_glide_confnum>  (293) 
2

>  <i_i_glide_posenum>  (293) 
1

>  <r_i_glide_eff_state_penalty>  (293) 
0

>  <ligand_id>  (293) 
87

>  <original_smiles>  (293) 
C=C1C(=O)C23C4=CC1C(=O)C2C(=O)C1(C(O)CC(C)C2(C)OC(=O)C3C21)C1C(O)OCC1C4O

>  <smiles>  (293) 
[H]OC1([H])OC([H])([H])C2([H])C([H])(O[H])C3=C([H])C4([H])C([O-])=C5C(=O)C6(C([H])(O[H])C([H])([H])C([H])(C([H])([H])[H])C7(C([H])([H])[H])OC(=O)C([H])(C53C(=O)C4=C([H])[H])C76[H])C12[H]

$$$$
87:0:2
     RDKit          3D

 59 65  0  0  1  0  0  0  0  0999 V2000
    0.1717    1.4208   12.0916 C   0  0  0  0  0  0  0  0  0  0  0  0
    0.5017    1.3118   10.7900 C   0  0  0  0  0  0  0  0  0  0  0  0
    0.2802    2.4136    9.8137 C   0  0  0  0  0  0  0  0  0  0  0  0
   -0.0141    3.5653   10.1147 O   0  0  0  0  0  0  0  0  0  0  0  0
    0.6907    2.0264    8.3529 C   0  0  1  0  0  0  0  0  0  0  0  0
    2.1843    1.6629    8.5132 C   0  0  0  0  0  0  0  0  0  0  0  0
    2.4371    0.6989    9.4414 C   0  0  0  0  0  0  0  0  0  0  0  0
    1.2102    0.1275   10.1536 C   0  0  2  0  0  0  0  0  0  0  0  0
    0.3190   -0.3693    9.0133 C   0  0  0  0  0  0  0  0  0  0  0  0
    0.0930   -1.6076    9.1307 O   0  0  0  0  0  0  0  0  0  0  0  0
    0.1113    0.6250    8.0558 C   0  0  0  0  0  0  0  0  0  0  0  0
   -0.3785    0.4588    6.6769 C   0  0  0  0  0  0  0  0  0  0  0  0
   -1.4287   -0.1255    6.4454 O   0  0  0  0  0  0  0  0  0  0  0  0
    0.5163    1.0951    5.5466 C   0  0  1  0  0  0  0  0  0  0  0  0
   -0.1181    0.8292    4.1302 C   0  0  1  0  0  0  0  0  0  0  0  0
   -0.4451   -0.5278    3.8967 O   0  0  0  0  0  0  0  0  0  0  0  0
   -1.3631    1.6509    3.7950 C   0  0  0  0  0  0  0  0  0  0  0  0
   -0.9483    3.1100    3.6852 C   0  0  1  0  0  0  0  0  0  0  0  0
   -2.0920    3.9453    3.0745 C   0  0  0  0  0  0  0  0  0  0  0  0
   -0.4297    3.6246    5.0455 C   0  0  1  0  0  0  0  0  0  0  0  0
    0.1922    5.0369    4.8826 C   0  0  0  0  0  0  0  0  0  0  0  0
   -1.5155    3.7499    5.9473 O   0  0  0  0  0  0  0  0  0  0  0  0
   -1.2056    3.4783    7.2046 C   0  0  0  0  0  0  0  0  0  0  0  0
   -1.9873    3.5261    8.1479 O   0  0  0  0  0  0  0  0  0  0  0  0
    0.2909    3.1024    7.2756 C   0  0  2  0  0  0  0  0  0  0  0  0
    0.5672    2.6779    5.7990 C   0  0  1  0  0  0  0  0  0  0  0  0
    1.9989    0.4271    5.7246 C   0  0  1  0  0  0  0  0  0  0  0  0
    2.7831   -0.0829    4.4561 C   0  0  1  0  0  0  0  0  0  0  0  0
    2.1528   -0.9310    3.5278 O   0  0  0  0  0  0  0  0  0  0  0  0
    3.3195    1.0525    3.8833 O   0  0  0  0  0  0  0  0  0  0  0  0
    3.8073    1.8727    4.9418 C   0  0  0  0  0  0  0  0  0  0  0  0
    3.2091    1.2748    6.2349 C   0  0  1  0  0  0  0  0  0  0  0  0
    3.2382    2.1240    7.5330 C   0  0  1  0  0  0  0  0  0  0  0  0
    3.2346    3.5156    7.3091 O   0  0  0  0  0  0  0  0  0  0  0  0
    0.3512    0.6187   12.7954 H   0  0  0  0  0  0  0  0  0  0  0  0
   -0.3066    2.3077   12.4777 H   0  0  0  0  0  0  0  0  0  0  0  0
    3.3959    0.2351    9.6018 H   0  0  0  0  0  0  0  0  0  0  0  0
    1.4702   -0.6441   10.8725 H   0  0  0  0  0  0  0  0  0  0  0  0
    0.6208    1.0981    3.3763 H   0  0  0  0  0  0  0  0  0  0  0  0
   -0.6375   -0.6523    2.9804 H   0  0  0  0  0  0  0  0  0  0  0  0
   -1.7831    1.3263    2.8410 H   0  0  0  0  0  0  0  0  0  0  0  0
   -2.1417    1.5228    4.5477 H   0  0  0  0  0  0  0  0  0  0  0  0
   -0.1251    3.1656    2.9716 H   0  0  0  0  0  0  0  0  0  0  0  0
   -2.9777    3.9598    3.7127 H   0  0  0  0  0  0  0  0  0  0  0  0
   -2.3881    3.5226    2.1216 H   0  0  0  0  0  0  0  0  0  0  0  0
   -1.7798    4.9673    2.8604 H   0  0  0  0  0  0  0  0  0  0  0  0
    1.0003    5.0346    4.1538 H   0  0  0  0  0  0  0  0  0  0  0  0
    0.5978    5.4231    5.8161 H   0  0  0  0  0  0  0  0  0  0  0  0
   -0.5425    5.7674    4.5488 H   0  0  0  0  0  0  0  0  0  0  0  0
    0.7857    4.0408    7.5136 H   0  0  0  0  0  0  0  0  0  0  0  0
    1.5389    3.0306    5.4848 H   0  0  0  0  0  0  0  0  0  0  0  0
    1.9070   -0.4487    6.3695 H   0  0  0  0  0  0  0  0  0  0  0  0
    3.6364   -0.6807    4.7852 H   0  0  0  0  0  0  0  0  0  0  0  0
    1.3380   -0.5243    3.2715 H   0  0  0  0  0  0  0  0  0  0  0  0
    4.8916    1.8486    4.9618 H   0  0  0  0  0  0  0  0  0  0  0  0
    3.5173    2.8976    4.7344 H   0  0  0  0  0  0  0  0  0  0  0  0
    3.9327    0.5053    6.5171 H   0  0  0  0  0  0  0  0  0  0  0  0
    4.1937    1.9416    8.0137 H   0  0  0  0  0  0  0  0  0  0  0  0
    2.4636    3.7308    6.8124 H   0  0  0  0  0  0  0  0  0  0  0  0
  1  2  2  0
  1 35  1  0
  1 36  1  0
  2  8  1  0
  2  3  1  0
  3  4  2  0
  5  3  1  1
  5 11  1  0
  5 25  1  0
  5  6  1  0
  6 33  1  0
  6  7  2  0
  7  8  1  0
  7 37  1  0
  8  9  1  0
  8 38  1  1
  9 10  1  0
  9 11  2  0
 11 12  1  0
 12 13  2  0
 14 12  1  1
 14 26  1  0
 14 15  1  0
 14 27  1  0
 15 16  1  0
 15 17  1  0
 15 39  1  6
 16 40  1  0
 17 18  1  0
 17 41  1  0
 17 42  1  0
 18 19  1  0
 18 20  1  0
 18 43  1  6
 19 44  1  0
 19 45  1  0
 19 46  1  0
 20 26  1  0
 20 21  1  6
 20 22  1  0
 21 47  1  0
 21 48  1  0
 21 49  1  0
 22 23  1  0
 23 24  2  0
 23 25  1  0
 25 26  1  0
 25 50  1  1
 26 51  1  6
 27 32  1  0
 27 28  1  0
 27 52  1  1
 28 29  1  0
 28 30  1  0
 28 53  1  1
 29 54  1  0
 30 31  1  0
 31 32  1  0
 31 55  1  0
 31 56  1  0
 32 33  1  0
 32 57  1  1
 33 34  1  0
 33 58  1  1
 34 59  1  0
M  CHG  1  10  -1
M  END
>  <i_m_ct_stereo_status>  (294) 
1

>  <s_m_source_file>  (294) 
/var/tmp/pbs.5076255.sched01/tmptehp0e0j/84lnm28v0z.sdf

>  <i_m_source_file_index>  (294) 
40

>  <i_lp_mmshare_version>  (294) 
48012

>  <i_f3d_flags>  (294) 
0

>  <s_epik_input>  (294) 
Tz1DMUMoPVtDSDJdKVtDQEhdKFtDSF09QzJbQ0BdMTM0KUMoPU8pW0NAQEhdM0MoPU8pW0NAQF01KFtDQEhdNltDQF0oW0NIM10pKE9DKD1PKVtDQEBIXTQ2KVtDQEhdKFtDSDNdKVtDSDJdW0NAQEhdNVtPSF0pW0NAQEhdN1tDQEhdKFtDQEhdMltPSF0pW0NIMl1PW0NAQEhdN1tPSF0=

>  <s_epik_cmdline>  (294) 
J2VwaWtfcHl0aG9uJywgJy1waHQnLCAnMi4wJywgJy1waCcsICc3LjAnLCAnLXRuJywgJzgnLCAnLW1hJywgJzIwMCcsICctaW1hZScsICc8aW5maWxlLm1hZT4nLCAnLW9tYWUnLCAnPG91dGZpbGUubWFlPic=

>  <r_lp_tautomer_probability>  (294) 
1

>  <r_epik_Ionization_Penalty>  (294) 
5.98473

>  <r_epik_Ionization_Penalty_Charging>  (294) 
0.000552496

>  <r_epik_Ionization_Penalty_Neutral>  (294) 
5.98417

>  <r_epik_State_Penalty>  (294) 
-0

>  <r_epik_Charging_Adjusted_Penalty>  (294) 
0.000552496

>  <i_epik_Tot_Q>  (294) 
-1

>  <i_epik_Tot_abs_Q>  (294) 
1

>  <s_epik_Chemistry_Notes>  (294) 
This compound has an ester and may undergo hydrolysis at high or low pH. This compound contains an acetal/aminal-like group ( X-CH(R)-Y where X, Y are N, S, or O) that may be acid/base labile, releasing an aldehyde.

>  <s_lp_Force_Field>  (294) 
OPLS3e

>  <r_lp_Energy>  (294) 
112.462

>  <b_lp_Chiralities_Consistent>  (294) 
1

>  <s_lp_Variant>  (294) 
87:0-1

>  <s_i_glide_gridfile>  (294) 
pfpi4k_grid

>  <i_i_glide_lignum>  (294) 
40

>  <i_i_glide_rotatable_bonds>  (294) 
3

>  <r_i_docking_score>  (294) 
-2.48287

>  <r_i_glide_ligand_efficiency>  (294) 
-0.0730257

>  <r_i_glide_ligand_efficiency_sa>  (294) 
-0.236575

>  <r_i_glide_ligand_efficiency_ln>  (294) 
-0.548536

>  <r_i_glide_gscore>  (294) 
-2.48287

>  <r_i_glide_lipo>  (294) 
0

>  <r_i_glide_hbond>  (294) 
-0.333302

>  <r_i_glide_metal>  (294) 
-0

>  <r_i_glide_rewards>  (294) 
-0.23271

>  <r_i_glide_evdw>  (294) 
-21.1245

>  <r_i_glide_ecoul>  (294) 
-5.4534

>  <r_i_glide_erotb>  (294) 
0

>  <r_i_glide_esite>  (294) 
-0.0426264

>  <r_i_glide_emodel>  (294) 
-32.6511

>  <r_i_glide_energy>  (294) 
-26.5779

>  <r_i_glide_einternal>  (294) 
0.771122

>  <r_i_glide_intrahb_reward>  (294) 
-0

>  <i_i_glide_confnum>  (294) 
2

>  <i_i_glide_posenum>  (294) 
21

>  <r_i_glide_eff_state_penalty>  (294) 
0

>  <ligand_id>  (294) 
87

>  <original_smiles>  (294) 
C=C1C(=O)C23C4=CC1C(=O)C2C(=O)C1(C(O)CC(C)C2(C)OC(=O)C3C21)C1C(O)OCC1C4O

>  <smiles>  (294) 
[H]OC1([H])OC([H])([H])C2([H])C([H])(O[H])C3=C([H])C4([H])C([O-])=C5C(=O)C6(C([H])(O[H])C([H])([H])C([H])(C([H])([H])[H])C7(C([H])([H])[H])OC(=O)C([H])(C53C(=O)C4=C([H])[H])C76[H])C12[H]

$$$$
88:0:0
     RDKit          3D

 77 83  0  0  1  0  0  0  0  0999 V2000
    5.4034   -3.8433   -1.8223 C   0  0  0  0  0  0  0  0  0  0  0  0
    4.9923   -2.5697   -1.0832 C   0  0  2  0  0  0  0  0  0  0  0  0
    6.1443   -2.0448   -0.1939 C   0  0  0  0  0  0  0  0  0  0  0  0
    5.7784   -0.7415    0.5414 C   0  0  0  0  0  0  0  0  0  0  0  0
    4.5073   -0.8358    1.4099 C   0  0  2  0  0  0  0  0  0  0  0  0
    4.7053   -1.5245    2.7994 C   0  0  1  0  0  0  0  0  0  0  0  0
    5.0145   -0.5531    3.9410 C   0  0  0  0  0  0  0  0  0  0  0  0
    3.4543   -2.4193    3.0648 C   0  0  2  0  0  0  0  0  0  0  0  0
    3.9153   -3.6824    3.5788 O   0  0  0  0  0  0  0  0  0  0  0  0
    3.0969   -4.8642    3.7736 C   0  0  2  0  0  0  0  0  0  0  0  0
    4.1617   -5.9016    4.2932 C   0  0  1  0  0  0  0  0  0  0  0  0
    4.7311   -6.7542    3.1721 C   0  0  0  0  0  0  0  0  0  0  0  0
    3.7450   -7.8570    2.6625 C   0  0  0  0  0  0  0  0  0  0  0  0
    2.1797   -7.6947    2.9575 C   0  0  2  0  0  0  0  0  0  0  0  0
    1.4496   -8.7585    2.1005 C   0  0  0  0  0  0  0  0  0  0  0  0
    1.6401   -6.5262    2.4514 O   0  0  0  0  0  0  0  0  0  0  0  0
    2.2931   -5.2640    2.4570 C   0  0  2  0  0  0  0  0  0  0  0  0
    2.9032   -5.0655    1.0171 C   0  0  1  0  0  0  0  0  0  0  0  0
    1.8451   -5.1226    0.0610 O   0  0  0  0  0  0  0  0  0  0  0  0
    3.5643   -3.7153    0.9086 C   0  0  1  0  0  0  0  0  0  0  0  0
    3.7057   -2.7370   -0.2896 C   0  0  1  0  0  0  0  0  0  0  0  0
    3.4160   -1.6010    0.7191 C   0  0  1  0  0  0  0  0  0  0  0  0
    2.8874   -2.6059    1.7028 C   0  0  2  0  0  0  0  0  0  0  0  0
    1.7581   -7.9407    4.3562 N   0  0  0  0  0  0  0  0  0  0  0  0
    2.1764   -9.2396    4.7641 O   0  0  0  0  0  0  0  0  0  0  0  0
    1.3920   -7.1155    5.3818 C   0  0  0  0  0  0  0  0  0  0  0  0
    1.3466   -7.5226    6.5421 O   0  0  0  0  0  0  0  0  0  0  0  0
    0.9634   -5.6438    5.1333 C   0  0  1  0  0  0  0  0  0  0  0  0
   -0.0877   -5.1929    6.1738 C   0  0  0  0  0  0  0  0  0  0  0  0
    2.1226   -4.5886    4.9596 C   0  0  1  0  0  0  0  0  0  0  0  0
    2.9116   -4.1597    6.2380 C   0  0  0  0  0  0  0  0  0  0  0  0
    4.1407   -5.0228    6.6087 C   0  0  0  0  0  0  0  0  0  0  0  0
    5.0723   -5.3064    5.4038 C   0  0  1  0  0  0  0  0  0  0  0  0
    6.2345   -6.2214    5.8445 C   0  0  0  0  0  0  0  0  0  0  0  0
    5.6293   -4.6477   -1.1207 H   0  0  0  0  0  0  0  0  0  0  0  0
    6.2995   -3.6630   -2.4269 H   0  0  0  0  0  0  0  0  0  0  0  0
    4.6224   -4.1922   -2.4948 H   0  0  0  0  0  0  0  0  0  0  0  0
    4.8205   -1.8177   -1.8498 H   0  0  0  0  0  0  0  0  0  0  0  0
    6.4278   -2.7998    0.5373 H   0  0  0  0  0  0  0  0  0  0  0  0
    7.0280   -1.8766   -0.8044 H   0  0  0  0  0  0  0  0  0  0  0  0
    6.6130   -0.4000    1.1462 H   0  0  0  0  0  0  0  0  0  0  0  0
    5.6069    0.0222   -0.2123 H   0  0  0  0  0  0  0  0  0  0  0  0
    4.1623    0.1843    1.5955 H   0  0  0  0  0  0  0  0  0  0  0  0
    5.5607   -2.1914    2.6951 H   0  0  0  0  0  0  0  0  0  0  0  0
    4.1972    0.1528    4.0997 H   0  0  0  0  0  0  0  0  0  0  0  0
    5.9198    0.0192    3.7285 H   0  0  0  0  0  0  0  0  0  0  0  0
    5.1730   -1.1030    4.8700 H   0  0  0  0  0  0  0  0  0  0  0  0
    2.7443   -1.9281    3.7295 H   0  0  0  0  0  0  0  0  0  0  0  0
    3.7420   -6.6793    4.8928 H   0  0  0  0  0  0  0  0  0  0  0  0
    5.0990   -6.1303    2.3626 H   0  0  0  0  0  0  0  0  0  0  0  0
    5.6133   -7.2925    3.5257 H   0  0  0  0  0  0  0  0  0  0  0  0
    3.8841   -7.9713    1.5920 H   0  0  0  0  0  0  0  0  0  0  0  0
    4.0576   -8.8121    3.0804 H   0  0  0  0  0  0  0  0  0  0  0  0
    1.8101   -9.7687    2.2875 H   0  0  0  0  0  0  0  0  0  0  0  0
    1.6084   -8.5362    1.0403 H   0  0  0  0  0  0  0  0  0  0  0  0
    0.3741   -8.7150    2.2911 H   0  0  0  0  0  0  0  0  0  0  0  0
    1.4322   -4.5999    2.4756 H   0  0  0  0  0  0  0  0  0  0  0  0
    3.5973   -5.8516    0.7497 H   0  0  0  0  0  0  0  0  0  0  0  0
    2.2224   -5.0874   -0.7999 H   0  0  0  0  0  0  0  0  0  0  0  0
    4.6014   -3.8281    1.2834 H   0  0  0  0  0  0  0  0  0  0  0  0
    2.8229   -2.8626   -0.9395 H   0  0  0  0  0  0  0  0  0  0  0  0
    2.6413   -0.9447    0.3163 H   0  0  0  0  0  0  0  0  0  0  0  0
    1.7917   -2.6406    1.6349 H   0  0  0  0  0  0  0  0  0  0  0  0
    2.2794   -9.7017    3.9615 H   0  0  0  0  0  0  0  0  0  0  0  0
    0.3785   -5.6642    4.2211 H   0  0  0  0  0  0  0  0  0  0  0  0
   -0.9566   -5.8531    6.1630 H   0  0  0  0  0  0  0  0  0  0  0  0
   -0.4467   -4.1867    5.9541 H   0  0  0  0  0  0  0  0  0  0  0  0
    0.3010   -5.1920    7.1924 H   0  0  0  0  0  0  0  0  0  0  0  0
    1.5681   -3.6890    4.6841 H   0  0  0  0  0  0  0  0  0  0  0  0
    3.2698   -3.1439    6.0869 H   0  0  0  0  0  0  0  0  0  0  0  0
    2.2518   -4.0941    7.1039 H   0  0  0  0  0  0  0  0  0  0  0  0
    4.6992   -4.5167    7.4001 H   0  0  0  0  0  0  0  0  0  0  0  0
    3.7989   -5.9575    7.0470 H   0  0  0  0  0  0  0  0  0  0  0  0
    5.5375   -4.3755    5.0919 H   0  0  0  0  0  0  0  0  0  0  0  0
    5.8856   -7.2157    6.1245 H   0  0  0  0  0  0  0  0  0  0  0  0
    6.7606   -5.8003    6.7034 H   0  0  0  0  0  0  0  0  0  0  0  0
    6.9736   -6.3294    5.0488 H   0  0  0  0  0  0  0  0  0  0  0  0
  1  2  1  0
  1 35  1  0
  1 36  1  0
  1 37  1  0
  2 21  1  0
  2  3  1  0
  2 38  1  6
  3  4  1  0
  3 39  1  0
  3 40  1  0
  4  5  1  0
  4 41  1  0
  4 42  1  0
  5 22  1  0
  5  6  1  0
  5 43  1  1
  6  7  1  0
  6  8  1  0
  6 44  1  6
  7 45  1  0
  7 46  1  0
  7 47  1  0
  8 23  1  0
  8  9  1  0
  8 48  1  1
 10  9  1  6
 10 17  1  0
 10 30  1  0
 10 11  1  0
 11 33  1  0
 11 12  1  0
 11 49  1  1
 12 13  1  0
 12 50  1  0
 12 51  1  0
 13 14  1  0
 13 52  1  0
 13 53  1  0
 14 15  1  6
 14 16  1  0
 14 24  1  0
 15 54  1  0
 15 55  1  0
 15 56  1  0
 16 17  1  0
 17 18  1  0
 17 57  1  6
 18 19  1  0
 18 20  1  0
 18 58  1  6
 19 59  1  0
 20 23  1  0
 20 21  1  0
 20 60  1  1
 21 22  1  0
 21 61  1  6
 22 23  1  0
 22 62  1  6
 23 63  1  1
 24 25  1  0
 24 26  1  0
 25 64  1  0
 26 27  2  0
 26 28  1  0
 28 29  1  0
 28 30  1  0
 28 65  1  6
 29 66  1  0
 29 67  1  0
 29 68  1  0
 30 31  1  0
 30 69  1  6
 31 32  1  0
 31 70  1  0
 31 71  1  0
 32 33  1  0
 32 72  1  0
 32 73  1  0
 33 34  1  0
 33 74  1  6
 34 75  1  0
 34 76  1  0
 34 77  1  0
M  END
>  <i_m_ct_stereo_status>  (295) 
1

>  <s_m_source_file>  (295) 
/var/tmp/pbs.5076255.sched01/tmptehp0e0j/84lnm28v0z.sdf

>  <i_m_source_file_index>  (295) 
41

>  <i_lp_mmshare_version>  (295) 
48012

>  <i_f3d_flags>  (295) 
0

>  <s_epik_input>  (295) 
W0NIM11bQ0BASF0xW0NIMl1bQ0gyXVtDQEhdKFtDQEBIXShbQ0gzXSlbQ0BIXShPMilbQ0BIXTM0KVtDQEhdNFtDQEBIXTFbQ0BASF0zW0NASF0oW09IXSlbQ0BIXTVPW0NAQF0oW0NIM10pKFtDSDJdW0NIMl1bQ0BASF02W0NAQF0yNTcpTihbT0hdKUMoPU8pW0NAQEhdKFtDSDNdKVtDQEhdN1tDSDJdW0NIMl1bQ0BIXTZbQ0gzXQ==

>  <s_epik_cmdline>  (295) 
J2VwaWtfcHl0aG9uJywgJy1waHQnLCAnMi4wJywgJy1waCcsICc3LjAnLCAnLXRuJywgJzgnLCAnLW1hJywgJzIwMCcsICctaW1hZScsICc8aW5maWxlLm1hZT4nLCAnLW9tYWUnLCAnPG91dGZpbGUubWFlPic=

>  <r_epik_Ionization_Penalty>  (295) 
0.0101506

>  <r_epik_Ionization_Penalty_Charging>  (295) 
0

>  <r_epik_Ionization_Penalty_Neutral>  (295) 
0.0101506

>  <r_epik_State_Penalty>  (295) 
0.00771663

>  <r_epik_Charging_Adjusted_Penalty>  (295) 
0.00771663

>  <i_epik_Tot_Q>  (295) 
0

>  <i_epik_Tot_abs_Q>  (295) 
0

>  <s_epik_Chemistry_Notes>  (295) 
This compound has a N-S or N-O group and may undergo hydrolysis at high or low pH.

>  <s_lp_Force_Field>  (295) 
OPLS3e

>  <r_lp_Energy>  (295) 
113.901

>  <b_lp_Chiralities_Consistent>  (295) 
1

>  <s_lp_Variant>  (295) 
88:0-1

>  <s_i_glide_gridfile>  (295) 
pfpi4k_grid

>  <i_i_glide_lignum>  (295) 
41

>  <i_i_glide_rotatable_bonds>  (295) 
2

>  <r_i_docking_score>  (295) 
-2.72554

>  <r_i_glide_ligand_efficiency>  (295) 
-0.0801628

>  <r_i_glide_ligand_efficiency_sa>  (295) 
-0.259696

>  <r_i_glide_ligand_efficiency_ln>  (295) 
-0.602147

>  <r_i_glide_gscore>  (295) 
-2.72554

>  <r_i_glide_lipo>  (295) 
-0.390312

>  <r_i_glide_hbond>  (295) 
0

>  <r_i_glide_metal>  (295) 
-0

>  <r_i_glide_rewards>  (295) 
-0.179695

>  <r_i_glide_evdw>  (295) 
-27.4155

>  <r_i_glide_ecoul>  (295) 
-5.11688

>  <r_i_glide_erotb>  (295) 
0

>  <r_i_glide_esite>  (295) 
-0.0172186

>  <r_i_glide_emodel>  (295) 
-37.7351

>  <r_i_glide_energy>  (295) 
-32.5324

>  <r_i_glide_einternal>  (295) 
0.37671

>  <r_i_glide_intrahb_reward>  (295) 
-0

>  <i_i_glide_confnum>  (295) 
1

>  <i_i_glide_posenum>  (295) 
39

>  <r_i_glide_eff_state_penalty>  (295) 
0

>  <ligand_id>  (295) 
88

>  <original_smiles>  (295) 
CC1CCC2C(C)C3OC45C6CCC(C)(OC4C(O)C4C1C2C34)N(O)C(=O)C(C)C5CCC6C

>  <smiles>  (295) 
[H]ON1C(=O)C([H])(C([H])([H])[H])C2([H])C([H])([H])C([H])([H])C([H])(C([H])([H])[H])C3([H])C([H])([H])C([H])([H])C1(C([H])([H])[H])OC1([H])C([H])(O[H])C4([H])C5([H])C([H])(OC123)C([H])(C([H])([H])[H])C1([H])C([H])([H])C([H])([H])C([H])(C([H])([H])[H])C4([H])C15[H]

$$$$
88:0:1
     RDKit          3D

 77 83  0  0  1  0  0  0  0  0999 V2000
    4.9996   -3.5043   -2.0420 C   0  0  0  0  0  0  0  0  0  0  0  0
    4.5319   -2.4157   -1.0746 C   0  0  2  0  0  0  0  0  0  0  0  0
    5.7040   -1.8172   -0.2735 C   0  0  0  0  0  0  0  0  0  0  0  0
    5.2738   -0.6907    0.6859 C   0  0  0  0  0  0  0  0  0  0  0  0
    4.1855   -1.1039    1.6983 C   0  0  2  0  0  0  0  0  0  0  0  0
    4.6883   -1.9240    2.9244 C   0  0  1  0  0  0  0  0  0  0  0  0
    5.0265   -1.0653    4.1508 C   0  0  0  0  0  0  0  0  0  0  0  0
    3.6523   -3.0401    3.2301 C   0  0  2  0  0  0  0  0  0  0  0  0
    4.3582   -4.2652    3.4739 O   0  0  0  0  0  0  0  0  0  0  0  0
    3.7619   -5.5812    3.6005 C   0  0  2  0  0  0  0  0  0  0  0  0
    5.0259   -6.4830    3.8098 C   0  0  1  0  0  0  0  0  0  0  0  0
    5.5358   -7.0865    2.5060 C   0  0  0  0  0  0  0  0  0  0  0  0
    4.6455   -8.2577    1.9825 C   0  0  0  0  0  0  0  0  0  0  0  0
    3.1505   -8.3992    2.5034 C   0  0  2  0  0  0  0  0  0  0  0  0
    2.4487   -9.4504    1.6225 C   0  0  0  0  0  0  0  0  0  0  0  0
    2.3686   -7.2708    2.2485 O   0  0  0  0  0  0  0  0  0  0  0  0
    2.8201   -5.9345    2.3589 C   0  0  2  0  0  0  0  0  0  0  0  0
    3.1394   -5.4589    0.8946 C   0  0  1  0  0  0  0  0  0  0  0  0
    1.9639   -5.4978    0.1083 O   0  0  0  0  0  0  0  0  0  0  0  0
    3.6111   -4.0127    0.9077 C   0  0  1  0  0  0  0  0  0  0  0  0
    3.4064   -2.8920   -0.1407 C   0  0  1  0  0  0  0  0  0  0  0  0
    3.1197   -1.9553    1.0530 C   0  0  1  0  0  0  0  0  0  0  0  0
    2.8986   -3.1500    1.9420 C   0  0  2  0  0  0  0  0  0  0  0  0
    2.9835   -8.8829    3.8986 N   0  0  0  0  0  0  0  0  0  0  0  0
    3.6457  -10.1382    4.0513 O   0  0  0  0  0  0  0  0  0  0  0  0
    2.6769   -8.2616    5.0724 C   0  0  0  0  0  0  0  0  0  0  0  0
    2.8908   -8.8086    6.1527 O   0  0  0  0  0  0  0  0  0  0  0  0
    2.0056   -6.8647    5.1056 C   0  0  1  0  0  0  0  0  0  0  0  0
    1.0749   -6.7268    6.3351 C   0  0  0  0  0  0  0  0  0  0  0  0
    2.9552   -5.6178    4.9334 C   0  0  1  0  0  0  0  0  0  0  0  0
    3.8677   -5.2323    6.1454 C   0  0  0  0  0  0  0  0  0  0  0  0
    5.2469   -5.9196    6.2119 C   0  0  0  0  0  0  0  0  0  0  0  0
    6.0091   -5.8955    4.8647 C   0  0  1  0  0  0  0  0  0  0  0  0
    7.3439   -6.6506    5.0007 C   0  0  0  0  0  0  0  0  0  0  0  0
    5.4410   -4.3493   -1.5155 H   0  0  0  0  0  0  0  0  0  0  0  0
    5.7539   -3.1084   -2.7254 H   0  0  0  0  0  0  0  0  0  0  0  0
    4.1779   -3.8781   -2.6521 H   0  0  0  0  0  0  0  0  0  0  0  0
    4.1262   -1.6117   -1.6891 H   0  0  0  0  0  0  0  0  0  0  0  0
    6.2059   -2.6013    0.2926 H   0  0  0  0  0  0  0  0  0  0  0  0
    6.4456   -1.4394   -0.9729 H   0  0  0  0  0  0  0  0  0  0  0  0
    6.1426   -0.2893    1.2133 H   0  0  0  0  0  0  0  0  0  0  0  0
    4.8782    0.1322    0.0869 H   0  0  0  0  0  0  0  0  0  0  0  0
    3.7294   -0.1883    2.0786 H   0  0  0  0  0  0  0  0  0  0  0  0
    5.6094   -2.4198    2.6108 H   0  0  0  0  0  0  0  0  0  0  0  0
    4.1522   -0.5293    4.5213 H   0  0  0  0  0  0  0  0  0  0  0  0
    5.7976   -0.3345    3.9049 H   0  0  0  0  0  0  0  0  0  0  0  0
    5.4084   -1.6962    4.9538 H   0  0  0  0  0  0  0  0  0  0  0  0
    2.9836   -2.7594    4.0450 H   0  0  0  0  0  0  0  0  0  0  0  0
    4.8277   -7.3927    4.3400 H   0  0  0  0  0  0  0  0  0  0  0  0
    5.6731   -6.3094    1.7575 H   0  0  0  0  0  0  0  0  0  0  0  0
    6.5251   -7.5088    2.6549 H   0  0  0  0  0  0  0  0  0  0  0  0
    4.6317   -8.2147    0.8891 H   0  0  0  0  0  0  0  0  0  0  0  0
    5.1592   -9.2006    2.2023 H   0  0  0  0  0  0  0  0  0  0  0  0
    2.9849  -10.4048    1.6148 H   0  0  0  0  0  0  0  0  0  0  0  0
    2.4067   -9.0934    0.5919 H   0  0  0  0  0  0  0  0  0  0  0  0
    1.4228   -9.6095    1.9549 H   0  0  0  0  0  0  0  0  0  0  0  0
    1.8850   -5.4328    2.5991 H   0  0  0  0  0  0  0  0  0  0  0  0
    3.8905   -6.0828    0.4145 H   0  0  0  0  0  0  0  0  0  0  0  0
    2.2285   -5.4404   -0.8084 H   0  0  0  0  0  0  0  0  0  0  0  0
    4.6750   -4.0018    1.1134 H   0  0  0  0  0  0  0  0  0  0  0  0
    2.4698   -3.0658   -0.6717 H   0  0  0  0  0  0  0  0  0  0  0  0
    2.1880   -1.4133    0.8826 H   0  0  0  0  0  0  0  0  0  0  0  0
    1.8336   -3.3505    2.0131 H   0  0  0  0  0  0  0  0  0  0  0  0
    3.6742  -10.4777    3.1633 H   0  0  0  0  0  0  0  0  0  0  0  0
    1.2901   -6.8674    4.2877 H   0  0  0  0  0  0  0  0  0  0  0  0
    0.3202   -7.5160    6.3446 H   0  0  0  0  0  0  0  0  0  0  0  0
    0.5436   -5.7761    6.3198 H   0  0  0  0  0  0  0  0  0  0  0  0
    1.6146   -6.7911    7.2807 H   0  0  0  0  0  0  0  0  0  0  0  0
    2.2418   -4.7998    4.8785 H   0  0  0  0  0  0  0  0  0  0  0  0
    4.0463   -4.1567    6.1000 H   0  0  0  0  0  0  0  0  0  0  0  0
    3.3492   -5.3873    7.0905 H   0  0  0  0  0  0  0  0  0  0  0  0
    5.8445   -5.4337    6.9860 H   0  0  0  0  0  0  0  0  0  0  0  0
    5.1167   -6.9504    6.5503 H   0  0  0  0  0  0  0  0  0  0  0  0
    6.2784   -4.8644    4.6358 H   0  0  0  0  0  0  0  0  0  0  0  0
    7.1926   -7.7185    5.1748 H   0  0  0  0  0  0  0  0  0  0  0  0
    7.9343   -6.2624    5.8340 H   0  0  0  0  0  0  0  0  0  0  0  0
    7.9589   -6.5361    4.1065 H   0  0  0  0  0  0  0  0  0  0  0  0
  1  2  1  0
  1 35  1  0
  1 36  1  0
  1 37  1  0
  2 21  1  0
  2  3  1  0
  2 38  1  6
  3  4  1  0
  3 39  1  0
  3 40  1  0
  4  5  1  0
  4 41  1  0
  4 42  1  0
  5 22  1  0
  5  6  1  0
  5 43  1  1
  6  7  1  0
  6  8  1  0
  6 44  1  6
  7 45  1  0
  7 46  1  0
  7 47  1  0
  8 23  1  0
  8  9  1  0
  8 48  1  1
 10  9  1  6
 10 17  1  0
 10 30  1  0
 10 11  1  0
 11 33  1  0
 11 12  1  0
 11 49  1  1
 12 13  1  0
 12 50  1  0
 12 51  1  0
 13 14  1  0
 13 52  1  0
 13 53  1  0
 14 15  1  6
 14 16  1  0
 14 24  1  0
 15 54  1  0
 15 55  1  0
 15 56  1  0
 16 17  1  0
 17 18  1  0
 17 57  1  1
 18 19  1  0
 18 20  1  0
 18 58  1  6
 19 59  1  0
 20 23  1  0
 20 21  1  0
 20 60  1  1
 21 22  1  0
 21 61  1  6
 22 23  1  0
 22 62  1  6
 23 63  1  1
 24 25  1  0
 24 26  1  0
 25 64  1  0
 26 27  2  0
 26 28  1  0
 28 29  1  0
 28 30  1  0
 28 65  1  6
 29 66  1  0
 29 67  1  0
 29 68  1  0
 30 31  1  0
 30 69  1  6
 31 32  1  0
 31 70  1  0
 31 71  1  0
 32 33  1  0
 32 72  1  0
 32 73  1  0
 33 34  1  0
 33 74  1  6
 34 75  1  0
 34 76  1  0
 34 77  1  0
M  END
>  <i_m_ct_stereo_status>  (296) 
1

>  <s_m_source_file>  (296) 
/var/tmp/pbs.5076255.sched01/tmptehp0e0j/84lnm28v0z.sdf

>  <i_m_source_file_index>  (296) 
41

>  <i_lp_mmshare_version>  (296) 
48012

>  <i_f3d_flags>  (296) 
0

>  <s_epik_input>  (296) 
W0NIM11bQ0BASF0xW0NIMl1bQ0gyXVtDQEhdKFtDQEBIXShbQ0gzXSlbQ0BIXShPMilbQ0BIXTM0KVtDQEhdNFtDQEBIXTFbQ0BASF0zW0NASF0oW09IXSlbQ0BIXTVPW0NAQF0oW0NIM10pKFtDSDJdW0NIMl1bQ0BASF02W0NAQF0yNTcpTihbT0hdKUMoPU8pW0NAQEhdKFtDSDNdKVtDQEhdN1tDSDJdW0NIMl1bQ0BIXTZbQ0gzXQ==

>  <s_epik_cmdline>  (296) 
J2VwaWtfcHl0aG9uJywgJy1waHQnLCAnMi4wJywgJy1waCcsICc3LjAnLCAnLXRuJywgJzgnLCAnLW1hJywgJzIwMCcsICctaW1hZScsICc8aW5maWxlLm1hZT4nLCAnLW9tYWUnLCAnPG91dGZpbGUubWFlPic=

>  <r_epik_Ionization_Penalty>  (296) 
0.0101506

>  <r_epik_Ionization_Penalty_Charging>  (296) 
0

>  <r_epik_Ionization_Penalty_Neutral>  (296) 
0.0101506

>  <r_epik_State_Penalty>  (296) 
0.00771663

>  <r_epik_Charging_Adjusted_Penalty>  (296) 
0.00771663

>  <i_epik_Tot_Q>  (296) 
0

>  <i_epik_Tot_abs_Q>  (296) 
0

>  <s_epik_Chemistry_Notes>  (296) 
This compound has a N-S or N-O group and may undergo hydrolysis at high or low pH.

>  <s_lp_Force_Field>  (296) 
OPLS3e

>  <r_lp_Energy>  (296) 
113.901

>  <b_lp_Chiralities_Consistent>  (296) 
1

>  <s_lp_Variant>  (296) 
88:0-1

>  <s_i_glide_gridfile>  (296) 
pfpi4k_grid

>  <i_i_glide_lignum>  (296) 
41

>  <i_i_glide_rotatable_bonds>  (296) 
2

>  <r_i_docking_score>  (296) 
-2.69283

>  <r_i_glide_ligand_efficiency>  (296) 
-0.0792009

>  <r_i_glide_ligand_efficiency_sa>  (296) 
-0.25658

>  <r_i_glide_ligand_efficiency_ln>  (296) 
-0.594922

>  <r_i_glide_gscore>  (296) 
-2.69283

>  <r_i_glide_lipo>  (296) 
-0.381156

>  <r_i_glide_hbond>  (296) 
0

>  <r_i_glide_metal>  (296) 
-0

>  <r_i_glide_rewards>  (296) 
-0.179695

>  <r_i_glide_evdw>  (296) 
-28.9568

>  <r_i_glide_ecoul>  (296) 
-4.45923

>  <r_i_glide_erotb>  (296) 
0

>  <r_i_glide_esite>  (296) 
-0.0152522

>  <r_i_glide_emodel>  (296) 
-38.447

>  <r_i_glide_energy>  (296) 
-33.4161

>  <r_i_glide_einternal>  (296) 
0.470581

>  <r_i_glide_intrahb_reward>  (296) 
-0

>  <i_i_glide_confnum>  (296) 
1

>  <i_i_glide_posenum>  (296) 
22

>  <r_i_glide_eff_state_penalty>  (296) 
0

>  <ligand_id>  (296) 
88

>  <original_smiles>  (296) 
CC1CCC2C(C)C3OC45C6CCC(C)(OC4C(O)C4C1C2C34)N(O)C(=O)C(C)C5CCC6C

>  <smiles>  (296) 
[H]ON1C(=O)C([H])(C([H])([H])[H])C2([H])C([H])([H])C([H])([H])C([H])(C([H])([H])[H])C3([H])C([H])([H])C([H])([H])C1(C([H])([H])[H])OC1([H])C([H])(O[H])C4([H])C5([H])C([H])(OC123)C([H])(C([H])([H])[H])C1([H])C([H])([H])C([H])([H])C([H])(C([H])([H])[H])C4([H])C15[H]

$$$$
88:0:2
     RDKit          3D

 77 83  0  0  1  0  0  0  0  0999 V2000
   -1.1223   -7.1956    4.0168 C   0  0  0  0  0  0  0  0  0  0  0  0
   -0.3443   -8.5190    4.1106 C   0  0  2  0  0  0  0  0  0  0  0  0
    0.2042   -8.7678    5.5396 C   0  0  0  0  0  0  0  0  0  0  0  0
    0.9519  -10.1010    5.6723 C   0  0  0  0  0  0  0  0  0  0  0  0
    2.1223  -10.2709    4.6758 C   0  0  2  0  0  0  0  0  0  0  0  0
    3.4312   -9.5159    5.0830 C   0  0  1  0  0  0  0  0  0  0  0  0
    4.4210  -10.3617    5.8907 C   0  0  0  0  0  0  0  0  0  0  0  0
    4.0398   -8.9136    3.7786 C   0  0  2  0  0  0  0  0  0  0  0  0
    4.4607   -7.5660    4.0634 O   0  0  0  0  0  0  0  0  0  0  0  0
    4.8931   -6.5906    3.0841 C   0  0  2  0  0  0  0  0  0  0  0  0
    5.1642   -5.3310    3.9855 C   0  0  1  0  0  0  0  0  0  0  0  0
    3.9578   -4.4099    4.0462 C   0  0  0  0  0  0  0  0  0  0  0  0
    3.7539   -3.5678    2.7448 C   0  0  0  0  0  0  0  0  0  0  0  0
    4.4381   -4.0665    1.3886 C   0  0  2  0  0  0  0  0  0  0  0  0
    3.8391   -3.2092    0.2391 C   0  0  0  0  0  0  0  0  0  0  0  0
    4.0485   -5.3364    1.0028 O   0  0  0  0  0  0  0  0  0  0  0  0
    3.8485   -6.4175    1.8955 C   0  0  2  0  0  0  0  0  0  0  0  0
    2.2918   -6.5073    2.1405 C   0  0  1  0  0  0  0  0  0  0  0  0
    1.6471   -6.7179    0.8917 O   0  0  0  0  0  0  0  0  0  0  0  0
    1.9768   -7.6804    3.0314 C   0  0  1  0  0  0  0  0  0  0  0  0
    0.7556   -8.6333    3.0608 C   0  0  1  0  0  0  0  0  0  0  0  0
    1.7673   -9.7785    3.2901 C   0  0  1  0  0  0  0  0  0  0  0  0
    2.8853   -8.8869    2.8352 C   0  0  2  0  0  0  0  0  0  0  0  0
    5.9064   -3.8824    1.3122 N   0  0  0  0  0  0  0  0  0  0  0  0
    6.2322   -2.5048    1.4921 O   0  0  0  0  0  0  0  0  0  0  0  0
    6.9675   -4.7372    1.3588 C   0  0  0  0  0  0  0  0  0  0  0  0
    8.1177   -4.2969    1.3878 O   0  0  0  0  0  0  0  0  0  0  0  0
    6.7977   -6.2761    1.2799 C   0  0  1  0  0  0  0  0  0  0  0  0
    8.0946   -6.8953    0.7130 C   0  0  0  0  0  0  0  0  0  0  0  0
    6.2809   -7.0438    2.5535 C   0  0  1  0  0  0  0  0  0  0  0  0
    7.2961   -7.2631    3.7274 C   0  0  0  0  0  0  0  0  0  0  0  0
    7.3683   -6.1519    4.7934 C   0  0  0  0  0  0  0  0  0  0  0  0
    5.9743   -5.6782    5.2718 C   0  0  1  0  0  0  0  0  0  0  0  0
    6.1317   -4.5146    6.2723 C   0  0  0  0  0  0  0  0  0  0  0  0
   -0.4817   -6.3490    4.2328 H   0  0  0  0  0  0  0  0  0  0  0  0
   -1.9401   -7.1943    4.7392 H   0  0  0  0  0  0  0  0  0  0  0  0
   -1.5565   -7.0715    3.0316 H   0  0  0  0  0  0  0  0  0  0  0  0
   -1.0697   -9.3077    3.9250 H   0  0  0  0  0  0  0  0  0  0  0  0
    0.8528   -7.9468    5.8316 H   0  0  0  0  0  0  0  0  0  0  0  0
   -0.6150   -8.7779    6.2499 H   0  0  0  0  0  0  0  0  0  0  0  0
    1.3036  -10.2388    6.6940 H   0  0  0  0  0  0  0  0  0  0  0  0
    0.2349  -10.9030    5.4883 H   0  0  0  0  0  0  0  0  0  0  0  0
    2.3595  -11.3402    4.6409 H   0  0  0  0  0  0  0  0  0  0  0  0
    3.1294   -8.6817    5.7130 H   0  0  0  0  0  0  0  0  0  0  0  0
    4.7650  -11.2305    5.3238 H   0  0  0  0  0  0  0  0  0  0  0  0
    3.9553  -10.7275    6.8094 H   0  0  0  0  0  0  0  0  0  0  0  0
    5.2945   -9.7683    6.1660 H   0  0  0  0  0  0  0  0  0  0  0  0
    4.8612   -9.5318    3.4001 H   0  0  0  0  0  0  0  0  0  0  0  0
    5.8850   -4.6488    3.5812 H   0  0  0  0  0  0  0  0  0  0  0  0
    3.0671   -4.9691    4.3138 H   0  0  0  0  0  0  0  0  0  0  0  0
    4.0848   -3.6797    4.8456 H   0  0  0  0  0  0  0  0  0  0  0  0
    2.6877   -3.4445    2.5690 H   0  0  0  0  0  0  0  0  0  0  0  0
    4.1140   -2.5569    2.9385 H   0  0  0  0  0  0  0  0  0  0  0  0
    3.9676   -2.1383    0.4108 H   0  0  0  0  0  0  0  0  0  0  0  0
    2.7642   -3.4156    0.1579 H   0  0  0  0  0  0  0  0  0  0  0  0
    4.3131   -3.4900   -0.7064 H   0  0  0  0  0  0  0  0  0  0  0  0
    4.0635   -7.2558    1.2456 H   0  0  0  0  0  0  0  0  0  0  0  0
    1.8844   -5.5958    2.5630 H   0  0  0  0  0  0  0  0  0  0  0  0
    1.8851   -7.5683    0.5920 H   0  0  0  0  0  0  0  0  0  0  0  0
    2.0816   -7.3313    4.0813 H   0  0  0  0  0  0  0  0  0  0  0  0
    0.3616   -8.7402    2.0325 H   0  0  0  0  0  0  0  0  0  0  0  0
    1.5733  -10.5859    2.5679 H   0  0  0  0  0  0  0  0  0  0  0  0
    3.1130   -9.1210    1.7823 H   0  0  0  0  0  0  0  0  0  0  0  0
    5.4256   -2.0753    1.3392 H   0  0  0  0  0  0  0  0  0  0  0  0
    6.0760   -6.4292    0.4848 H   0  0  0  0  0  0  0  0  0  0  0  0
    8.3342   -6.4533   -0.2579 H   0  0  0  0  0  0  0  0  0  0  0  0
    7.9680   -7.9688    0.5429 H   0  0  0  0  0  0  0  0  0  0  0  0
    8.9570   -6.7410    1.3540 H   0  0  0  0  0  0  0  0  0  0  0  0
    6.1427   -8.0515    2.1597 H   0  0  0  0  0  0  0  0  0  0  0  0
    7.0263   -8.1821    4.2433 H   0  0  0  0  0  0  0  0  0  0  0  0
    8.3060   -7.4394    3.3490 H   0  0  0  0  0  0  0  0  0  0  0  0
    7.9556   -6.5121    5.6427 H   0  0  0  0  0  0  0  0  0  0  0  0
    7.9377   -5.3290    4.3844 H   0  0  0  0  0  0  0  0  0  0  0  0
    5.5138   -6.4846    5.8339 H   0  0  0  0  0  0  0  0  0  0  0  0
    6.5279   -3.6193    5.7910 H   0  0  0  0  0  0  0  0  0  0  0  0
    6.8107   -4.7911    7.0821 H   0  0  0  0  0  0  0  0  0  0  0  0
    5.1728   -4.2663    6.7335 H   0  0  0  0  0  0  0  0  0  0  0  0
  1  2  1  0
  1 35  1  0
  1 36  1  0
  1 37  1  0
  2 21  1  0
  2  3  1  0
  2 38  1  6
  3  4  1  0
  3 39  1  0
  3 40  1  0
  4  5  1  0
  4 41  1  0
  4 42  1  0
  5 22  1  0
  5  6  1  0
  5 43  1  6
  6  7  1  0
  6  8  1  0
  6 44  1  1
  7 45  1  0
  7 46  1  0
  7 47  1  0
  8 23  1  0
  8  9  1  0
  8 48  1  6
 10  9  1  1
 10 17  1  0
 10 30  1  0
 10 11  1  0
 11 33  1  0
 11 12  1  0
 11 49  1  6
 12 13  1  0
 12 50  1  0
 12 51  1  0
 13 14  1  0
 13 52  1  0
 13 53  1  0
 14 15  1  6
 14 16  1  0
 14 24  1  0
 15 54  1  0
 15 55  1  0
 15 56  1  0
 16 17  1  0
 17 18  1  0
 17 57  1  6
 18 19  1  0
 18 20  1  0
 18 58  1  1
 19 59  1  0
 20 23  1  0
 20 21  1  0
 20 60  1  1
 21 22  1  0
 21 61  1  6
 22 23  1  0
 22 62  1  6
 23 63  1  6
 24 25  1  0
 24 26  1  0
 25 64  1  0
 26 27  2  0
 26 28  1  0
 28 29  1  0
 28 30  1  0
 28 65  1  6
 29 66  1  0
 29 67  1  0
 29 68  1  0
 30 31  1  0
 30 69  1  6
 31 32  1  0
 31 70  1  0
 31 71  1  0
 32 33  1  0
 32 72  1  0
 32 73  1  0
 33 34  1  0
 33 74  1  1
 34 75  1  0
 34 76  1  0
 34 77  1  0
M  END
>  <i_m_ct_stereo_status>  (297) 
1

>  <s_m_source_file>  (297) 
/var/tmp/pbs.5076255.sched01/tmptehp0e0j/84lnm28v0z.sdf

>  <i_m_source_file_index>  (297) 
41

>  <i_lp_mmshare_version>  (297) 
48012

>  <i_f3d_flags>  (297) 
0

>  <s_epik_input>  (297) 
W0NIM11bQ0BASF0xW0NIMl1bQ0gyXVtDQEhdKFtDQEBIXShbQ0gzXSlbQ0BIXShPMilbQ0BIXTM0KVtDQEhdNFtDQEBIXTFbQ0BASF0zW0NASF0oW09IXSlbQ0BIXTVPW0NAQF0oW0NIM10pKFtDSDJdW0NIMl1bQ0BASF02W0NAQF0yNTcpTihbT0hdKUMoPU8pW0NAQEhdKFtDSDNdKVtDQEhdN1tDSDJdW0NIMl1bQ0BIXTZbQ0gzXQ==

>  <s_epik_cmdline>  (297) 
J2VwaWtfcHl0aG9uJywgJy1waHQnLCAnMi4wJywgJy1waCcsICc3LjAnLCAnLXRuJywgJzgnLCAnLW1hJywgJzIwMCcsICctaW1hZScsICc8aW5maWxlLm1hZT4nLCAnLW9tYWUnLCAnPG91dGZpbGUubWFlPic=

>  <r_epik_Ionization_Penalty>  (297) 
0.0101506

>  <r_epik_Ionization_Penalty_Charging>  (297) 
0

>  <r_epik_Ionization_Penalty_Neutral>  (297) 
0.0101506

>  <r_epik_State_Penalty>  (297) 
0.00771663

>  <r_epik_Charging_Adjusted_Penalty>  (297) 
0.00771663

>  <i_epik_Tot_Q>  (297) 
0

>  <i_epik_Tot_abs_Q>  (297) 
0

>  <s_epik_Chemistry_Notes>  (297) 
This compound has a N-S or N-O group and may undergo hydrolysis at high or low pH.

>  <s_lp_Force_Field>  (297) 
OPLS3e

>  <r_lp_Energy>  (297) 
113.901

>  <b_lp_Chiralities_Consistent>  (297) 
1

>  <s_lp_Variant>  (297) 
88:0-1

>  <s_i_glide_gridfile>  (297) 
pfpi4k_grid

>  <i_i_glide_lignum>  (297) 
41

>  <i_i_glide_rotatable_bonds>  (297) 
2

>  <r_i_docking_score>  (297) 
-2.30454

>  <r_i_glide_ligand_efficiency>  (297) 
-0.0677807

>  <r_i_glide_ligand_efficiency_sa>  (297) 
-0.219583

>  <r_i_glide_ligand_efficiency_ln>  (297) 
-0.509138

>  <r_i_glide_gscore>  (297) 
-2.30454

>  <r_i_glide_lipo>  (297) 
-0.165336

>  <r_i_glide_hbond>  (297) 
0

>  <r_i_glide_metal>  (297) 
-0

>  <r_i_glide_rewards>  (297) 
-0.458996

>  <r_i_glide_evdw>  (297) 
-28.1101

>  <r_i_glide_ecoul>  (297) 
-1.83137

>  <r_i_glide_erotb>  (297) 
0

>  <r_i_glide_esite>  (297) 
0

>  <r_i_glide_emodel>  (297) 
-34.2485

>  <r_i_glide_energy>  (297) 
-29.9415

>  <r_i_glide_einternal>  (297) 
0.0699265

>  <r_i_glide_intrahb_reward>  (297) 
-0

>  <i_i_glide_confnum>  (297) 
1

>  <i_i_glide_posenum>  (297) 
30

>  <r_i_glide_eff_state_penalty>  (297) 
0

>  <ligand_id>  (297) 
88

>  <original_smiles>  (297) 
CC1CCC2C(C)C3OC45C6CCC(C)(OC4C(O)C4C1C2C34)N(O)C(=O)C(C)C5CCC6C

>  <smiles>  (297) 
[H]ON1C(=O)C([H])(C([H])([H])[H])C2([H])C([H])([H])C([H])([H])C([H])(C([H])([H])[H])C3([H])C([H])([H])C([H])([H])C1(C([H])([H])[H])OC1([H])C([H])(O[H])C4([H])C5([H])C([H])(OC123)C([H])(C([H])([H])[H])C1([H])C([H])([H])C([H])([H])C([H])(C([H])([H])[H])C4([H])C15[H]

$$$$
88:1:0
     RDKit          3D

 76 82  0  0  1  0  0  0  0  0999 V2000
    5.3314   -3.8256   -2.0431 C   0  0  0  0  0  0  0  0  0  0  0  0
    4.9350   -2.5860   -1.2352 C   0  0  2  0  0  0  0  0  0  0  0  0
    6.1284   -2.0523   -0.4113 C   0  0  0  0  0  0  0  0  0  0  0  0
    5.7817   -0.7810    0.3888 C   0  0  0  0  0  0  0  0  0  0  0  0
    4.5824   -0.9319    1.3448 C   0  0  2  0  0  0  0  0  0  0  0  0
    4.9008   -1.6580    2.6860 C   0  0  1  0  0  0  0  0  0  0  0  0
    5.2683   -0.7107    3.8338 C   0  0  0  0  0  0  0  0  0  0  0  0
    3.7094   -2.6023    3.0151 C   0  0  2  0  0  0  0  0  0  0  0  0
    4.2575   -3.8567    3.4504 O   0  0  0  0  0  0  0  0  0  0  0  0
    3.5094   -5.0829    3.6577 C   0  0  2  0  0  0  0  0  0  0  0  0
    4.6481   -6.0965    4.0331 C   0  0  1  0  0  0  0  0  0  0  0  0
    5.1508   -6.8947    2.8354 C   0  0  0  0  0  0  0  0  0  0  0  0
    4.1421   -7.9866    2.3496 C   0  0  0  0  0  0  0  0  0  0  0  0
    2.6241   -7.9123    2.8162 C   0  0  2  0  0  0  0  0  0  0  0  0
    1.8423   -8.9394    1.9618 C   0  0  0  0  0  0  0  0  0  0  0  0
    1.9859   -6.7364    2.4457 O   0  0  0  0  0  0  0  0  0  0  0  0
    2.6038   -5.4628    2.4044 C   0  0  2  0  0  0  0  0  0  0  0  0
    3.0689   -5.1955    0.9261 C   0  0  1  0  0  0  0  0  0  0  0  0
    1.9322   -5.2384    0.0753 O   0  0  0  0  0  0  0  0  0  0  0  0
    3.7060   -3.8199    0.8145 C   0  0  1  0  0  0  0  0  0  0  0  0
    3.6949   -2.8093   -0.3556 C   0  0  1  0  0  0  0  0  0  0  0  0
    3.4466   -1.7105    0.7034 C   0  0  1  0  0  0  0  0  0  0  0  0
    3.0310   -2.7675    1.6878 C   0  0  2  0  0  0  0  0  0  0  0  0
    2.4106   -8.2957    4.2447 N   0  0  0  0  0  0  0  0  0  0  0  0
    2.7962   -9.5602    4.5366 O   0  0  0  0  0  0  0  0  0  0  0  0
    2.0070   -7.4796    5.2798 C   0  0  0  0  0  0  0  0  0  0  0  0
    2.0210   -7.9091    6.4389 O   0  0  0  0  0  0  0  0  0  0  0  0
    1.5108   -6.0167    5.1193 C   0  0  1  0  0  0  0  0  0  0  0  0
    0.5178   -5.6357    6.2446 C   0  0  0  0  0  0  0  0  0  0  0  0
    2.6175   -4.9059    4.9232 C   0  0  1  0  0  0  0  0  0  0  0  0
    3.4913   -4.5165    6.1627 C   0  0  0  0  0  0  0  0  0  0  0  0
    4.7879   -5.3288    6.3848 C   0  0  0  0  0  0  0  0  0  0  0  0
    5.6274   -5.5225    5.0961 C   0  0  1  0  0  0  0  0  0  0  0  0
    6.8547   -6.4054    5.3897 C   0  0  0  0  0  0  0  0  0  0  0  0
    5.6198   -4.6443   -1.3850 H   0  0  0  0  0  0  0  0  0  0  0  0
    6.1763   -3.6034   -2.6972 H   0  0  0  0  0  0  0  0  0  0  0  0
    4.5147   -4.1722   -2.6740 H   0  0  0  0  0  0  0  0  0  0  0  0
    4.6873   -1.8132   -1.9632 H   0  0  0  0  0  0  0  0  0  0  0  0
    6.4873   -2.8190    0.2729 H   0  0  0  0  0  0  0  0  0  0  0  0
    6.9632   -1.8560   -1.0820 H   0  0  0  0  0  0  0  0  0  0  0  0
    6.6485   -0.4247    0.9394 H   0  0  0  0  0  0  0  0  0  0  0  0
    5.5304    0.0012   -0.3187 H   0  0  0  0  0  0  0  0  0  0  0  0
    4.2216    0.0698    1.5829 H   0  0  0  0  0  0  0  0  0  0  0  0
    5.7699   -2.2890    2.4984 H   0  0  0  0  0  0  0  0  0  0  0  0
    4.4458   -0.0362    4.0792 H   0  0  0  0  0  0  0  0  0  0  0  0
    6.1395   -0.1048    3.5761 H   0  0  0  0  0  0  0  0  0  0  0  0
    5.5107   -1.2844    4.7298 H   0  0  0  0  0  0  0  0  0  0  0  0
    3.0382   -2.1623    3.7532 H   0  0  0  0  0  0  0  0  0  0  0  0
    4.3055   -6.9118    4.6378 H   0  0  0  0  0  0  0  0  0  0  0  0
    5.4413   -6.2227    2.0303 H   0  0  0  0  0  0  0  0  0  0  0  0
    6.0623   -7.4257    3.0996 H   0  0  0  0  0  0  0  0  0  0  0  0
    4.1764   -8.0391    1.2610 H   0  0  0  0  0  0  0  0  0  0  0  0
    4.5177   -8.9592    2.6740 H   0  0  0  0  0  0  0  0  0  0  0  0
    2.2753   -9.9393    2.0391 H   0  0  0  0  0  0  0  0  0  0  0  0
    1.8659   -8.6383    0.9107 H   0  0  0  0  0  0  0  0  0  0  0  0
    0.7980   -8.9742    2.2785 H   0  0  0  0  0  0  0  0  0  0  0  0
    1.7310   -4.8233    2.5198 H   0  0  0  0  0  0  0  0  0  0  0  0
    3.7604   -5.9512    0.5664 H   0  0  0  0  0  0  0  0  0  0  0  0
    2.2404   -5.2290   -0.8231 H   0  0  0  0  0  0  0  0  0  0  0  0
    4.7527   -3.9200    1.1072 H   0  0  0  0  0  0  0  0  0  0  0  0
    2.7873   -2.9447   -0.9512 H   0  0  0  0  0  0  0  0  0  0  0  0
    2.6161   -1.0822    0.4039 H   0  0  0  0  0  0  0  0  0  0  0  0
    1.9410   -2.8382    1.7128 H   0  0  0  0  0  0  0  0  0  0  0  0
    0.8434   -6.0135    4.2630 H   0  0  0  0  0  0  0  0  0  0  0  0
   -0.3228   -6.3294    6.2746 H   0  0  0  0  0  0  0  0  0  0  0  0
    0.1047   -4.6417    6.0816 H   0  0  0  0  0  0  0  0  0  0  0  0
    0.9735   -5.6436    7.2351 H   0  0  0  0  0  0  0  0  0  0  0  0
    2.0182   -4.0152    4.7393 H   0  0  0  0  0  0  0  0  0  0  0  0
    3.7903   -3.4738    6.0428 H   0  0  0  0  0  0  0  0  0  0  0  0
    2.9015   -4.5280    7.0785 H   0  0  0  0  0  0  0  0  0  0  0  0
    5.3895   -4.8357    7.1505 H   0  0  0  0  0  0  0  0  0  0  0  0
    4.5247   -6.3009    6.8047 H   0  0  0  0  0  0  0  0  0  0  0  0
    6.0243   -4.5570    4.7906 H   0  0  0  0  0  0  0  0  0  0  0  0
    6.5669   -7.4265    5.6456 H   0  0  0  0  0  0  0  0  0  0  0  0
    7.4354   -6.0058    6.2226 H   0  0  0  0  0  0  0  0  0  0  0  0
    7.5249   -6.4471    4.5311 H   0  0  0  0  0  0  0  0  0  0  0  0
  1  2  1  0
  1 35  1  0
  1 36  1  0
  1 37  1  0
  2 21  1  0
  2  3  1  0
  2 38  1  6
  3  4  1  0
  3 39  1  0
  3 40  1  0
  4  5  1  0
  4 41  1  0
  4 42  1  0
  5 22  1  0
  5  6  1  0
  5 43  1  1
  6  7  1  0
  6  8  1  0
  6 44  1  6
  7 45  1  0
  7 46  1  0
  7 47  1  0
  8 23  1  0
  8  9  1  0
  8 48  1  1
 10  9  1  6
 10 17  1  0
 10 30  1  0
 10 11  1  0
 11 33  1  0
 11 12  1  0
 11 49  1  1
 12 13  1  0
 12 50  1  0
 12 51  1  0
 13 14  1  0
 13 52  1  0
 13 53  1  0
 14 15  1  6
 14 16  1  0
 14 24  1  0
 15 54  1  0
 15 55  1  0
 15 56  1  0
 16 17  1  0
 17 18  1  0
 17 57  1  1
 18 19  1  0
 18 20  1  0
 18 58  1  6
 19 59  1  0
 20 23  1  0
 20 21  1  0
 20 60  1  1
 21 22  1  0
 21 61  1  6
 22 23  1  0
 22 62  1  6
 23 63  1  1
 24 25  1  0
 24 26  1  0
 26 27  2  0
 26 28  1  0
 28 29  1  0
 28 30  1  0
 28 64  1  6
 29 65  1  0
 29 66  1  0
 29 67  1  0
 30 31  1  0
 30 68  1  6
 31 32  1  0
 31 69  1  0
 31 70  1  0
 32 33  1  0
 32 71  1  0
 32 72  1  0
 33 34  1  0
 33 73  1  6
 34 74  1  0
 34 75  1  0
 34 76  1  0
M  CHG  1  25  -1
M  END
>  <i_m_ct_stereo_status>  (298) 
1

>  <s_m_source_file>  (298) 
/var/tmp/pbs.5076255.sched01/tmptehp0e0j/84lnm28v0z.sdf

>  <i_m_source_file_index>  (298) 
42

>  <i_lp_mmshare_version>  (298) 
48012

>  <i_f3d_flags>  (298) 
0

>  <s_epik_input>  (298) 
W0NIM11bQ0BASF0xW0NIMl1bQ0gyXVtDQEhdKFtDQEBIXShbQ0gzXSlbQ0BIXShPMilbQ0BIXTM0KVtDQEhdNFtDQEBIXTFbQ0BASF0zW0NASF0oW09IXSlbQ0BIXTVPW0NAQF0oW0NIM10pKFtDSDJdW0NIMl1bQ0BASF02W0NAQF0yNTcpTihbT0hdKUMoPU8pW0NAQEhdKFtDSDNdKVtDQEhdN1tDSDJdW0NIMl1bQ0BIXTZbQ0gzXQ==

>  <s_epik_cmdline>  (298) 
J2VwaWtfcHl0aG9uJywgJy1waHQnLCAnMi4wJywgJy1waCcsICc3LjAnLCAnLXRuJywgJzgnLCAnLW1hJywgJzIwMCcsICctaW1hZScsICc8aW5maWxlLm1hZT4nLCAnLW9tYWUnLCAnPG91dGZpbGUubWFlPic=

>  <r_lp_tautomer_probability>  (298) 
1

>  <r_epik_Ionization_Penalty>  (298) 
2.41676

>  <r_epik_Ionization_Penalty_Charging>  (298) 
2.41676

>  <r_epik_Ionization_Penalty_Neutral>  (298) 
1.41326e-07

>  <r_epik_State_Penalty>  (298) 
2.5758

>  <r_epik_Charging_Adjusted_Penalty>  (298) 
4.99257

>  <i_epik_Tot_Q>  (298) 
-1

>  <i_epik_Tot_abs_Q>  (298) 
1

>  <s_lp_Force_Field>  (298) 
OPLS3e

>  <r_lp_Energy>  (298) 
133.502

>  <b_lp_Chiralities_Consistent>  (298) 
1

>  <s_lp_Variant>  (298) 
88:0-2

>  <s_i_glide_gridfile>  (298) 
pfpi4k_grid

>  <i_i_glide_lignum>  (298) 
42

>  <i_i_glide_rotatable_bonds>  (298) 
1

>  <r_i_docking_score>  (298) 
-2.3636

>  <r_i_glide_ligand_efficiency>  (298) 
-0.0695178

>  <r_i_glide_ligand_efficiency_sa>  (298) 
-0.225211

>  <r_i_glide_ligand_efficiency_ln>  (298) 
-0.522186

>  <r_i_glide_gscore>  (298) 
-2.3636

>  <r_i_glide_lipo>  (298) 
-0.428217

>  <r_i_glide_hbond>  (298) 
0

>  <r_i_glide_metal>  (298) 
-0

>  <r_i_glide_rewards>  (298) 
-0.186567

>  <r_i_glide_evdw>  (298) 
-26.9509

>  <r_i_glide_ecoul>  (298) 
-2.6024

>  <r_i_glide_erotb>  (298) 
0

>  <r_i_glide_esite>  (298) 
-0.0109129

>  <r_i_glide_emodel>  (298) 
-33.8992

>  <r_i_glide_energy>  (298) 
-29.5533

>  <r_i_glide_einternal>  (298) 
0.396539

>  <r_i_glide_intrahb_reward>  (298) 
-0

>  <i_i_glide_confnum>  (298) 
2

>  <i_i_glide_posenum>  (298) 
8

>  <r_i_glide_eff_state_penalty>  (298) 
0

>  <ligand_id>  (298) 
88

>  <original_smiles>  (298) 
CC1CCC2C(C)C3OC45C6CCC(C)(OC4C(O)C4C1C2C34)N(O)C(=O)C(C)C5CCC6C

>  <smiles>  (298) 
[H]OC1([H])C2([H])OC3(C([H])([H])[H])N([O-])C(=O)C([H])(C([H])([H])[H])C4([H])C([H])([H])C([H])([H])C([H])(C([H])([H])[H])C([H])(C([H])([H])C3([H])[H])C24OC2([H])C([H])(C([H])([H])[H])C3([H])C([H])([H])C([H])([H])C([H])(C([H])([H])[H])C4([H])C1([H])C2([H])C34[H]

$$$$
88:1:1
     RDKit          3D

 76 82  0  0  1  0  0  0  0  0999 V2000
   -1.3207   -7.2322    3.9426 C   0  0  0  0  0  0  0  0  0  0  0  0
   -0.5755   -8.5645    4.1245 C   0  0  2  0  0  0  0  0  0  0  0  0
   -0.0785   -8.7435    5.5767 C   0  0  0  0  0  0  0  0  0  0  0  0
    0.6417  -10.0784    5.8168 C   0  0  0  0  0  0  0  0  0  0  0  0
    1.8329  -10.3386    4.8776 C   0  0  2  0  0  0  0  0  0  0  0  0
    3.1423   -9.5911    5.2854 C   0  0  1  0  0  0  0  0  0  0  0  0
    4.0847  -10.4102    6.1726 C   0  0  0  0  0  0  0  0  0  0  0  0
    3.8099   -9.0703    3.9782 C   0  0  2  0  0  0  0  0  0  0  0  0
    4.2406   -7.7187    4.2208 O   0  0  0  0  0  0  0  0  0  0  0  0
    4.7205   -6.7929    3.2141 C   0  0  2  0  0  0  0  0  0  0  0  0
    4.9565   -5.4880    4.0613 C   0  0  1  0  0  0  0  0  0  0  0  0
    3.7642   -4.5438    4.0169 C   0  0  0  0  0  0  0  0  0  0  0  0
    3.6157   -3.7897    2.6535 C   0  0  0  0  0  0  0  0  0  0  0  0
    4.3899   -4.3569    1.3748 C   0  0  2  0  0  0  0  0  0  0  0  0
    3.8205   -3.5823    0.1506 C   0  0  0  0  0  0  0  0  0  0  0  0
    4.0314   -5.6493    1.0411 O   0  0  0  0  0  0  0  0  0  0  0  0
    3.7320   -6.6740    1.9734 C   0  0  2  0  0  0  0  0  0  0  0  0
    2.1656   -6.7245    2.1622 C   0  0  1  0  0  0  0  0  0  0  0  0
    1.5077   -7.0270    0.9389 O   0  0  0  0  0  0  0  0  0  0  0  0
    1.7988   -7.8424    3.0988 C   0  0  1  0  0  0  0  0  0  0  0  0
    0.5553   -8.7650    3.1274 C   0  0  1  0  0  0  0  0  0  0  0  0
    1.5298   -9.9219    3.4572 C   0  0  1  0  0  0  0  0  0  0  0  0
    2.6854   -9.0781    2.9980 C   0  0  2  0  0  0  0  0  0  0  0  0
    5.8619   -4.0870    1.3871 N   0  0  0  0  0  0  0  0  0  0  0  0
    6.2130   -2.7735    1.3915 O   0  0  0  0  0  0  0  0  0  0  0  0
    6.8639   -5.0299    1.4944 C   0  0  0  0  0  0  0  0  0  0  0  0
    8.0358   -4.6574    1.6183 O   0  0  0  0  0  0  0  0  0  0  0  0
    6.6505   -6.5660    1.4357 C   0  0  1  0  0  0  0  0  0  0  0  0
    7.9189   -7.2568    0.9077 C   0  0  0  0  0  0  0  0  0  0  0  0
    6.1195   -7.2750    2.7422 C   0  0  1  0  0  0  0  0  0  0  0  0
    7.0998   -7.4241    3.9549 C   0  0  0  0  0  0  0  0  0  0  0  0
    7.1299   -6.2585    4.9697 C   0  0  0  0  0  0  0  0  0  0  0  0
    5.7196   -5.7707    5.3869 C   0  0  1  0  0  0  0  0  0  0  0  0
    5.8381   -4.5591    6.3349 C   0  0  0  0  0  0  0  0  0  0  0  0
   -0.6710   -6.3836    4.1371 H   0  0  0  0  0  0  0  0  0  0  0  0
   -2.1619   -7.1720    4.6373 H   0  0  0  0  0  0  0  0  0  0  0  0
   -1.7262   -7.1460    2.9387 H   0  0  0  0  0  0  0  0  0  0  0  0
   -1.3120   -9.3444    3.9504 H   0  0  0  0  0  0  0  0  0  0  0  0
    0.5683   -7.9173    5.8642 H   0  0  0  0  0  0  0  0  0  0  0  0
   -0.9358   -8.7254    6.2350 H   0  0  0  0  0  0  0  0  0  0  0  0
    0.9517  -10.1608    6.8592 H   0  0  0  0  0  0  0  0  0  0  0  0
   -0.0813  -10.8809    5.6701 H   0  0  0  0  0  0  0  0  0  0  0  0
    2.0397  -11.4121    4.9105 H   0  0  0  0  0  0  0  0  0  0  0  0
    2.8365   -8.7181    5.8611 H   0  0  0  0  0  0  0  0  0  0  0  0
    4.4274  -11.3129    5.6640 H   0  0  0  0  0  0  0  0  0  0  0  0
    3.5809  -10.7161    7.0921 H   0  0  0  0  0  0  0  0  0  0  0  0
    4.9593   -9.8191    6.4452 H   0  0  0  0  0  0  0  0  0  0  0  0
    4.6266   -9.7196    3.6588 H   0  0  0  0  0  0  0  0  0  0  0  0
    5.6978   -4.8371    3.6489 H   0  0  0  0  0  0  0  0  0  0  0  0
    2.8549   -5.0684    4.2955 H   0  0  0  0  0  0  0  0  0  0  0  0
    3.8795   -3.7645    4.7706 H   0  0  0  0  0  0  0  0  0  0  0  0
    2.5591   -3.6987    2.4134 H   0  0  0  0  0  0  0  0  0  0  0  0
    3.9550   -2.7635    2.7930 H   0  0  0  0  0  0  0  0  0  0  0  0
    3.9091   -2.5023    0.2779 H   0  0  0  0  0  0  0  0  0  0  0  0
    2.7624   -3.8308    0.0208 H   0  0  0  0  0  0  0  0  0  0  0  0
    4.3531   -3.8877   -0.7525 H   0  0  0  0  0  0  0  0  0  0  0  0
    3.9626   -7.5515    1.3764 H   0  0  0  0  0  0  0  0  0  0  0  0
    1.7598   -5.7842    2.5081 H   0  0  0  0  0  0  0  0  0  0  0  0
    1.7406   -7.9025    0.7097 H   0  0  0  0  0  0  0  0  0  0  0  0
    1.8678   -7.4404    4.1276 H   0  0  0  0  0  0  0  0  0  0  0  0
    0.1856   -8.9049    2.0986 H   0  0  0  0  0  0  0  0  0  0  0  0
    1.3399  -10.7664    2.7835 H   0  0  0  0  0  0  0  0  0  0  0  0
    2.9448   -9.3538    1.9661 H   0  0  0  0  0  0  0  0  0  0  0  0
    5.9616   -6.7477    0.6176 H   0  0  0  0  0  0  0  0  0  0  0  0
    8.2169   -6.8554   -0.0619 H   0  0  0  0  0  0  0  0  0  0  0  0
    7.7698   -8.3300    0.7784 H   0  0  0  0  0  0  0  0  0  0  0  0
    8.7601   -7.1164    1.5795 H   0  0  0  0  0  0  0  0  0  0  0  0
    5.9843   -8.3035    2.4028 H   0  0  0  0  0  0  0  0  0  0  0  0
    6.8168   -8.3167    4.5079 H   0  0  0  0  0  0  0  0  0  0  0  0
    8.1193   -7.6190    3.6195 H   0  0  0  0  0  0  0  0  0  0  0  0
    7.6924   -6.5706    5.8542 H   0  0  0  0  0  0  0  0  0  0  0  0
    7.7021   -5.4458    4.5368 H   0  0  0  0  0  0  0  0  0  0  0  0
    5.2381   -6.5511    5.9697 H   0  0  0  0  0  0  0  0  0  0  0  0
    6.2535   -3.6866    5.8289 H   0  0  0  0  0  0  0  0  0  0  0  0
    6.4811   -4.7900    7.1865 H   0  0  0  0  0  0  0  0  0  0  0  0
    4.8636   -4.2861    6.7439 H   0  0  0  0  0  0  0  0  0  0  0  0
  1  2  1  0
  1 35  1  0
  1 36  1  0
  1 37  1  0
  2 21  1  0
  2  3  1  0
  2 38  1  6
  3  4  1  0
  3 39  1  0
  3 40  1  0
  4  5  1  0
  4 41  1  0
  4 42  1  0
  5 22  1  0
  5  6  1  0
  5 43  1  6
  6  7  1  0
  6  8  1  0
  6 44  1  1
  7 45  1  0
  7 46  1  0
  7 47  1  0
  8 23  1  0
  8  9  1  0
  8 48  1  6
 10  9  1  1
 10 17  1  0
 10 30  1  0
 10 11  1  0
 11 33  1  0
 11 12  1  0
 11 49  1  6
 12 13  1  0
 12 50  1  0
 12 51  1  0
 13 14  1  0
 13 52  1  0
 13 53  1  0
 14 15  1  6
 14 16  1  0
 14 24  1  0
 15 54  1  0
 15 55  1  0
 15 56  1  0
 16 17  1  0
 17 18  1  0
 17 57  1  6
 18 19  1  0
 18 20  1  0
 18 58  1  1
 19 59  1  0
 20 23  1  0
 20 21  1  0
 20 60  1  1
 21 22  1  0
 21 61  1  6
 22 23  1  0
 22 62  1  6
 23 63  1  6
 24 25  1  0
 24 26  1  0
 26 27  2  0
 26 28  1  0
 28 29  1  0
 28 30  1  0
 28 64  1  6
 29 65  1  0
 29 66  1  0
 29 67  1  0
 30 31  1  0
 30 68  1  6
 31 32  1  0
 31 69  1  0
 31 70  1  0
 32 33  1  0
 32 71  1  0
 32 72  1  0
 33 34  1  0
 33 73  1  1
 34 74  1  0
 34 75  1  0
 34 76  1  0
M  CHG  1  25  -1
M  END
>  <i_m_ct_stereo_status>  (299) 
1

>  <s_m_source_file>  (299) 
/var/tmp/pbs.5076255.sched01/tmptehp0e0j/84lnm28v0z.sdf

>  <i_m_source_file_index>  (299) 
42

>  <i_lp_mmshare_version>  (299) 
48012

>  <i_f3d_flags>  (299) 
0

>  <s_epik_input>  (299) 
W0NIM11bQ0BASF0xW0NIMl1bQ0gyXVtDQEhdKFtDQEBIXShbQ0gzXSlbQ0BIXShPMilbQ0BIXTM0KVtDQEhdNFtDQEBIXTFbQ0BASF0zW0NASF0oW09IXSlbQ0BIXTVPW0NAQF0oW0NIM10pKFtDSDJdW0NIMl1bQ0BASF02W0NAQF0yNTcpTihbT0hdKUMoPU8pW0NAQEhdKFtDSDNdKVtDQEhdN1tDSDJdW0NIMl1bQ0BIXTZbQ0gzXQ==

>  <s_epik_cmdline>  (299) 
J2VwaWtfcHl0aG9uJywgJy1waHQnLCAnMi4wJywgJy1waCcsICc3LjAnLCAnLXRuJywgJzgnLCAnLW1hJywgJzIwMCcsICctaW1hZScsICc8aW5maWxlLm1hZT4nLCAnLW9tYWUnLCAnPG91dGZpbGUubWFlPic=

>  <r_lp_tautomer_probability>  (299) 
1

>  <r_epik_Ionization_Penalty>  (299) 
2.41676

>  <r_epik_Ionization_Penalty_Charging>  (299) 
2.41676

>  <r_epik_Ionization_Penalty_Neutral>  (299) 
1.41326e-07

>  <r_epik_State_Penalty>  (299) 
2.5758

>  <r_epik_Charging_Adjusted_Penalty>  (299) 
4.99257

>  <i_epik_Tot_Q>  (299) 
-1

>  <i_epik_Tot_abs_Q>  (299) 
1

>  <s_lp_Force_Field>  (299) 
OPLS3e

>  <r_lp_Energy>  (299) 
133.502

>  <b_lp_Chiralities_Consistent>  (299) 
1

>  <s_lp_Variant>  (299) 
88:0-2

>  <s_i_glide_gridfile>  (299) 
pfpi4k_grid

>  <i_i_glide_lignum>  (299) 
42

>  <i_i_glide_rotatable_bonds>  (299) 
1

>  <r_i_docking_score>  (299) 
-2.05106

>  <r_i_glide_ligand_efficiency>  (299) 
-0.0603253

>  <r_i_glide_ligand_efficiency_sa>  (299) 
-0.195431

>  <r_i_glide_ligand_efficiency_ln>  (299) 
-0.453137

>  <r_i_glide_gscore>  (299) 
-2.05106

>  <r_i_glide_lipo>  (299) 
-0.17857

>  <r_i_glide_hbond>  (299) 
0

>  <r_i_glide_metal>  (299) 
-0

>  <r_i_glide_rewards>  (299) 
-0.43798

>  <r_i_glide_evdw>  (299) 
-26.3288

>  <r_i_glide_ecoul>  (299) 
-0.787137

>  <r_i_glide_erotb>  (299) 
0

>  <r_i_glide_esite>  (299) 
0

>  <r_i_glide_emodel>  (299) 
-30.8537

>  <r_i_glide_energy>  (299) 
-27.1159

>  <r_i_glide_einternal>  (299) 
0.215199

>  <r_i_glide_intrahb_reward>  (299) 
-0

>  <i_i_glide_confnum>  (299) 
1

>  <i_i_glide_posenum>  (299) 
22

>  <r_i_glide_eff_state_penalty>  (299) 
0

>  <ligand_id>  (299) 
88

>  <original_smiles>  (299) 
CC1CCC2C(C)C3OC45C6CCC(C)(OC4C(O)C4C1C2C34)N(O)C(=O)C(C)C5CCC6C

>  <smiles>  (299) 
[H]OC1([H])C2([H])OC3(C([H])([H])[H])N([O-])C(=O)C([H])(C([H])([H])[H])C4([H])C([H])([H])C([H])([H])C([H])(C([H])([H])[H])C([H])(C([H])([H])C3([H])[H])C24OC2([H])C([H])(C([H])([H])[H])C3([H])C([H])([H])C([H])([H])C([H])(C([H])([H])[H])C4([H])C1([H])C2([H])C34[H]

$$$$
88:1:2
     RDKit          3D

 76 82  0  0  1  0  0  0  0  0999 V2000
    1.0911   -7.2561    7.5962 C   0  0  0  0  0  0  0  0  0  0  0  0
    0.6630   -8.0455    6.3505 C   0  0  2  0  0  0  0  0  0  0  0  0
    1.6567   -9.1851    6.0265 C   0  0  0  0  0  0  0  0  0  0  0  0
    1.2315  -10.0261    4.8068 C   0  0  0  0  0  0  0  0  0  0  0  0
    1.0190   -9.2048    3.5154 C   0  0  2  0  0  0  0  0  0  0  0  0
    2.3274   -8.7922    2.7691 C   0  0  1  0  0  0  0  0  0  0  0  0
    2.7631   -9.7714    1.6813 C   0  0  0  0  0  0  0  0  0  0  0  0
    2.1507   -7.3378    2.2478 C   0  0  2  0  0  0  0  0  0  0  0  0
    3.3716   -6.6278    2.5211 O   0  0  0  0  0  0  0  0  0  0  0  0
    3.5724   -5.1969    2.3955 C   0  0  2  0  0  0  0  0  0  0  0  0
    5.0443   -5.0248    2.9143 C   0  0  1  0  0  0  0  0  0  0  0  0
    5.1186   -4.6605    4.3916 C   0  0  0  0  0  0  0  0  0  0  0  0
    4.6974   -3.1840    4.6860 C   0  0  0  0  0  0  0  0  0  0  0  0
    3.8783   -2.3706    3.5936 C   0  0  2  0  0  0  0  0  0  0  0  0
    3.3682   -1.0806    4.2844 C   0  0  0  0  0  0  0  0  0  0  0  0
    2.6687   -2.9665    3.2550 O   0  0  0  0  0  0  0  0  0  0  0  0
    2.4561   -4.3640    3.1585 C   0  0  2  0  0  0  0  0  0  0  0  0
    1.8348   -4.8543    4.5170 C   0  0  1  0  0  0  0  0  0  0  0  0
    0.6128   -4.1606    4.7054 O   0  0  0  0  0  0  0  0  0  0  0  0
    1.5372   -6.3417    4.4640 C   0  0  1  0  0  0  0  0  0  0  0  0
    0.4007   -7.1505    5.1271 C   0  0  1  0  0  0  0  0  0  0  0  0
    0.2682   -7.9079    3.7853 C   0  0  1  0  0  0  0  0  0  0  0  0
    1.0388   -6.8105    3.1034 C   0  0  2  0  0  0  0  0  0  0  0  0
    4.6965   -1.9256    2.4190 N   0  0  0  0  0  0  0  0  0  0  0  0
    5.7047   -1.0714    2.7328 O   0  0  0  0  0  0  0  0  0  0  0  0
    4.5998   -2.3747    1.1179 C   0  0  0  0  0  0  0  0  0  0  0  0
    5.4533   -2.0349    0.2917 O   0  0  0  0  0  0  0  0  0  0  0  0
    3.4637   -3.2873    0.5718 C   0  0  1  0  0  0  0  0  0  0  0  0
    3.2206   -3.0352   -0.9361 C   0  0  0  0  0  0  0  0  0  0  0  0
    3.5695   -4.8326    0.8821 C   0  0  1  0  0  0  0  0  0  0  0  0
    4.6578   -5.6567    0.1180 C   0  0  0  0  0  0  0  0  0  0  0  0
    6.0552   -5.7294    0.7775 C   0  0  0  0  0  0  0  0  0  0  0  0
    6.0164   -6.0626    2.2868 C   0  0  1  0  0  0  0  0  0  0  0  0
    7.4450   -6.0589    2.8618 C   0  0  0  0  0  0  0  0  0  0  0  0
    2.0488   -6.7600    7.4451 H   0  0  0  0  0  0  0  0  0  0  0  0
    1.1969   -7.9255    8.4505 H   0  0  0  0  0  0  0  0  0  0  0  0
    0.3531   -6.5009    7.8607 H   0  0  0  0  0  0  0  0  0  0  0  0
   -0.2735   -8.5407    6.6072 H   0  0  0  0  0  0  0  0  0  0  0  0
    2.6504   -8.7741    5.8590 H   0  0  0  0  0  0  0  0  0  0  0  0
    1.7498   -9.8426    6.8913 H   0  0  0  0  0  0  0  0  0  0  0  0
    1.9580  -10.8204    4.6278 H   0  0  0  0  0  0  0  0  0  0  0  0
    0.2965  -10.5284    5.0570 H   0  0  0  0  0  0  0  0  0  0  0  0
    0.4249   -9.8144    2.8315 H   0  0  0  0  0  0  0  0  0  0  0  0
    3.1226   -8.7754    3.5157 H   0  0  0  0  0  0  0  0  0  0  0  0
    2.0163   -9.8507    0.8889 H   0  0  0  0  0  0  0  0  0  0  0  0
    2.9185  -10.7698    2.0892 H   0  0  0  0  0  0  0  0  0  0  0  0
    3.6984   -9.4524    1.2182 H   0  0  0  0  0  0  0  0  0  0  0  0
    1.8863   -7.3152    1.1894 H   0  0  0  0  0  0  0  0  0  0  0  0
    5.5348   -4.1613    2.5123 H   0  0  0  0  0  0  0  0  0  0  0  0
    4.5502   -5.3752    4.9835 H   0  0  0  0  0  0  0  0  0  0  0  0
    6.1422   -4.7568    4.7459 H   0  0  0  0  0  0  0  0  0  0  0  0
    4.1475   -3.1616    5.6280 H   0  0  0  0  0  0  0  0  0  0  0  0
    5.6029   -2.6085    4.8879 H   0  0  0  0  0  0  0  0  0  0  0  0
    4.1899   -0.5111    4.7244 H   0  0  0  0  0  0  0  0  0  0  0  0
    2.6653   -1.3409    5.0806 H   0  0  0  0  0  0  0  0  0  0  0  0
    2.8463   -0.4539    3.5591 H   0  0  0  0  0  0  0  0  0  0  0  0
    1.6145   -4.3785    2.4709 H   0  0  0  0  0  0  0  0  0  0  0  0
    2.4705   -4.6347    5.3707 H   0  0  0  0  0  0  0  0  0  0  0  0
    0.8130   -3.2375    4.7113 H   0  0  0  0  0  0  0  0  0  0  0  0
    2.4580   -6.8672    4.7235 H   0  0  0  0  0  0  0  0  0  0  0  0
   -0.4734   -6.5075    5.2668 H   0  0  0  0  0  0  0  0  0  0  0  0
   -0.7745   -7.9405    3.4731 H   0  0  0  0  0  0  0  0  0  0  0  0
    0.3515   -6.1160    2.6171 H   0  0  0  0  0  0  0  0  0  0  0  0
    2.5381   -2.8993    0.9867 H   0  0  0  0  0  0  0  0  0  0  0  0
    3.0045   -1.9822   -1.1210 H   0  0  0  0  0  0  0  0  0  0  0  0
    2.3640   -3.6024   -1.2975 H   0  0  0  0  0  0  0  0  0  0  0  0
    4.0749   -3.2984   -1.5594 H   0  0  0  0  0  0  0  0  0  0  0  0
    2.6297   -5.2136    0.4858 H   0  0  0  0  0  0  0  0  0  0  0  0
    4.2926   -6.6803    0.0230 H   0  0  0  0  0  0  0  0  0  0  0  0
    4.7614   -5.3129   -0.9099 H   0  0  0  0  0  0  0  0  0  0  0  0
    6.6661   -6.4721    0.2693 H   0  0  0  0  0  0  0  0  0  0  0  0
    6.5716   -4.7823    0.6137 H   0  0  0  0  0  0  0  0  0  0  0  0
    5.6493   -7.0799    2.4142 H   0  0  0  0  0  0  0  0  0  0  0  0
    7.8915   -5.0655    2.8235 H   0  0  0  0  0  0  0  0  0  0  0  0
    8.0996   -6.7279    2.3009 H   0  0  0  0  0  0  0  0  0  0  0  0
    7.4550   -6.4012    3.8960 H   0  0  0  0  0  0  0  0  0  0  0  0
  1  2  1  0
  1 35  1  0
  1 36  1  0
  1 37  1  0
  2 21  1  0
  2  3  1  0
  2 38  1  1
  3  4  1  0
  3 39  1  0
  3 40  1  0
  4  5  1  0
  4 41  1  0
  4 42  1  0
  5 22  1  0
  5  6  1  0
  5 43  1  6
  6  7  1  0
  6  8  1  0
  6 44  1  1
  7 45  1  0
  7 46  1  0
  7 47  1  0
  8 23  1  0
  8  9  1  0
  8 48  1  6
 10  9  1  6
 10 17  1  0
 10 30  1  0
 10 11  1  0
 11 33  1  0
 11 12  1  0
 11 49  1  6
 12 13  1  0
 12 50  1  0
 12 51  1  0
 13 14  1  0
 13 52  1  0
 13 53  1  0
 14 15  1  1
 14 16  1  0
 14 24  1  0
 15 54  1  0
 15 55  1  0
 15 56  1  0
 16 17  1  0
 17 18  1  0
 17 57  1  6
 18 19  1  0
 18 20  1  0
 18 58  1  1
 19 59  1  0
 20 23  1  0
 20 21  1  0
 20 60  1  1
 21 22  1  0
 21 61  1  1
 22 23  1  0
 22 62  1  6
 23 63  1  6
 24 25  1  0
 24 26  1  0
 26 27  2  0
 26 28  1  0
 28 29  1  0
 28 30  1  0
 28 64  1  1
 29 65  1  0
 29 66  1  0
 29 67  1  0
 30 31  1  0
 30 68  1  6
 31 32  1  0
 31 69  1  0
 31 70  1  0
 32 33  1  0
 32 71  1  0
 32 72  1  0
 33 34  1  0
 33 73  1  6
 34 74  1  0
 34 75  1  0
 34 76  1  0
M  CHG  1  25  -1
M  END
>  <i_m_ct_stereo_status>  (300) 
1

>  <s_m_source_file>  (300) 
/var/tmp/pbs.5076255.sched01/tmptehp0e0j/84lnm28v0z.sdf

>  <i_m_source_file_index>  (300) 
42

>  <i_lp_mmshare_version>  (300) 
48012

>  <i_f3d_flags>  (300) 
0

>  <s_epik_input>  (300) 
W0NIM11bQ0BASF0xW0NIMl1bQ0gyXVtDQEhdKFtDQEBIXShbQ0gzXSlbQ0BIXShPMilbQ0BIXTM0KVtDQEhdNFtDQEBIXTFbQ0BASF0zW0NASF0oW09IXSlbQ0BIXTVPW0NAQF0oW0NIM10pKFtDSDJdW0NIMl1bQ0BASF02W0NAQF0yNTcpTihbT0hdKUMoPU8pW0NAQEhdKFtDSDNdKVtDQEhdN1tDSDJdW0NIMl1bQ0BIXTZbQ0gzXQ==

>  <s_epik_cmdline>  (300) 
J2VwaWtfcHl0aG9uJywgJy1waHQnLCAnMi4wJywgJy1waCcsICc3LjAnLCAnLXRuJywgJzgnLCAnLW1hJywgJzIwMCcsICctaW1hZScsICc8aW5maWxlLm1hZT4nLCAnLW9tYWUnLCAnPG91dGZpbGUubWFlPic=

>  <r_lp_tautomer_probability>  (300) 
1

>  <r_epik_Ionization_Penalty>  (300) 
2.41676

>  <r_epik_Ionization_Penalty_Charging>  (300) 
2.41676

>  <r_epik_Ionization_Penalty_Neutral>  (300) 
1.41326e-07

>  <r_epik_State_Penalty>  (300) 
2.5758

>  <r_epik_Charging_Adjusted_Penalty>  (300) 
4.99257

>  <i_epik_Tot_Q>  (300) 
-1

>  <i_epik_Tot_abs_Q>  (300) 
1

>  <s_lp_Force_Field>  (300) 
OPLS3e

>  <r_lp_Energy>  (300) 
133.502

>  <b_lp_Chiralities_Consistent>  (300) 
1

>  <s_lp_Variant>  (300) 
88:0-2

>  <s_i_glide_gridfile>  (300) 
pfpi4k_grid

>  <i_i_glide_lignum>  (300) 
42

>  <i_i_glide_rotatable_bonds>  (300) 
1

>  <r_i_docking_score>  (300) 
-1.80901

>  <r_i_glide_ligand_efficiency>  (300) 
-0.0532062

>  <r_i_glide_ligand_efficiency_sa>  (300) 
-0.172367

>  <r_i_glide_ligand_efficiency_ln>  (300) 
-0.399661

>  <r_i_glide_gscore>  (300) 
-1.80901

>  <r_i_glide_lipo>  (300) 
-0.18498

>  <r_i_glide_hbond>  (300) 
0

>  <r_i_glide_metal>  (300) 
-0

>  <r_i_glide_rewards>  (300) 
-0.269949

>  <r_i_glide_evdw>  (300) 
-29.6958

>  <r_i_glide_ecoul>  (300) 
0.871393

>  <r_i_glide_erotb>  (300) 
0

>  <r_i_glide_esite>  (300) 
0

>  <r_i_glide_emodel>  (300) 
-32.092

>  <r_i_glide_energy>  (300) 
-28.8244

>  <r_i_glide_einternal>  (300) 
0.324151

>  <r_i_glide_intrahb_reward>  (300) 
-0

>  <i_i_glide_confnum>  (300) 
2

>  <i_i_glide_posenum>  (300) 
9

>  <r_i_glide_eff_state_penalty>  (300) 
0

>  <ligand_id>  (300) 
88

>  <original_smiles>  (300) 
CC1CCC2C(C)C3OC45C6CCC(C)(OC4C(O)C4C1C2C34)N(O)C(=O)C(C)C5CCC6C

>  <smiles>  (300) 
[H]OC1([H])C2([H])OC3(C([H])([H])[H])N([O-])C(=O)C([H])(C([H])([H])[H])C4([H])C([H])([H])C([H])([H])C([H])(C([H])([H])[H])C([H])(C([H])([H])C3([H])[H])C24OC2([H])C([H])(C([H])([H])[H])C3([H])C([H])([H])C([H])([H])C([H])(C([H])([H])[H])C4([H])C1([H])C2([H])C34[H]

$$$$
90:0:0
     RDKit          3D

 59 63  0  0  1  0  0  0  0  0999 V2000
    0.2142   -9.2483    2.9809 C   0  0  0  0  0  0  0  0  0  0  0  0
    1.7084   -9.4671    2.6966 C   0  0  2  0  0  0  0  0  0  0  0  0
    2.5256   -9.6959    3.9855 C   0  0  0  0  0  0  0  0  0  0  0  0
    3.4033   -8.5178    4.4435 C   0  0  0  0  0  0  0  0  0  0  0  0
    4.1634   -7.7995    3.3064 C   0  0  1  0  0  0  0  0  0  0  0  0
    5.4068   -8.5531    2.7543 C   0  0  1  0  0  0  0  0  0  0  0  0
    5.2773  -10.0479    2.4032 C   0  0  0  0  0  0  0  0  0  0  0  0
    5.9707   -7.7785    1.5606 C   0  0  0  0  0  0  0  0  0  0  0  0
    4.9424   -7.5796    0.5968 O   0  0  0  0  0  0  0  0  0  0  0  0
    3.9476   -6.6901    1.0028 C   0  0  2  0  0  0  0  0  0  0  0  0
    4.5145   -5.4445    1.2474 O   0  0  0  0  0  0  0  0  0  0  0  0
    3.6745   -4.3331    1.5317 C   0  0  2  0  0  0  0  0  0  0  0  0
    4.3277   -3.1215    0.8237 C   0  0  0  0  0  0  0  0  0  0  0  0
    4.2873   -3.1693   -0.7016 C   0  0  0  0  0  0  0  0  0  0  0  0
    3.0714   -2.9783   -1.3904 C   0  0  0  0  0  0  0  0  0  0  0  0
    3.0171   -3.0252   -2.7930 C   0  0  0  0  0  0  0  0  0  0  0  0
    4.1960   -3.2446   -3.5279 C   0  0  0  0  0  0  0  0  0  0  0  0
    5.4184   -3.4098   -2.8554 C   0  0  0  0  0  0  0  0  0  0  0  0
    5.4657   -3.3752   -1.4453 C   0  0  0  0  0  0  0  0  0  0  0  0
    3.6844   -4.1385    3.0548 C   0  0  0  0  0  0  0  0  0  0  0  0
    2.7115   -5.0879    3.7578 C   0  0  1  0  0  0  0  0  0  0  0  0
    1.5498   -4.3236    4.4257 C   0  0  0  0  0  0  0  0  0  0  0  0
    2.1869   -6.1765    2.7814 C   0  0  1  0  0  0  0  0  0  0  0  0
    1.5120   -5.5457    1.6978 O   0  0  0  0  0  0  0  0  0  0  0  0
    2.3265   -4.4260    1.0490 O   0  0  0  0  0  0  0  0  0  0  0  0
    3.1651   -7.2770    2.2311 C   0  0  2  0  0  0  0  0  0  0  0  0
    2.3163   -8.4664    1.6748 C   0  0  0  0  0  0  0  0  0  0  0  0
    0.0295   -8.3714    3.5916 H   0  0  0  0  0  0  0  0  0  0  0  0
   -0.2019  -10.1069    3.5093 H   0  0  0  0  0  0  0  0  0  0  0  0
   -0.3562   -9.1549    2.0601 H   0  0  0  0  0  0  0  0  0  0  0  0
    1.7236  -10.4269    2.1807 H   0  0  0  0  0  0  0  0  0  0  0  0
    1.8504   -9.9534    4.8015 H   0  0  0  0  0  0  0  0  0  0  0  0
    3.1256  -10.5948    3.8739 H   0  0  0  0  0  0  0  0  0  0  0  0
    2.7518   -7.8039    4.9503 H   0  0  0  0  0  0  0  0  0  0  0  0
    4.1041   -8.8549    5.2064 H   0  0  0  0  0  0  0  0  0  0  0  0
    4.6197   -6.9183    3.7502 H   0  0  0  0  0  0  0  0  0  0  0  0
    6.1615   -8.5183    3.5407 H   0  0  0  0  0  0  0  0  0  0  0  0
    4.4550  -10.2567    1.7237 H   0  0  0  0  0  0  0  0  0  0  0  0
    5.1598  -10.6562    3.2980 H   0  0  0  0  0  0  0  0  0  0  0  0
    6.1808  -10.4153    1.9162 H   0  0  0  0  0  0  0  0  0  0  0  0
    6.4013   -6.8298    1.8843 H   0  0  0  0  0  0  0  0  0  0  0  0
    6.7894   -8.3308    1.1011 H   0  0  0  0  0  0  0  0  0  0  0  0
    3.2962   -6.5606    0.1372 H   0  0  0  0  0  0  0  0  0  0  0  0
    3.8462   -2.1937    1.1320 H   0  0  0  0  0  0  0  0  0  0  0  0
    5.3642   -3.0417    1.1503 H   0  0  0  0  0  0  0  0  0  0  0  0
    2.1637   -2.7915   -0.8380 H   0  0  0  0  0  0  0  0  0  0  0  0
    2.0707   -2.9000   -3.3020 H   0  0  0  0  0  0  0  0  0  0  0  0
    4.1544   -3.2995   -4.6026 H   0  0  0  0  0  0  0  0  0  0  0  0
    6.3260   -3.5704   -3.4175 H   0  0  0  0  0  0  0  0  0  0  0  0
    6.4121   -3.5079   -0.9437 H   0  0  0  0  0  0  0  0  0  0  0  0
    4.6996   -4.3057    3.4233 H   0  0  0  0  0  0  0  0  0  0  0  0
    3.4403   -3.1044    3.3028 H   0  0  0  0  0  0  0  0  0  0  0  0
    3.2368   -5.5530    4.5896 H   0  0  0  0  0  0  0  0  0  0  0  0
    0.9521   -3.7739    3.6990 H   0  0  0  0  0  0  0  0  0  0  0  0
    1.9186   -3.6080    5.1628 H   0  0  0  0  0  0  0  0  0  0  0  0
    0.8848   -5.0061    4.9559 H   0  0  0  0  0  0  0  0  0  0  0  0
    1.4182   -6.7037    3.3422 H   0  0  0  0  0  0  0  0  0  0  0  0
    2.9103   -9.0328    0.9593 H   0  0  0  0  0  0  0  0  0  0  0  0
    1.5122   -8.0724    1.0537 H   0  0  0  0  0  0  0  0  0  0  0  0
  1  2  1  0
  1 28  1  0
  1 29  1  0
  1 30  1  0
  2 27  1  0
  2  3  1  0
  2 31  1  6
  3  4  1  0
  3 32  1  0
  3 33  1  0
  4  5  1  0
  4 34  1  0
  4 35  1  0
  5 26  1  0
  5  6  1  0
  5 36  1  1
  6  7  1  0
  6  8  1  0
  6 37  1  1
  7 38  1  0
  7 39  1  0
  7 40  1  0
  8  9  1  0
  8 41  1  0
  8 42  1  0
  9 10  1  0
 10 26  1  0
 10 11  1  0
 10 43  1  6
 11 12  1  0
 12 25  1  0
 12 13  1  6
 12 20  1  0
 13 14  1  0
 13 44  1  0
 13 45  1  0
 14 19  1  0
 14 15  2  0
 15 16  1  0
 15 46  1  0
 16 17  2  0
 16 47  1  0
 17 18  1  0
 17 48  1  0
 18 19  2  0
 18 49  1  0
 19 50  1  0
 20 21  1  0
 20 51  1  0
 20 52  1  0
 21 22  1  0
 21 23  1  0
 21 53  1  1
 22 54  1  0
 22 55  1  0
 22 56  1  0
 23 24  1  0
 23 26  1  0
 23 57  1  1
 24 25  1  0
 26 27  1  6
 27 58  1  0
 27 59  1  0
M  END
>  <i_m_ct_stereo_status>  (301) 
1

>  <s_m_source_file>  (301) 
/var/tmp/pbs.5076255.sched01/tmppj12hgr0/126t4bdxmoi.sdf

>  <i_m_source_file_index>  (301) 
3

>  <i_lp_mmshare_version>  (301) 
48012

>  <i_f3d_flags>  (301) 
0

>  <s_epik_input>  (301) 
W0NIM11bQ0BASF0oW0NIMl0xKVtDSDJdW0NIMl1bQ0BIXShbQ0BdMTIzKVtDQEBIXShbQ0gzXSlbQ0gyXU9bQ0BASF0yT1tDQEBdNChbQ0gyXVtDQEBIXShbQ0gzXSlbQ0BIXTNPTzQpW0NIMl1jNVtjSF1bY0hdW2NIXVtjSF1bY0hdNQ==

>  <s_epik_cmdline>  (301) 
J2VwaWtfcHl0aG9uJywgJy1waHQnLCAnMi4wJywgJy1waCcsICc3LjAnLCAnLXRuJywgJzgnLCAnLW1hJywgJzIwMCcsICctaW1hZScsICc8aW5maWxlLm1hZT4nLCAnLW9tYWUnLCAnPG91dGZpbGUubWFlPic=

>  <r_lp_tautomer_probability>  (301) 
1

>  <r_epik_Ionization_Penalty>  (301) 
1.5616e-13

>  <r_epik_Ionization_Penalty_Charging>  (301) 
0

>  <r_epik_Ionization_Penalty_Neutral>  (301) 
1.5616e-13

>  <r_epik_State_Penalty>  (301) 
-0

>  <r_epik_Charging_Adjusted_Penalty>  (301) 
0

>  <i_epik_Tot_Q>  (301) 
0

>  <i_epik_Tot_abs_Q>  (301) 
0

>  <s_epik_Chemistry_Notes>  (301) 
This compound contains an acetal/aminal-like group ( X-CH(R)-Y where X, Y are N, S, or O) that may be acid/base labile, releasing an aldehyde.

>  <s_lp_Force_Field>  (301) 
OPLS3e

>  <r_lp_Energy>  (301) 
53.389

>  <b_lp_Chiralities_Consistent>  (301) 
1

>  <s_lp_Variant>  (301) 
90:0-1

>  <s_i_glide_gridfile>  (301) 
pfpi4k_grid

>  <i_i_glide_lignum>  (301) 
3

>  <i_i_glide_rotatable_bonds>  (301) 
2

>  <r_i_docking_score>  (301) 
-2.79844

>  <r_i_glide_ligand_efficiency>  (301) 
-0.103646

>  <r_i_glide_ligand_efficiency_sa>  (301) 
-0.310938

>  <r_i_glide_ligand_efficiency_ln>  (301) 
-0.651431

>  <r_i_glide_gscore>  (301) 
-2.79844

>  <r_i_glide_lipo>  (301) 
-0.721028

>  <r_i_glide_hbond>  (301) 
-0.0954495

>  <r_i_glide_metal>  (301) 
-0

>  <r_i_glide_rewards>  (301) 
-1.00871

>  <r_i_glide_evdw>  (301) 
-23.9231

>  <r_i_glide_ecoul>  (301) 
-0.37002

>  <r_i_glide_erotb>  (301) 
0.278402

>  <r_i_glide_esite>  (301) 
0

>  <r_i_glide_emodel>  (301) 
-28.8467

>  <r_i_glide_energy>  (301) 
-24.2931

>  <r_i_glide_einternal>  (301) 
0.360757

>  <r_i_glide_intrahb_reward>  (301) 
-0

>  <i_i_glide_confnum>  (301) 
1

>  <i_i_glide_posenum>  (301) 
2

>  <r_i_glide_eff_state_penalty>  (301) 
0

>  <ligand_id>  (301) 
90

>  <original_smiles>  (301) 
CC1CCC2C(C)COC3OC4(Cc5ccccc5)CC(C)C(OO4)C32C1

>  <smiles>  (301) 
[H]c1c([H])c([H])c(C([H])([H])C23OOC([H])(C([H])(C([H])([H])[H])C2([H])[H])C24C([H])(OC([H])([H])C([H])(C([H])([H])[H])C2([H])C([H])([H])C([H])([H])C([H])(C([H])([H])[H])C4([H])[H])O3)c([H])c1[H]

$$$$
90:0:1
     RDKit          3D

 59 63  0  0  1  0  0  0  0  0999 V2000
    1.9652   -8.5022    7.0425 C   0  0  0  0  0  0  0  0  0  0  0  0
    0.9492   -8.2197    5.9258 C   0  0  2  0  0  0  0  0  0  0  0  0
    0.3253   -9.5116    5.3625 C   0  0  0  0  0  0  0  0  0  0  0  0
    0.8139   -9.9502    3.9717 C   0  0  0  0  0  0  0  0  0  0  0  0
    0.9722   -8.8015    2.9523 C   0  0  1  0  0  0  0  0  0  0  0  0
   -0.3559   -8.2584    2.3498 C   0  0  1  0  0  0  0  0  0  0  0  0
   -1.5332   -7.9329    3.2922 C   0  0  0  0  0  0  0  0  0  0  0  0
   -0.0361   -7.0588    1.4562 C   0  0  0  0  0  0  0  0  0  0  0  0
    0.6825   -6.0846    2.2022 O   0  0  0  0  0  0  0  0  0  0  0  0
    1.9828   -6.4789    2.5365 C   0  0  2  0  0  0  0  0  0  0  0  0
    2.7052   -6.6980    1.3685 O   0  0  0  0  0  0  0  0  0  0  0  0
    4.1013   -6.9697    1.4415 C   0  0  2  0  0  0  0  0  0  0  0  0
    4.7344   -6.2417    0.2361 C   0  0  0  0  0  0  0  0  0  0  0  0
    4.6429   -4.7217    0.2944 C   0  0  0  0  0  0  0  0  0  0  0  0
    5.6627   -3.9654    0.9073 C   0  0  0  0  0  0  0  0  0  0  0  0
    5.5819   -2.5594    0.9552 C   0  0  0  0  0  0  0  0  0  0  0  0
    4.4782   -1.9019    0.3770 C   0  0  0  0  0  0  0  0  0  0  0  0
    3.4635   -2.6475   -0.2480 C   0  0  0  0  0  0  0  0  0  0  0  0
    3.5460   -4.0540   -0.2859 C   0  0  0  0  0  0  0  0  0  0  0  0
    4.2790   -8.4910    1.3126 C   0  0  0  0  0  0  0  0  0  0  0  0
    4.0396   -9.2086    2.6417 C   0  0  1  0  0  0  0  0  0  0  0  0
    5.3270   -9.8701    3.1740 C   0  0  0  0  0  0  0  0  0  0  0  0
    3.4213   -8.2453    3.6909 C   0  0  1  0  0  0  0  0  0  0  0  0
    4.3144   -7.1509    3.9032 O   0  0  0  0  0  0  0  0  0  0  0  0
    4.7717   -6.4760    2.6085 O   0  0  0  0  0  0  0  0  0  0  0  0
    1.9493   -7.7179    3.4987 C   0  0  2  0  0  0  0  0  0  0  0  0
    1.4281   -7.1815    4.8720 C   0  0  0  0  0  0  0  0  0  0  0  0
    2.8027   -9.1009    6.7003 H   0  0  0  0  0  0  0  0  0  0  0  0
    1.4906   -9.0506    7.8571 H   0  0  0  0  0  0  0  0  0  0  0  0
    2.3477   -7.5790    7.4737 H   0  0  0  0  0  0  0  0  0  0  0  0
    0.1366   -7.7233    6.4549 H   0  0  0  0  0  0  0  0  0  0  0  0
    0.4914  -10.3370    6.0552 H   0  0  0  0  0  0  0  0  0  0  0  0
   -0.7535   -9.4056    5.3664 H   0  0  0  0  0  0  0  0  0  0  0  0
    1.7747  -10.4501    4.1084 H   0  0  0  0  0  0  0  0  0  0  0  0
    0.1496  -10.7166    3.5741 H   0  0  0  0  0  0  0  0  0  0  0  0
    1.4517   -9.2335    2.0770 H   0  0  0  0  0  0  0  0  0  0  0  0
   -0.7409   -9.0438    1.6986 H   0  0  0  0  0  0  0  0  0  0  0  0
   -1.2694   -7.2639    4.1073 H   0  0  0  0  0  0  0  0  0  0  0  0
   -1.9561   -8.8444    3.7123 H   0  0  0  0  0  0  0  0  0  0  0  0
   -2.3480   -7.4589    2.7453 H   0  0  0  0  0  0  0  0  0  0  0  0
    0.5133   -7.3709    0.5661 H   0  0  0  0  0  0  0  0  0  0  0  0
   -0.9521   -6.6002    1.0947 H   0  0  0  0  0  0  0  0  0  0  0  0
    2.4420   -5.6175    3.0244 H   0  0  0  0  0  0  0  0  0  0  0  0
    5.7882   -6.5051    0.1493 H   0  0  0  0  0  0  0  0  0  0  0  0
    4.2608   -6.5897   -0.6807 H   0  0  0  0  0  0  0  0  0  0  0  0
    6.5162   -4.4644    1.3482 H   0  0  0  0  0  0  0  0  0  0  0  0
    6.3630   -1.9859    1.4351 H   0  0  0  0  0  0  0  0  0  0  0  0
    4.4047   -0.8263    0.4174 H   0  0  0  0  0  0  0  0  0  0  0  0
    2.6184   -2.1444   -0.6970 H   0  0  0  0  0  0  0  0  0  0  0  0
    2.7657   -4.6203   -0.7682 H   0  0  0  0  0  0  0  0  0  0  0  0
    3.5818   -8.8701    0.5621 H   0  0  0  0  0  0  0  0  0  0  0  0
    5.2769   -8.7241    0.9395 H   0  0  0  0  0  0  0  0  0  0  0  0
    3.3712  -10.0471    2.4561 H   0  0  0  0  0  0  0  0  0  0  0  0
    6.1083   -9.1379    3.3735 H   0  0  0  0  0  0  0  0  0  0  0  0
    5.7212  -10.5963    2.4609 H   0  0  0  0  0  0  0  0  0  0  0  0
    5.1354  -10.4128    4.1005 H   0  0  0  0  0  0  0  0  0  0  0  0
    3.4194   -8.8140    4.6181 H   0  0  0  0  0  0  0  0  0  0  0  0
    0.6170   -6.4755    4.6999 H   0  0  0  0  0  0  0  0  0  0  0  0
    2.1973   -6.5566    5.3236 H   0  0  0  0  0  0  0  0  0  0  0  0
  1  2  1  0
  1 28  1  0
  1 29  1  0
  1 30  1  0
  2 27  1  0
  2  3  1  0
  2 31  1  1
  3  4  1  0
  3 32  1  0
  3 33  1  0
  4  5  1  0
  4 34  1  0
  4 35  1  0
  5 26  1  0
  5  6  1  0
  5 36  1  6
  6  7  1  0
  6  8  1  0
  6 37  1  6
  7 38  1  0
  7 39  1  0
  7 40  1  0
  8  9  1  0
  8 41  1  0
  8 42  1  0
  9 10  1  0
 10 26  1  0
 10 11  1  0
 10 43  1  1
 11 12  1  0
 12 25  1  0
 12 13  1  6
 12 20  1  0
 13 14  1  0
 13 44  1  0
 13 45  1  0
 14 19  1  0
 14 15  2  0
 15 16  1  0
 15 46  1  0
 16 17  2  0
 16 47  1  0
 17 18  1  0
 17 48  1  0
 18 19  2  0
 18 49  1  0
 19 50  1  0
 20 21  1  0
 20 51  1  0
 20 52  1  0
 21 22  1  0
 21 23  1  0
 21 53  1  6
 22 54  1  0
 22 55  1  0
 22 56  1  0
 23 24  1  0
 23 26  1  0
 23 57  1  1
 24 25  1  0
 26 27  1  1
 27 58  1  0
 27 59  1  0
M  END
>  <i_m_ct_stereo_status>  (302) 
1

>  <s_m_source_file>  (302) 
/var/tmp/pbs.5076255.sched01/tmppj12hgr0/126t4bdxmoi.sdf

>  <i_m_source_file_index>  (302) 
3

>  <i_lp_mmshare_version>  (302) 
48012

>  <i_f3d_flags>  (302) 
0

>  <s_epik_input>  (302) 
W0NIM11bQ0BASF0oW0NIMl0xKVtDSDJdW0NIMl1bQ0BIXShbQ0BdMTIzKVtDQEBIXShbQ0gzXSlbQ0gyXU9bQ0BASF0yT1tDQEBdNChbQ0gyXVtDQEBIXShbQ0gzXSlbQ0BIXTNPTzQpW0NIMl1jNVtjSF1bY0hdW2NIXVtjSF1bY0hdNQ==

>  <s_epik_cmdline>  (302) 
J2VwaWtfcHl0aG9uJywgJy1waHQnLCAnMi4wJywgJy1waCcsICc3LjAnLCAnLXRuJywgJzgnLCAnLW1hJywgJzIwMCcsICctaW1hZScsICc8aW5maWxlLm1hZT4nLCAnLW9tYWUnLCAnPG91dGZpbGUubWFlPic=

>  <r_lp_tautomer_probability>  (302) 
1

>  <r_epik_Ionization_Penalty>  (302) 
1.5616e-13

>  <r_epik_Ionization_Penalty_Charging>  (302) 
0

>  <r_epik_Ionization_Penalty_Neutral>  (302) 
1.5616e-13

>  <r_epik_State_Penalty>  (302) 
-0

>  <r_epik_Charging_Adjusted_Penalty>  (302) 
0

>  <i_epik_Tot_Q>  (302) 
0

>  <i_epik_Tot_abs_Q>  (302) 
0

>  <s_epik_Chemistry_Notes>  (302) 
This compound contains an acetal/aminal-like group ( X-CH(R)-Y where X, Y are N, S, or O) that may be acid/base labile, releasing an aldehyde.

>  <s_lp_Force_Field>  (302) 
OPLS3e

>  <r_lp_Energy>  (302) 
53.389

>  <b_lp_Chiralities_Consistent>  (302) 
1

>  <s_lp_Variant>  (302) 
90:0-1

>  <s_i_glide_gridfile>  (302) 
pfpi4k_grid

>  <i_i_glide_lignum>  (302) 
3

>  <i_i_glide_rotatable_bonds>  (302) 
2

>  <r_i_docking_score>  (302) 
-2.6192

>  <r_i_glide_ligand_efficiency>  (302) 
-0.0970072

>  <r_i_glide_ligand_efficiency_sa>  (302) 
-0.291022

>  <r_i_glide_ligand_efficiency_ln>  (302) 
-0.609706

>  <r_i_glide_gscore>  (302) 
-2.6192

>  <r_i_glide_lipo>  (302) 
-0.288619

>  <r_i_glide_hbond>  (302) 
-0.102102

>  <r_i_glide_metal>  (302) 
-0

>  <r_i_glide_rewards>  (302) 
-0.969675

>  <r_i_glide_evdw>  (302) 
-23.1943

>  <r_i_glide_ecoul>  (302) 
-2.42151

>  <r_i_glide_erotb>  (302) 
0.278402

>  <r_i_glide_esite>  (302) 
-0.0142597

>  <r_i_glide_emodel>  (302) 
-30.0709

>  <r_i_glide_energy>  (302) 
-25.6158

>  <r_i_glide_einternal>  (302) 
0.0303857

>  <r_i_glide_intrahb_reward>  (302) 
-0

>  <i_i_glide_confnum>  (302) 
1

>  <i_i_glide_posenum>  (302) 
19

>  <r_i_glide_eff_state_penalty>  (302) 
0

>  <ligand_id>  (302) 
90

>  <original_smiles>  (302) 
CC1CCC2C(C)COC3OC4(Cc5ccccc5)CC(C)C(OO4)C32C1

>  <smiles>  (302) 
[H]c1c([H])c([H])c(C([H])([H])C23OOC([H])(C([H])(C([H])([H])[H])C2([H])[H])C24C([H])(OC([H])([H])C([H])(C([H])([H])[H])C2([H])C([H])([H])C([H])([H])C([H])(C([H])([H])[H])C4([H])[H])O3)c([H])c1[H]

$$$$
90:0:2
     RDKit          3D

 59 63  0  0  1  0  0  0  0  0999 V2000
    2.0266   -8.2367    7.1022 C   0  0  0  0  0  0  0  0  0  0  0  0
    1.0111   -8.0896    5.9698 C   0  0  2  0  0  0  0  0  0  0  0  0
    0.4498   -9.4325    5.4711 C   0  0  0  0  0  0  0  0  0  0  0  0
    0.9741   -9.9235    4.1056 C   0  0  0  0  0  0  0  0  0  0  0  0
    1.0633   -8.8243    3.0275 C   0  0  1  0  0  0  0  0  0  0  0  0
   -0.2903   -8.3843    2.3938 C   0  0  1  0  0  0  0  0  0  0  0  0
   -1.4845   -8.0719    3.3188 C   0  0  0  0  0  0  0  0  0  0  0  0
   -0.0356   -7.2172    1.4368 C   0  0  0  0  0  0  0  0  0  0  0  0
    0.6092   -6.1889    2.1745 O   0  0  0  0  0  0  0  0  0  0  0  0
    1.9302   -6.4811    2.5289 C   0  0  2  0  0  0  0  0  0  0  0  0
    2.6899   -6.6869    1.3815 O   0  0  0  0  0  0  0  0  0  0  0  0
    4.0961   -6.8744    1.4450 C   0  0  2  0  0  0  0  0  0  0  0  0
    4.6898   -6.1288    0.1952 C   0  0  0  0  0  0  0  0  0  0  0  0
    4.4079   -4.6247    0.1062 C   0  0  0  0  0  0  0  0  0  0  0  0
    3.7938   -3.9126    1.1750 C   0  0  0  0  0  0  0  0  0  0  0  0
    3.4724   -2.5500    1.0513 C   0  0  0  0  0  0  0  0  0  0  0  0
    3.8241   -1.8321   -0.1078 C   0  0  0  0  0  0  0  0  0  0  0  0
    4.4885   -2.5065   -1.1648 C   0  0  0  0  0  0  0  0  0  0  0  0
    4.7619   -3.8963   -1.0553 C   0  0  0  0  0  0  0  0  0  0  0  0
    4.3611   -8.3877    1.3719 C   0  0  0  0  0  0  0  0  0  0  0  0
    4.1651   -9.0410    2.7468 C   0  0  1  0  0  0  0  0  0  0  0  0
    5.4873   -9.5884    3.3139 C   0  0  0  0  0  0  0  0  0  0  0  0
    3.4749   -8.0741    3.7399 C   0  0  1  0  0  0  0  0  0  0  0  0
    4.2642   -6.9067    3.9050 O   0  0  0  0  0  0  0  0  0  0  0  0
    4.7767   -6.3412    2.5745 O   0  0  0  0  0  0  0  0  0  0  0  0
    1.9709   -7.6793    3.5402 C   0  0  2  0  0  0  0  0  0  0  0  0
    1.4025   -7.0807    4.8664 C   0  0  0  0  0  0  0  0  0  0  0  0
    2.9114   -8.7988    6.7977 H   0  0  0  0  0  0  0  0  0  0  0  0
    1.5821   -8.7685    7.9418 H   0  0  0  0  0  0  0  0  0  0  0  0
    2.3481   -7.2686    7.4844 H   0  0  0  0  0  0  0  0  0  0  0  0
    0.1592   -7.6031    6.4769 H   0  0  0  0  0  0  0  0  0  0  0  0
    0.6808  -10.2128    6.2006 H   0  0  0  0  0  0  0  0  0  0  0  0
   -0.6231   -9.3948    5.4720 H   0  0  0  0  0  0  0  0  0  0  0  0
    1.9648  -10.3422    4.2722 H   0  0  0  0  0  0  0  0  0  0  0  0
    0.3573  -10.7478    3.7444 H   0  0  0  0  0  0  0  0  0  0  0  0
    1.5784   -9.2625    2.1758 H   0  0  0  0  0  0  0  0  0  0  0  0
   -0.6293   -9.2253    1.7855 H   0  0  0  0  0  0  0  0  0  0  0  0
   -1.2649   -7.3464    4.1009 H   0  0  0  0  0  0  0  0  0  0  0  0
   -1.8547   -8.9838    3.7829 H   0  0  0  0  0  0  0  0  0  0  0  0
   -2.3192   -7.6726    2.7443 H   0  0  0  0  0  0  0  0  0  0  0  0
    0.5592   -7.5197    0.5763 H   0  0  0  0  0  0  0  0  0  0  0  0
   -0.9675   -6.8253    1.0520 H   0  0  0  0  0  0  0  0  0  0  0  0
    2.2741   -5.6002    3.0498 H   0  0  0  0  0  0  0  0  0  0  0  0
    5.7635   -6.2731    0.1814 H   0  0  0  0  0  0  0  0  0  0  0  0
    4.3045   -6.6141   -0.6989 H   0  0  0  0  0  0  0  0  0  0  0  0
    3.5716   -4.3514    2.1084 H   0  0  0  0  0  0  0  0  0  0  0  0
    2.9646   -2.0666    1.8686 H   0  0  0  0  0  0  0  0  0  0  0  0
    3.5924   -0.7851   -0.1705 H   0  0  0  0  0  0  0  0  0  0  0  0
    4.7717   -1.9584   -2.0425 H   0  0  0  0  0  0  0  0  0  0  0  0
    5.2495   -4.4002   -1.8775 H   0  0  0  0  0  0  0  0  0  0  0  0
    3.7056   -8.8527    0.6412 H   0  0  0  0  0  0  0  0  0  0  0  0
    5.3841   -8.5674    1.0255 H   0  0  0  0  0  0  0  0  0  0  0  0
    3.5461   -9.9373    2.6056 H   0  0  0  0  0  0  0  0  0  0  0  0
    6.2199   -8.7956    3.4781 H   0  0  0  0  0  0  0  0  0  0  0  0
    5.9331  -10.3209    2.6401 H   0  0  0  0  0  0  0  0  0  0  0  0
    5.3263  -10.0925    4.2677 H   0  0  0  0  0  0  0  0  0  0  0  0
    3.5100   -8.5949    4.7123 H   0  0  0  0  0  0  0  0  0  0  0  0
    0.5660   -6.4304    4.6663 H   0  0  0  0  0  0  0  0  0  0  0  0
    2.1450   -6.3882    5.2773 H   0  0  0  0  0  0  0  0  0  0  0  0
  1  2  1  0
  1 28  1  0
  1 29  1  0
  1 30  1  0
  2 27  1  0
  2  3  1  0
  2 31  1  1
  3  4  1  0
  3 32  1  0
  3 33  1  0
  4  5  1  0
  4 34  1  0
  4 35  1  0
  5 26  1  0
  5  6  1  0
  5 36  1  6
  6  7  1  0
  6  8  1  0
  6 37  1  6
  7 38  1  0
  7 39  1  0
  7 40  1  0
  8  9  1  0
  8 41  1  0
  8 42  1  0
  9 10  1  0
 10 26  1  0
 10 11  1  0
 10 43  1  1
 11 12  1  0
 12 25  1  0
 12 13  1  6
 12 20  1  0
 13 14  1  0
 13 44  1  0
 13 45  1  0
 14 19  1  0
 14 15  2  0
 15 16  1  0
 15 46  1  0
 16 17  2  0
 16 47  1  0
 17 18  1  0
 17 48  1  0
 18 19  2  0
 18 49  1  0
 19 50  1  0
 20 21  1  0
 20 51  1  0
 20 52  1  0
 21 22  1  0
 21 23  1  0
 21 53  1  6
 22 54  1  0
 22 55  1  0
 22 56  1  0
 23 24  1  0
 23 26  1  0
 23 57  1  1
 24 25  1  0
 26 27  1  1
 27 58  1  0
 27 59  1  0
M  END
>  <i_m_ct_stereo_status>  (303) 
1

>  <s_m_source_file>  (303) 
/var/tmp/pbs.5076255.sched01/tmppj12hgr0/126t4bdxmoi.sdf

>  <i_m_source_file_index>  (303) 
3

>  <i_lp_mmshare_version>  (303) 
48012

>  <i_f3d_flags>  (303) 
0

>  <s_epik_input>  (303) 
W0NIM11bQ0BASF0oW0NIMl0xKVtDSDJdW0NIMl1bQ0BIXShbQ0BdMTIzKVtDQEBIXShbQ0gzXSlbQ0gyXU9bQ0BASF0yT1tDQEBdNChbQ0gyXVtDQEBIXShbQ0gzXSlbQ0BIXTNPTzQpW0NIMl1jNVtjSF1bY0hdW2NIXVtjSF1bY0hdNQ==

>  <s_epik_cmdline>  (303) 
J2VwaWtfcHl0aG9uJywgJy1waHQnLCAnMi4wJywgJy1waCcsICc3LjAnLCAnLXRuJywgJzgnLCAnLW1hJywgJzIwMCcsICctaW1hZScsICc8aW5maWxlLm1hZT4nLCAnLW9tYWUnLCAnPG91dGZpbGUubWFlPic=

>  <r_lp_tautomer_probability>  (303) 
1

>  <r_epik_Ionization_Penalty>  (303) 
1.5616e-13

>  <r_epik_Ionization_Penalty_Charging>  (303) 
0

>  <r_epik_Ionization_Penalty_Neutral>  (303) 
1.5616e-13

>  <r_epik_State_Penalty>  (303) 
-0

>  <r_epik_Charging_Adjusted_Penalty>  (303) 
0

>  <i_epik_Tot_Q>  (303) 
0

>  <i_epik_Tot_abs_Q>  (303) 
0

>  <s_epik_Chemistry_Notes>  (303) 
This compound contains an acetal/aminal-like group ( X-CH(R)-Y where X, Y are N, S, or O) that may be acid/base labile, releasing an aldehyde.

>  <s_lp_Force_Field>  (303) 
OPLS3e

>  <r_lp_Energy>  (303) 
53.389

>  <b_lp_Chiralities_Consistent>  (303) 
1

>  <s_lp_Variant>  (303) 
90:0-1

>  <s_i_glide_gridfile>  (303) 
pfpi4k_grid

>  <i_i_glide_lignum>  (303) 
3

>  <i_i_glide_rotatable_bonds>  (303) 
2

>  <r_i_docking_score>  (303) 
-2.3672

>  <r_i_glide_ligand_efficiency>  (303) 
-0.0876739

>  <r_i_glide_ligand_efficiency_sa>  (303) 
-0.263022

>  <r_i_glide_ligand_efficiency_ln>  (303) 
-0.551044

>  <r_i_glide_gscore>  (303) 
-2.3672

>  <r_i_glide_lipo>  (303) 
-0.112775

>  <r_i_glide_hbond>  (303) 
-0.106023

>  <r_i_glide_metal>  (303) 
-0

>  <r_i_glide_rewards>  (303) 
-0.966764

>  <r_i_glide_evdw>  (303) 
-23.582

>  <r_i_glide_ecoul>  (303) 
-1.76609

>  <r_i_glide_erotb>  (303) 
0.278402

>  <r_i_glide_esite>  (303) 
-0.0160205

>  <r_i_glide_emodel>  (303) 
-27.1611

>  <r_i_glide_energy>  (303) 
-25.3481

>  <r_i_glide_einternal>  (303) 
3.36918

>  <r_i_glide_intrahb_reward>  (303) 
-0

>  <i_i_glide_confnum>  (303) 
2

>  <i_i_glide_posenum>  (303) 
26

>  <r_i_glide_eff_state_penalty>  (303) 
0

>  <ligand_id>  (303) 
90

>  <original_smiles>  (303) 
CC1CCC2C(C)COC3OC4(Cc5ccccc5)CC(C)C(OO4)C32C1

>  <smiles>  (303) 
[H]c1c([H])c([H])c(C([H])([H])C23OOC([H])(C([H])(C([H])([H])[H])C2([H])[H])C24C([H])(OC([H])([H])C([H])(C([H])([H])[H])C2([H])C([H])([H])C([H])([H])C([H])(C([H])([H])[H])C4([H])[H])O3)c([H])c1[H]

$$$$
91:0:0
     RDKit          3D

 38 40  0  0  1  0  0  0  0  0999 V2000
    3.6466   -0.6016   -3.9381 C   0  0  0  0  0  0  0  0  0  0  0  0
    3.7209   -1.9153   -3.1506 C   0  0  0  0  0  0  0  0  0  0  0  0
    2.6939   -2.9366   -3.6571 C   0  0  0  0  0  0  0  0  0  0  0  0
    5.0117   -2.4513   -3.2753 O   0  0  0  0  0  0  0  0  0  0  0  0
    5.4274   -2.7766   -1.9991 C   0  0  1  0  0  0  0  0  0  0  0  0
    6.7838   -2.6004   -1.7396 O   0  0  0  0  0  0  0  0  0  0  0  0
    7.1190   -3.0347   -0.4073 C   0  0  1  0  0  0  0  0  0  0  0  0
    8.6340   -2.8099   -0.1800 C   0  0  0  0  0  0  0  0  0  0  0  0
    9.4104   -3.8551   -0.7227 O   0  0  0  0  0  0  0  0  0  0  0  0
    6.2720   -2.2886    0.6776 C   0  0  2  0  0  0  0  0  0  0  0  0
    6.1738   -3.1202    1.8214 O   0  0  0  0  0  0  0  0  0  0  0  0
    4.8707   -3.5921    1.8861 C   0  0  0  0  0  0  0  0  0  0  0  0
    4.9049   -5.1134    2.0868 C   0  0  0  0  0  0  0  0  0  0  0  0
    4.1470   -2.8958    3.0572 C   0  0  0  0  0  0  0  0  0  0  0  0
    4.2236   -3.3007    0.6904 O   0  0  0  0  0  0  0  0  0  0  0  0
    4.8065   -2.0796    0.2758 C   0  0  2  0  0  0  0  0  0  0  0  0
    4.7059   -1.7365   -1.2034 C   0  0  2  0  0  0  0  0  0  0  0  0
    3.4449   -1.6530   -1.8088 O   0  0  0  0  0  0  0  0  0  0  0  0
    4.3905    0.1028   -3.5747 H   0  0  0  0  0  0  0  0  0  0  0  0
    2.6615   -0.1484   -3.8184 H   0  0  0  0  0  0  0  0  0  0  0  0
    3.8168   -0.7915   -4.9992 H   0  0  0  0  0  0  0  0  0  0  0  0
    2.7645   -3.8479   -3.0669 H   0  0  0  0  0  0  0  0  0  0  0  0
    2.8750   -3.1654   -4.7122 H   0  0  0  0  0  0  0  0  0  0  0  0
    1.6743   -2.5479   -3.5530 H   0  0  0  0  0  0  0  0  0  0  0  0
    5.0953   -3.7928   -1.7695 H   0  0  0  0  0  0  0  0  0  0  0  0
    6.8944   -4.0984   -0.3298 H   0  0  0  0  0  0  0  0  0  0  0  0
    8.9689   -1.8700   -0.6132 H   0  0  0  0  0  0  0  0  0  0  0  0
    8.8788   -2.7612    0.8810 H   0  0  0  0  0  0  0  0  0  0  0  0
    9.9382   -3.4356   -1.4232 H   0  0  0  0  0  0  0  0  0  0  0  0
    6.7340   -1.3388    0.9303 H   0  0  0  0  0  0  0  0  0  0  0  0
    5.3779   -5.6160    1.2428 H   0  0  0  0  0  0  0  0  0  0  0  0
    3.8915   -5.5012    2.2029 H   0  0  0  0  0  0  0  0  0  0  0  0
    5.4645   -5.3631    2.9908 H   0  0  0  0  0  0  0  0  0  0  0  0
    4.1686   -1.8075    2.9782 H   0  0  0  0  0  0  0  0  0  0  0  0
    4.6163   -3.1672    4.0052 H   0  0  0  0  0  0  0  0  0  0  0  0
    3.1043   -3.2154    3.0817 H   0  0  0  0  0  0  0  0  0  0  0  0
    4.3681   -1.2538    0.8283 H   0  0  0  0  0  0  0  0  0  0  0  0
    5.2034   -0.7794   -1.3694 H   0  0  0  0  0  0  0  0  0  0  0  0
  1  2  1  0
  1 19  1  0
  1 20  1  0
  1 21  1  0
  2 18  1  0
  2  3  1  0
  2  4  1  0
  3 22  1  0
  3 23  1  0
  3 24  1  0
  4  5  1  0
  5 17  1  0
  5  6  1  0
  5 25  1  1
  6  7  1  0
  7  8  1  0
  7 10  1  0
  7 26  1  6
  8  9  1  0
  8 27  1  0
  8 28  1  0
  9 29  1  0
 10 16  1  0
 10 11  1  0
 10 30  1  1
 11 12  1  0
 12 13  1  0
 12 14  1  0
 12 15  1  0
 13 31  1  0
 13 32  1  0
 13 33  1  0
 14 34  1  0
 14 35  1  0
 14 36  1  0
 15 16  1  0
 16 17  1  0
 16 37  1  1
 17 18  1  0
 17 38  1  1
M  END
>  <i_m_ct_stereo_status>  (304) 
1

>  <s_m_source_file>  (304) 
/var/tmp/pbs.5076255.sched01/tmppj12hgr0/126t4bdxmoi.sdf

>  <i_m_source_file_index>  (304) 
4

>  <i_lp_mmshare_version>  (304) 
48012

>  <i_f3d_flags>  (304) 
0

>  <s_epik_input>  (304) 
W0NIM11DKE8xKShbQ0gzXSlPW0NASF0oW0NAQEhdMTIpW0NAQEhdM1tDQEhdKFtDQEBIXShPMilbQ0gyXVtPSF0pT0MoTzMpKFtDSDNdKVtDSDNd

>  <s_epik_cmdline>  (304) 
J2VwaWtfcHl0aG9uJywgJy1waHQnLCAnMi4wJywgJy1waCcsICc3LjAnLCAnLXRuJywgJzgnLCAnLW1hJywgJzIwMCcsICctaW1hZScsICc8aW5maWxlLm1hZT4nLCAnLW9tYWUnLCAnPG91dGZpbGUubWFlPic=

>  <r_lp_tautomer_probability>  (304) 
1

>  <r_epik_Ionization_Penalty>  (304) 
6.64541e-08

>  <r_epik_Ionization_Penalty_Charging>  (304) 
0

>  <r_epik_Ionization_Penalty_Neutral>  (304) 
6.64541e-08

>  <r_epik_State_Penalty>  (304) 
-0

>  <r_epik_Charging_Adjusted_Penalty>  (304) 
0

>  <i_epik_Tot_Q>  (304) 
0

>  <i_epik_Tot_abs_Q>  (304) 
0

>  <s_epik_Chemistry_Notes>  (304) 
This compound contains an acetal/aminal-like group ( X-CH(R)-Y where X, Y are N, S, or O) that may be acid/base labile, releasing an aldehyde.

>  <s_lp_Force_Field>  (304) 
OPLS3e

>  <r_lp_Energy>  (304) 
6.48345

>  <b_lp_Chiralities_Consistent>  (304) 
1

>  <s_lp_Variant>  (304) 
91:0-1

>  <s_i_glide_gridfile>  (304) 
pfpi4k_grid

>  <i_i_glide_lignum>  (304) 
4

>  <i_i_glide_rotatable_bonds>  (304) 
2

>  <r_i_docking_score>  (304) 
-4.41644

>  <r_i_glide_ligand_efficiency>  (304) 
-0.245358

>  <r_i_glide_ligand_efficiency_sa>  (304) 
-0.643019

>  <r_i_glide_ligand_efficiency_ln>  (304) 
-1.13522

>  <r_i_glide_gscore>  (304) 
-4.41644

>  <r_i_glide_lipo>  (304) 
-0.657229

>  <r_i_glide_hbond>  (304) 
-0.0888772

>  <r_i_glide_metal>  (304) 
-0

>  <r_i_glide_rewards>  (304) 
-1.88163

>  <r_i_glide_evdw>  (304) 
-17.4547

>  <r_i_glide_ecoul>  (304) 
-7.32569

>  <r_i_glide_erotb>  (304) 
0.182883

>  <r_i_glide_esite>  (304) 
0

>  <r_i_glide_emodel>  (304) 
-30.9031

>  <r_i_glide_energy>  (304) 
-24.7803

>  <r_i_glide_einternal>  (304) 
1.9724

>  <r_i_glide_intrahb_reward>  (304) 
-0

>  <i_i_glide_confnum>  (304) 
3

>  <i_i_glide_posenum>  (304) 
16

>  <r_i_glide_eff_state_penalty>  (304) 
0

>  <ligand_id>  (304) 
91

>  <original_smiles>  (304) 
CC1(C)OC2OC(CO)C3OC(C)(C)OC3C2O1

>  <smiles>  (304) 
[H]OC([H])([H])C1([H])OC2([H])OC(C([H])([H])[H])(C([H])([H])[H])OC2([H])C2([H])OC(C([H])([H])[H])(C([H])([H])[H])OC12[H]

$$$$
91:0:1
     RDKit          3D

 38 40  0  0  1  0  0  0  0  0999 V2000
    3.6308   -0.5171   -3.6558 C   0  0  0  0  0  0  0  0  0  0  0  0
    3.7069   -1.9126   -3.0170 C   0  0  0  0  0  0  0  0  0  0  0  0
    2.7044   -2.8926   -3.6406 C   0  0  0  0  0  0  0  0  0  0  0  0
    5.0086   -2.4199   -3.1933 O   0  0  0  0  0  0  0  0  0  0  0  0
    5.4209   -2.8829   -1.9565 C   0  0  1  0  0  0  0  0  0  0  0  0
    6.7779   -2.7162   -1.6793 O   0  0  0  0  0  0  0  0  0  0  0  0
    7.1194   -3.1965   -0.3676 C   0  0  1  0  0  0  0  0  0  0  0  0
    8.6366   -3.0256   -0.1573 C   0  0  0  0  0  0  0  0  0  0  0  0
    8.9777   -1.6712    0.0902 O   0  0  0  0  0  0  0  0  0  0  0  0
    6.2333   -2.6304    0.7912 C   0  0  2  0  0  0  0  0  0  0  0  0
    6.1440   -3.6155    1.8044 O   0  0  0  0  0  0  0  0  0  0  0  0
    4.8478   -4.1177    1.8184 C   0  0  0  0  0  0  0  0  0  0  0  0
    4.9058   -5.6550    1.8490 C   0  0  0  0  0  0  0  0  0  0  0  0
    4.1097   -3.5681    3.0589 C   0  0  0  0  0  0  0  0  0  0  0  0
    4.2041   -3.7006    0.6602 O   0  0  0  0  0  0  0  0  0  0  0  0
    4.7636   -2.4293    0.3934 C   0  0  2  0  0  0  0  0  0  0  0  0
    4.6860   -1.9426   -1.0522 C   0  0  2  0  0  0  0  0  0  0  0  0
    3.4296   -1.8069   -1.6534 O   0  0  0  0  0  0  0  0  0  0  0  0
    4.3701    0.1455   -3.2069 H   0  0  0  0  0  0  0  0  0  0  0  0
    2.6420   -0.0936   -3.4886 H   0  0  0  0  0  0  0  0  0  0  0  0
    3.8171   -0.5800   -4.7279 H   0  0  0  0  0  0  0  0  0  0  0  0
    2.7961   -3.8583   -3.1558 H   0  0  0  0  0  0  0  0  0  0  0  0
    2.8978   -3.0063   -4.7088 H   0  0  0  0  0  0  0  0  0  0  0  0
    1.6883   -2.5291   -3.4955 H   0  0  0  0  0  0  0  0  0  0  0  0
    5.0946   -3.9212   -1.8391 H   0  0  0  0  0  0  0  0  0  0  0  0
    6.9322   -4.2711   -0.4093 H   0  0  0  0  0  0  0  0  0  0  0  0
    8.9690   -3.6152    0.7002 H   0  0  0  0  0  0  0  0  0  0  0  0
    9.1882   -3.4140   -1.0147 H   0  0  0  0  0  0  0  0  0  0  0  0
    9.8113   -1.4698   -0.3422 H   0  0  0  0  0  0  0  0  0  0  0  0
    6.6317   -1.7046    1.2091 H   0  0  0  0  0  0  0  0  0  0  0  0
    5.3959   -6.0317    0.9558 H   0  0  0  0  0  0  0  0  0  0  0  0
    3.8997   -6.0733    1.8986 H   0  0  0  0  0  0  0  0  0  0  0  0
    5.4717   -5.9914    2.7186 H   0  0  0  0  0  0  0  0  0  0  0  0
    4.1295   -2.4793    3.0794 H   0  0  0  0  0  0  0  0  0  0  0  0
    4.5791   -3.9354    3.9717 H   0  0  0  0  0  0  0  0  0  0  0  0
    3.0700   -3.8937    3.0502 H   0  0  0  0  0  0  0  0  0  0  0  0
    4.2878   -1.6888    1.0375 H   0  0  0  0  0  0  0  0  0  0  0  0
    5.1773   -0.9688   -1.1145 H   0  0  0  0  0  0  0  0  0  0  0  0
  1  2  1  0
  1 19  1  0
  1 20  1  0
  1 21  1  0
  2 18  1  0
  2  3  1  0
  2  4  1  0
  3 22  1  0
  3 23  1  0
  3 24  1  0
  4  5  1  0
  5 17  1  0
  5  6  1  0
  5 25  1  1
  6  7  1  0
  7  8  1  0
  7 10  1  0
  7 26  1  6
  8  9  1  0
  8 27  1  0
  8 28  1  0
  9 29  1  0
 10 16  1  0
 10 11  1  0
 10 30  1  1
 11 12  1  0
 12 13  1  0
 12 14  1  0
 12 15  1  0
 13 31  1  0
 13 32  1  0
 13 33  1  0
 14 34  1  0
 14 35  1  0
 14 36  1  0
 15 16  1  0
 16 17  1  0
 16 37  1  1
 17 18  1  0
 17 38  1  1
M  END
>  <i_m_ct_stereo_status>  (305) 
1

>  <s_m_source_file>  (305) 
/var/tmp/pbs.5076255.sched01/tmppj12hgr0/126t4bdxmoi.sdf

>  <i_m_source_file_index>  (305) 
4

>  <i_lp_mmshare_version>  (305) 
48012

>  <i_f3d_flags>  (305) 
0

>  <s_epik_input>  (305) 
W0NIM11DKE8xKShbQ0gzXSlPW0NASF0oW0NAQEhdMTIpW0NAQEhdM1tDQEhdKFtDQEBIXShPMilbQ0gyXVtPSF0pT0MoTzMpKFtDSDNdKVtDSDNd

>  <s_epik_cmdline>  (305) 
J2VwaWtfcHl0aG9uJywgJy1waHQnLCAnMi4wJywgJy1waCcsICc3LjAnLCAnLXRuJywgJzgnLCAnLW1hJywgJzIwMCcsICctaW1hZScsICc8aW5maWxlLm1hZT4nLCAnLW9tYWUnLCAnPG91dGZpbGUubWFlPic=

>  <r_lp_tautomer_probability>  (305) 
1

>  <r_epik_Ionization_Penalty>  (305) 
6.64541e-08

>  <r_epik_Ionization_Penalty_Charging>  (305) 
0

>  <r_epik_Ionization_Penalty_Neutral>  (305) 
6.64541e-08

>  <r_epik_State_Penalty>  (305) 
-0

>  <r_epik_Charging_Adjusted_Penalty>  (305) 
0

>  <i_epik_Tot_Q>  (305) 
0

>  <i_epik_Tot_abs_Q>  (305) 
0

>  <s_epik_Chemistry_Notes>  (305) 
This compound contains an acetal/aminal-like group ( X-CH(R)-Y where X, Y are N, S, or O) that may be acid/base labile, releasing an aldehyde.

>  <s_lp_Force_Field>  (305) 
OPLS3e

>  <r_lp_Energy>  (305) 
6.48345

>  <b_lp_Chiralities_Consistent>  (305) 
1

>  <s_lp_Variant>  (305) 
91:0-1

>  <s_i_glide_gridfile>  (305) 
pfpi4k_grid

>  <i_i_glide_lignum>  (305) 
4

>  <i_i_glide_rotatable_bonds>  (305) 
2

>  <r_i_docking_score>  (305) 
-4.11387

>  <r_i_glide_ligand_efficiency>  (305) 
-0.228548

>  <r_i_glide_ligand_efficiency_sa>  (305) 
-0.598966

>  <r_i_glide_ligand_efficiency_ln>  (305) 
-1.05745

>  <r_i_glide_gscore>  (305) 
-4.11387

>  <r_i_glide_lipo>  (305) 
-0.742562

>  <r_i_glide_hbond>  (305) 
-0.0461488

>  <r_i_glide_metal>  (305) 
-0

>  <r_i_glide_rewards>  (305) 
-1.83691

>  <r_i_glide_evdw>  (305) 
-18.8493

>  <r_i_glide_ecoul>  (305) 
-4.85775

>  <r_i_glide_erotb>  (305) 
0.182883

>  <r_i_glide_esite>  (305) 
0

>  <r_i_glide_emodel>  (305) 
-28.4701

>  <r_i_glide_energy>  (305) 
-23.7071

>  <r_i_glide_einternal>  (305) 
3.42414

>  <r_i_glide_intrahb_reward>  (305) 
-0

>  <i_i_glide_confnum>  (305) 
2

>  <i_i_glide_posenum>  (305) 
1

>  <r_i_glide_eff_state_penalty>  (305) 
0

>  <ligand_id>  (305) 
91

>  <original_smiles>  (305) 
CC1(C)OC2OC(CO)C3OC(C)(C)OC3C2O1

>  <smiles>  (305) 
[H]OC([H])([H])C1([H])OC2([H])OC(C([H])([H])[H])(C([H])([H])[H])OC2([H])C2([H])OC(C([H])([H])[H])(C([H])([H])[H])OC12[H]

$$$$
91:0:2
     RDKit          3D

 38 40  0  0  1  0  0  0  0  0999 V2000
    3.1485   -4.5106    3.4298 C   0  0  0  0  0  0  0  0  0  0  0  0
    3.2229   -3.2712    2.5269 C   0  0  0  0  0  0  0  0  0  0  0  0
    2.4011   -2.1000    3.0855 C   0  0  0  0  0  0  0  0  0  0  0  0
    4.5668   -2.8820    2.4062 O   0  0  0  0  0  0  0  0  0  0  0  0
    4.8013   -2.6942    1.0611 C   0  0  1  0  0  0  0  0  0  0  0  0
    6.0742   -3.0322    0.6187 O   0  0  0  0  0  0  0  0  0  0  0  0
    6.2462   -2.7670   -0.7862 C   0  0  1  0  0  0  0  0  0  0  0  0
    7.6664   -3.1999   -1.1925 C   0  0  0  0  0  0  0  0  0  0  0  0
    8.6103   -2.2549   -0.7645 O   0  0  0  0  0  0  0  0  0  0  0  0
    5.1602   -3.4701   -1.6639 C   0  0  2  0  0  0  0  0  0  0  0  0
    4.9738   -2.7118   -2.8542 O   0  0  0  0  0  0  0  0  0  0  0  0
    3.7299   -2.0950   -2.7523 C   0  0  0  0  0  0  0  0  0  0  0  0
    3.8875   -0.6039   -3.0897 C   0  0  0  0  0  0  0  0  0  0  0  0
    2.7536   -2.7895   -3.7191 C   0  0  0  0  0  0  0  0  0  0  0  0
    3.2805   -2.2107   -1.4477 O   0  0  0  0  0  0  0  0  0  0  0  0
    3.7651   -3.4656   -1.0243 C   0  0  2  0  0  0  0  0  0  0  0  0
    3.8635   -3.6976    0.4729 C   0  0  2  0  0  0  0  0  0  0  0  0
    2.7111   -3.5993    1.2644 O   0  0  0  0  0  0  0  0  0  0  0  0
    3.7590   -5.3142    3.0282 H   0  0  0  0  0  0  0  0  0  0  0  0
    2.1193   -4.8641    3.5039 H   0  0  0  0  0  0  0  0  0  0  0  0
    3.5083   -4.2681    4.4332 H   0  0  0  0  0  0  0  0  0  0  0  0
    2.4800   -1.2317    2.4372 H   0  0  0  0  0  0  0  0  0  0  0  0
    2.7661   -1.8271    4.0773 H   0  0  0  0  0  0  0  0  0  0  0  0
    1.3463   -2.3754    3.1667 H   0  0  0  0  0  0  0  0  0  0  0  0
    4.5333   -1.6623    0.7996 H   0  0  0  0  0  0  0  0  0  0  0  0
    6.1335   -1.6920   -0.9266 H   0  0  0  0  0  0  0  0  0  0  0  0
    7.9181   -4.1688   -0.7748 H   0  0  0  0  0  0  0  0  0  0  0  0
    7.7485   -3.2911   -2.2763 H   0  0  0  0  0  0  0  0  0  0  0  0
    9.4636   -2.4085   -1.1717 H   0  0  0  0  0  0  0  0  0  0  0  0
    5.4441   -4.4919   -1.9037 H   0  0  0  0  0  0  0  0  0  0  0  0
    4.5324   -0.1083   -2.3681 H   0  0  0  0  0  0  0  0  0  0  0  0
    2.9078   -0.1184   -3.0736 H   0  0  0  0  0  0  0  0  0  0  0  0
    4.3099   -0.4756   -4.0872 H   0  0  0  0  0  0  0  0  0  0  0  0
    2.6766   -3.8625   -3.5565 H   0  0  0  0  0  0  0  0  0  0  0  0
    3.0924   -2.6363   -4.7328 H   0  0  0  0  0  0  0  0  0  0  0  0
    1.7619   -2.3513   -3.6201 H   0  0  0  0  0  0  0  0  0  0  0  0
    3.1351   -4.2529   -1.4397 H   0  0  0  0  0  0  0  0  0  0  0  0
    4.2849   -4.6917    0.6481 H   0  0  0  0  0  0  0  0  0  0  0  0
  1  2  1  0
  1 19  1  0
  1 20  1  0
  1 21  1  0
  2 18  1  0
  2  3  1  0
  2  4  1  0
  3 22  1  0
  3 23  1  0
  3 24  1  0
  4  5  1  0
  5 17  1  0
  5  6  1  0
  5 25  1  6
  6  7  1  0
  7  8  1  0
  7 10  1  0
  7 26  1  1
  8  9  1  0
  8 27  1  0
  8 28  1  0
  9 29  1  0
 10 16  1  0
 10 11  1  0
 10 30  1  6
 11 12  1  0
 12 13  1  0
 12 14  1  0
 12 15  1  0
 13 31  1  0
 13 32  1  0
 13 33  1  0
 14 34  1  0
 14 35  1  0
 14 36  1  0
 15 16  1  0
 16 17  1  0
 16 37  1  6
 17 18  1  0
 17 38  1  6
M  END
>  <i_m_ct_stereo_status>  (306) 
1

>  <s_m_source_file>  (306) 
/var/tmp/pbs.5076255.sched01/tmppj12hgr0/126t4bdxmoi.sdf

>  <i_m_source_file_index>  (306) 
4

>  <i_lp_mmshare_version>  (306) 
48012

>  <i_f3d_flags>  (306) 
0

>  <s_epik_input>  (306) 
W0NIM11DKE8xKShbQ0gzXSlPW0NASF0oW0NAQEhdMTIpW0NAQEhdM1tDQEhdKFtDQEBIXShPMilbQ0gyXVtPSF0pT0MoTzMpKFtDSDNdKVtDSDNd

>  <s_epik_cmdline>  (306) 
J2VwaWtfcHl0aG9uJywgJy1waHQnLCAnMi4wJywgJy1waCcsICc3LjAnLCAnLXRuJywgJzgnLCAnLW1hJywgJzIwMCcsICctaW1hZScsICc8aW5maWxlLm1hZT4nLCAnLW9tYWUnLCAnPG91dGZpbGUubWFlPic=

>  <r_lp_tautomer_probability>  (306) 
1

>  <r_epik_Ionization_Penalty>  (306) 
6.64541e-08

>  <r_epik_Ionization_Penalty_Charging>  (306) 
0

>  <r_epik_Ionization_Penalty_Neutral>  (306) 
6.64541e-08

>  <r_epik_State_Penalty>  (306) 
-0

>  <r_epik_Charging_Adjusted_Penalty>  (306) 
0

>  <i_epik_Tot_Q>  (306) 
0

>  <i_epik_Tot_abs_Q>  (306) 
0

>  <s_epik_Chemistry_Notes>  (306) 
This compound contains an acetal/aminal-like group ( X-CH(R)-Y where X, Y are N, S, or O) that may be acid/base labile, releasing an aldehyde.

>  <s_lp_Force_Field>  (306) 
OPLS3e

>  <r_lp_Energy>  (306) 
6.48345

>  <b_lp_Chiralities_Consistent>  (306) 
1

>  <s_lp_Variant>  (306) 
91:0-1

>  <s_i_glide_gridfile>  (306) 
pfpi4k_grid

>  <i_i_glide_lignum>  (306) 
4

>  <i_i_glide_rotatable_bonds>  (306) 
2

>  <r_i_docking_score>  (306) 
-3.51386

>  <r_i_glide_ligand_efficiency>  (306) 
-0.195215

>  <r_i_glide_ligand_efficiency_sa>  (306) 
-0.511607

>  <r_i_glide_ligand_efficiency_ln>  (306) 
-0.90322

>  <r_i_glide_gscore>  (306) 
-3.51386

>  <r_i_glide_lipo>  (306) 
-0.469871

>  <r_i_glide_hbond>  (306) 
0

>  <r_i_glide_metal>  (306) 
-0

>  <r_i_glide_rewards>  (306) 
-1.67135

>  <r_i_glide_evdw>  (306) 
-18.0948

>  <r_i_glide_ecoul>  (306) 
-4.33854

>  <r_i_glide_erotb>  (306) 
0.182883

>  <r_i_glide_esite>  (306) 
0

>  <r_i_glide_emodel>  (306) 
-27.484

>  <r_i_glide_energy>  (306) 
-22.4333

>  <r_i_glide_einternal>  (306) 
1.08602

>  <r_i_glide_intrahb_reward>  (306) 
-0

>  <i_i_glide_confnum>  (306) 
3

>  <i_i_glide_posenum>  (306) 
2

>  <r_i_glide_eff_state_penalty>  (306) 
0

>  <ligand_id>  (306) 
91

>  <original_smiles>  (306) 
CC1(C)OC2OC(CO)C3OC(C)(C)OC3C2O1

>  <smiles>  (306) 
[H]OC([H])([H])C1([H])OC2([H])OC(C([H])([H])[H])(C([H])([H])[H])OC2([H])C2([H])OC(C([H])([H])[H])(C([H])([H])[H])OC12[H]

$$$$
92:0:0
     RDKit          3D

 50 54  0  0  1  0  0  0  0  0999 V2000
    5.0769   -2.3750   -1.7622 C   0  0  0  0  0  0  0  0  0  0  0  0
    5.6419   -3.2504   -0.6456 C   0  0  0  0  0  0  0  0  0  0  0  0
    4.9084   -4.0726    0.1566 C   0  0  0  0  0  0  0  0  0  0  0  0
    3.4576   -4.0750    0.0437 C   0  0  0  0  0  0  0  0  0  0  0  0
    2.6952   -5.0509    0.5595 C   0  0  0  0  0  0  0  0  0  0  0  0
    3.2318   -6.2975    1.2381 C   0  0  1  0  0  0  0  0  0  0  0  0
    4.7891   -6.3715    1.2499 C   0  0  2  0  0  0  0  0  0  0  0  0
    5.3581   -7.4110    2.2589 C   0  0  0  0  0  0  0  0  0  0  0  0
    4.3712   -8.4921    2.7646 C   0  0  0  0  0  0  0  0  0  0  0  0
    3.0272   -7.9364    3.2702 C   0  0  2  0  0  0  0  0  0  0  0  0
    1.9402   -8.9656    3.1457 C   0  0  0  0  0  0  0  0  0  0  0  0
    1.9939  -10.1470    3.4750 O   0  0  0  0  0  0  0  0  0  0  0  0
    0.8304   -8.4018    2.6073 O   0  0  0  0  0  0  0  0  0  0  0  0
    1.0388   -7.1044    2.2753 C   0  0  0  0  0  0  0  0  0  0  0  0
    0.1368   -6.3678    1.8747 O   0  0  0  0  0  0  0  0  0  0  0  0
    2.4861   -6.7504    2.5259 C   0  0  2  0  0  0  0  0  0  0  0  0
    2.6117   -5.8847    3.6942 O   0  0  0  0  0  0  0  0  0  0  0  0
    2.9516   -7.0239    4.5322 C   0  0  0  0  0  0  0  0  0  0  0  0
    1.8158   -7.2083    5.5585 C   0  0  0  0  0  0  0  0  0  0  0  0
    4.2268   -6.7263    5.3326 C   0  0  0  0  0  0  0  0  0  0  0  0
    5.5282   -4.9769    1.2411 C   0  0  2  0  0  0  0  0  0  0  0  0
    5.3934   -4.2377    2.5953 C   0  0  0  0  0  0  0  0  0  0  0  0
    7.0350   -5.2049    0.9377 C   0  0  0  0  0  0  0  0  0  0  0  0
    7.7897   -3.9061    0.6431 C   0  0  0  0  0  0  0  0  0  0  0  0
    7.1029   -3.0935   -0.4462 C   0  0  0  0  0  0  0  0  0  0  0  0
    7.7838   -2.2950   -1.0890 O   0  0  0  0  0  0  0  0  0  0  0  0
    5.7302   -2.4000   -2.6341 H   0  0  0  0  0  0  0  0  0  0  0  0
    4.9923   -1.3392   -1.4326 H   0  0  0  0  0  0  0  0  0  0  0  0
    4.1039   -2.7068   -2.1189 H   0  0  0  0  0  0  0  0  0  0  0  0
    2.9458   -3.2476   -0.4244 H   0  0  0  0  0  0  0  0  0  0  0  0
    1.6306   -4.9985    0.4153 H   0  0  0  0  0  0  0  0  0  0  0  0
    2.9681   -7.0487    0.4982 H   0  0  0  0  0  0  0  0  0  0  0  0
    5.0187   -6.7955    0.2690 H   0  0  0  0  0  0  0  0  0  0  0  0
    6.2010   -7.9194    1.7896 H   0  0  0  0  0  0  0  0  0  0  0  0
    5.8087   -6.9057    3.1051 H   0  0  0  0  0  0  0  0  0  0  0  0
    4.2115   -9.2151    1.9601 H   0  0  0  0  0  0  0  0  0  0  0  0
    4.8544   -9.0605    3.5590 H   0  0  0  0  0  0  0  0  0  0  0  0
    1.9697   -8.1067    6.1570 H   0  0  0  0  0  0  0  0  0  0  0  0
    0.8282   -7.2850    5.1033 H   0  0  0  0  0  0  0  0  0  0  0  0
    1.7612   -6.3662    6.2499 H   0  0  0  0  0  0  0  0  0  0  0  0
    4.7432   -7.6474    5.6045 H   0  0  0  0  0  0  0  0  0  0  0  0
    4.0177   -6.1899    6.2599 H   0  0  0  0  0  0  0  0  0  0  0  0
    4.9201   -6.0917    4.7906 H   0  0  0  0  0  0  0  0  0  0  0  0
    5.9765   -4.7059    3.3854 H   0  0  0  0  0  0  0  0  0  0  0  0
    4.3589   -4.1796    2.9307 H   0  0  0  0  0  0  0  0  0  0  0  0
    5.7532   -3.2113    2.5257 H   0  0  0  0  0  0  0  0  0  0  0  0
    7.5254   -5.7129    1.7694 H   0  0  0  0  0  0  0  0  0  0  0  0
    7.1436   -5.8688    0.0787 H   0  0  0  0  0  0  0  0  0  0  0  0
    7.8416   -3.2924    1.5385 H   0  0  0  0  0  0  0  0  0  0  0  0
    8.8146   -4.1206    0.3411 H   0  0  0  0  0  0  0  0  0  0  0  0
  1  2  1  0
  1 27  1  0
  1 28  1  0
  1 29  1  0
  2 25  1  0
  2  3  2  0
  3 21  1  0
  3  4  1  0
  4  5  2  0
  4 30  1  0
  5  6  1  0
  5 31  1  0
  6 16  1  0
  6  7  1  0
  6 32  1  6
  7  8  1  0
  7 21  1  0
  7 33  1  6
  8  9  1  0
  8 34  1  0
  8 35  1  0
 10  9  1  6
  9 36  1  0
  9 37  1  0
 10 16  1  0
 10 18  1  0
 10 11  1  0
 11 12  2  0
 11 13  1  0
 13 14  1  0
 14 15  2  0
 14 16  1  0
 16 17  1  1
 17 18  1  0
 18 19  1  0
 18 20  1  0
 19 38  1  0
 19 39  1  0
 19 40  1  0
 20 41  1  0
 20 42  1  0
 20 43  1  0
 21 22  1  1
 21 23  1  0
 22 44  1  0
 22 45  1  0
 22 46  1  0
 23 24  1  0
 23 47  1  0
 23 48  1  0
 24 25  1  0
 24 49  1  0
 24 50  1  0
 25 26  2  0
M  END
>  <i_m_ct_stereo_status>  (307) 
1

>  <s_m_source_file>  (307) 
/var/tmp/pbs.5076255.sched01/tmppj12hgr0/126t4bdxmoi.sdf

>  <i_m_source_file_index>  (307) 
5

>  <i_lp_mmshare_version>  (307) 
48012

>  <i_f3d_flags>  (307) 
0

>  <s_epik_input>  (307) 
W0NIMl0xW0NIMl1DKD1PKUMoW0NIM10pPUMoW0NIXT1bQ0hdMilbQ0BAXTEoW0NIM10pW0NAQEhdKFtDSDJdW0NIMl0zKVtDQEhdMltDQF0oW0NAXTM0NSkoQyg9TylPQzQ9TylPQzUoW0NIM10pW0NIM10=

>  <s_epik_cmdline>  (307) 
J2VwaWtfcHl0aG9uJywgJy1waHQnLCAnMi4wJywgJy1waCcsICc3LjAnLCAnLXRuJywgJzgnLCAnLW1hJywgJzIwMCcsICctaW1hZScsICc8aW5maWxlLm1hZT4nLCAnLW9tYWUnLCAnPG91dGZpbGUubWFlPic=

>  <r_lp_tautomer_probability>  (307) 
1

>  <r_epik_Ionization_Penalty>  (307) 
0

>  <r_epik_Ionization_Penalty_Charging>  (307) 
0

>  <r_epik_Ionization_Penalty_Neutral>  (307) 
0

>  <r_epik_State_Penalty>  (307) 
-0

>  <r_epik_Charging_Adjusted_Penalty>  (307) 
0

>  <i_epik_Tot_Q>  (307) 
0

>  <i_epik_Tot_abs_Q>  (307) 
0

>  <s_lp_Force_Field>  (307) 
OPLS3e

>  <r_lp_Energy>  (307) 
26.974

>  <b_lp_Chiralities_Consistent>  (307) 
1

>  <s_lp_Variant>  (307) 
92:0-1

>  <s_i_glide_gridfile>  (307) 
pfpi4k_grid

>  <i_i_glide_lignum>  (307) 
5

>  <i_i_glide_rotatable_bonds>  (307) 
0

>  <r_i_docking_score>  (307) 
-3.79004

>  <r_i_glide_ligand_efficiency>  (307) 
-0.145771

>  <r_i_glide_ligand_efficiency_sa>  (307) 
-0.431845

>  <r_i_glide_ligand_efficiency_ln>  (307) 
-0.890078

>  <r_i_glide_gscore>  (307) 
-3.79004

>  <r_i_glide_lipo>  (307) 
-0.597758

>  <r_i_glide_hbond>  (307) 
-0.432367

>  <r_i_glide_metal>  (307) 
-0

>  <r_i_glide_rewards>  (307) 
-1.10559

>  <r_i_glide_evdw>  (307) 
-22.0839

>  <r_i_glide_ecoul>  (307) 
-3.35985

>  <r_i_glide_erotb>  (307) 
0

>  <r_i_glide_esite>  (307) 
-0.0461505

>  <r_i_glide_emodel>  (307) 
-32.6815

>  <r_i_glide_energy>  (307) 
-25.4437

>  <r_i_glide_einternal>  (307) 
0

>  <r_i_glide_intrahb_reward>  (307) 
-0

>  <i_i_glide_confnum>  (307) 
1

>  <i_i_glide_posenum>  (307) 
8

>  <r_i_glide_eff_state_penalty>  (307) 
0

>  <ligand_id>  (307) 
92

>  <original_smiles>  (307) 
CC1=C2C=CC3C(CCC45C(=O)OC(=O)C34OC5(C)C)C2(C)CCC1=O

>  <smiles>  (307) 
[H]C1=C([H])C2([H])C34OC(C([H])([H])[H])(C([H])([H])[H])C3(C(=O)OC4=O)C([H])([H])C([H])([H])C2([H])C2(C([H])([H])[H])C1=C(C([H])([H])[H])C(=O)C([H])([H])C2([H])[H]

$$$$
92:0:1
     RDKit          3D

 50 54  0  0  1  0  0  0  0  0999 V2000
    5.9579   -3.8542   -0.3174 C   0  0  0  0  0  0  0  0  0  0  0  0
    6.1936   -5.0053    0.6628 C   0  0  0  0  0  0  0  0  0  0  0  0
    5.2095   -5.7478    1.2462 C   0  0  0  0  0  0  0  0  0  0  0  0
    3.8127   -5.3945    1.0256 C   0  0  0  0  0  0  0  0  0  0  0  0
    2.7990   -6.2309    1.3078 C   0  0  0  0  0  0  0  0  0  0  0  0
    2.9699   -7.6607    1.7926 C   0  0  1  0  0  0  0  0  0  0  0  0
    4.4663   -8.0939    1.9097 C   0  0  2  0  0  0  0  0  0  0  0  0
    4.6806   -9.3769    2.7633 C   0  0  0  0  0  0  0  0  0  0  0  0
    3.4324  -10.2613    3.0037 C   0  0  0  0  0  0  0  0  0  0  0  0
    2.1932   -9.4899    3.4952 C   0  0  2  0  0  0  0  0  0  0  0  0
    0.9281  -10.2062    3.1221 C   0  0  0  0  0  0  0  0  0  0  0  0
    0.6887  -11.4024    3.2465 O   0  0  0  0  0  0  0  0  0  0  0  0
    0.0298   -9.3211    2.6186 O   0  0  0  0  0  0  0  0  0  0  0  0
    0.5519   -8.0714    2.5241 C   0  0  0  0  0  0  0  0  0  0  0  0
   -0.1193   -7.0916    2.1959 O   0  0  0  0  0  0  0  0  0  0  0  0
    2.0088   -8.1119    2.9305 C   0  0  2  0  0  0  0  0  0  0  0  0
    2.1974   -7.4891    4.2371 O   0  0  0  0  0  0  0  0  0  0  0  0
    2.1815   -8.7917    4.8865 C   0  0  0  0  0  0  0  0  0  0  0  0
    0.9265   -8.8642    5.7789 C   0  0  0  0  0  0  0  0  0  0  0  0
    3.3932   -8.9306    5.8164 C   0  0  0  0  0  0  0  0  0  0  0  0
    5.4898   -6.9261    2.2006 C   0  0  2  0  0  0  0  0  0  0  0  0
    5.3702   -6.3918    3.6498 C   0  0  0  0  0  0  0  0  0  0  0  0
    6.9376   -7.4486    1.9802 C   0  0  0  0  0  0  0  0  0  0  0  0
    7.9866   -6.3328    1.9828 C   0  0  0  0  0  0  0  0  0  0  0  0
    7.6250   -5.2386    0.9904 C   0  0  0  0  0  0  0  0  0  0  0  0
    8.5436   -4.5653    0.5236 O   0  0  0  0  0  0  0  0  0  0  0  0
    6.6879   -3.8675   -1.1262 H   0  0  0  0  0  0  0  0  0  0  0  0
    6.0561   -2.8938    0.1885 H   0  0  0  0  0  0  0  0  0  0  0  0
    4.9849   -3.8968   -0.8046 H   0  0  0  0  0  0  0  0  0  0  0  0
    3.5515   -4.4049    0.6834 H   0  0  0  0  0  0  0  0  0  0  0  0
    1.7914   -5.8952    1.1202 H   0  0  0  0  0  0  0  0  0  0  0  0
    2.6278   -8.2213    0.9242 H   0  0  0  0  0  0  0  0  0  0  0  0
    4.7113   -8.4079    0.8914 H   0  0  0  0  0  0  0  0  0  0  0  0
    5.4337   -9.9943    2.2716 H   0  0  0  0  0  0  0  0  0  0  0  0
    5.1391   -9.1301    3.7139 H   0  0  0  0  0  0  0  0  0  0  0  0
    3.2058  -10.7952    2.0814 H   0  0  0  0  0  0  0  0  0  0  0  0
    3.6876  -11.0460    3.7151 H   0  0  0  0  0  0  0  0  0  0  0  0
    0.8129   -9.8561    6.2189 H   0  0  0  0  0  0  0  0  0  0  0  0
    0.0017   -8.6358    5.2491 H   0  0  0  0  0  0  0  0  0  0  0  0
    0.9820   -8.1507    6.6022 H   0  0  0  0  0  0  0  0  0  0  0  0
    3.6593   -9.9782    5.9611 H   0  0  0  0  0  0  0  0  0  0  0  0
    3.2046   -8.5088    6.8052 H   0  0  0  0  0  0  0  0  0  0  0  0
    4.2649   -8.4017    5.4461 H   0  0  0  0  0  0  0  0  0  0  0  0
    5.7470   -7.0979    4.3874 H   0  0  0  0  0  0  0  0  0  0  0  0
    4.3432   -6.1461    3.9149 H   0  0  0  0  0  0  0  0  0  0  0  0
    5.9513   -5.4803    3.7870 H   0  0  0  0  0  0  0  0  0  0  0  0
    7.2078   -8.1817    2.7404 H   0  0  0  0  0  0  0  0  0  0  0  0
    6.9971   -7.9794    1.0275 H   0  0  0  0  0  0  0  0  0  0  0  0
    8.0935   -5.8892    2.9737 H   0  0  0  0  0  0  0  0  0  0  0  0
    8.9643   -6.7333    1.7155 H   0  0  0  0  0  0  0  0  0  0  0  0
  1  2  1  0
  1 27  1  0
  1 28  1  0
  1 29  1  0
  2 25  1  0
  2  3  2  0
  3 21  1  0
  3  4  1  0
  4  5  2  0
  4 30  1  0
  5  6  1  0
  5 31  1  0
  6 16  1  0
  6  7  1  0
  6 32  1  6
  7  8  1  0
  7 21  1  0
  7 33  1  6
  8  9  1  0
  8 34  1  0
  8 35  1  0
 10  9  1  6
  9 36  1  0
  9 37  1  0
 10 16  1  0
 10 18  1  0
 10 11  1  0
 11 12  2  0
 11 13  1  0
 13 14  1  0
 14 15  2  0
 14 16  1  0
 16 17  1  1
 17 18  1  0
 18 19  1  0
 18 20  1  0
 19 38  1  0
 19 39  1  0
 19 40  1  0
 20 41  1  0
 20 42  1  0
 20 43  1  0
 21 22  1  1
 21 23  1  0
 22 44  1  0
 22 45  1  0
 22 46  1  0
 23 24  1  0
 23 47  1  0
 23 48  1  0
 24 25  1  0
 24 49  1  0
 24 50  1  0
 25 26  2  0
M  END
>  <i_m_ct_stereo_status>  (308) 
1

>  <s_m_source_file>  (308) 
/var/tmp/pbs.5076255.sched01/tmppj12hgr0/126t4bdxmoi.sdf

>  <i_m_source_file_index>  (308) 
5

>  <i_lp_mmshare_version>  (308) 
48012

>  <i_f3d_flags>  (308) 
0

>  <s_epik_input>  (308) 
W0NIMl0xW0NIMl1DKD1PKUMoW0NIM10pPUMoW0NIXT1bQ0hdMilbQ0BAXTEoW0NIM10pW0NAQEhdKFtDSDJdW0NIMl0zKVtDQEhdMltDQF0oW0NAXTM0NSkoQyg9TylPQzQ9TylPQzUoW0NIM10pW0NIM10=

>  <s_epik_cmdline>  (308) 
J2VwaWtfcHl0aG9uJywgJy1waHQnLCAnMi4wJywgJy1waCcsICc3LjAnLCAnLXRuJywgJzgnLCAnLW1hJywgJzIwMCcsICctaW1hZScsICc8aW5maWxlLm1hZT4nLCAnLW9tYWUnLCAnPG91dGZpbGUubWFlPic=

>  <r_lp_tautomer_probability>  (308) 
1

>  <r_epik_Ionization_Penalty>  (308) 
0

>  <r_epik_Ionization_Penalty_Charging>  (308) 
0

>  <r_epik_Ionization_Penalty_Neutral>  (308) 
0

>  <r_epik_State_Penalty>  (308) 
-0

>  <r_epik_Charging_Adjusted_Penalty>  (308) 
0

>  <i_epik_Tot_Q>  (308) 
0

>  <i_epik_Tot_abs_Q>  (308) 
0

>  <s_lp_Force_Field>  (308) 
OPLS3e

>  <r_lp_Energy>  (308) 
26.974

>  <b_lp_Chiralities_Consistent>  (308) 
1

>  <s_lp_Variant>  (308) 
92:0-1

>  <s_i_glide_gridfile>  (308) 
pfpi4k_grid

>  <i_i_glide_lignum>  (308) 
5

>  <i_i_glide_rotatable_bonds>  (308) 
0

>  <r_i_docking_score>  (308) 
-3.38504

>  <r_i_glide_ligand_efficiency>  (308) 
-0.130194

>  <r_i_glide_ligand_efficiency_sa>  (308) 
-0.385699

>  <r_i_glide_ligand_efficiency_ln>  (308) 
-0.794966

>  <r_i_glide_gscore>  (308) 
-3.38504

>  <r_i_glide_lipo>  (308) 
-0.346461

>  <r_i_glide_hbond>  (308) 
-0.0363273

>  <r_i_glide_metal>  (308) 
-0

>  <r_i_glide_rewards>  (308) 
-1.27643

>  <r_i_glide_evdw>  (308) 
-25.6326

>  <r_i_glide_ecoul>  (308) 
-2.71286

>  <r_i_glide_erotb>  (308) 
0

>  <r_i_glide_esite>  (308) 
-0.0372714

>  <r_i_glide_emodel>  (308) 
-34.8237

>  <r_i_glide_energy>  (308) 
-28.3455

>  <r_i_glide_einternal>  (308) 
0

>  <r_i_glide_intrahb_reward>  (308) 
-0

>  <i_i_glide_confnum>  (308) 
2

>  <i_i_glide_posenum>  (308) 
27

>  <r_i_glide_eff_state_penalty>  (308) 
0

>  <ligand_id>  (308) 
92

>  <original_smiles>  (308) 
CC1=C2C=CC3C(CCC45C(=O)OC(=O)C34OC5(C)C)C2(C)CCC1=O

>  <smiles>  (308) 
[H]C1=C([H])C2([H])C34OC(C([H])([H])[H])(C([H])([H])[H])C3(C(=O)OC4=O)C([H])([H])C([H])([H])C2([H])C2(C([H])([H])[H])C1=C(C([H])([H])[H])C(=O)C([H])([H])C2([H])[H]

$$$$
92:0:2
     RDKit          3D

 50 54  0  0  1  0  0  0  0  0999 V2000
    2.4704   -2.9408   -3.8314 C   0  0  0  0  0  0  0  0  0  0  0  0
    3.2627   -2.4329   -2.6365 C   0  0  0  0  0  0  0  0  0  0  0  0
    3.1768   -2.9049   -1.3539 C   0  0  0  0  0  0  0  0  0  0  0  0
    2.1673   -3.8850   -1.0481 C   0  0  0  0  0  0  0  0  0  0  0  0
    2.2197   -4.6521    0.0572 C   0  0  0  0  0  0  0  0  0  0  0  0
    3.3246   -4.6058    1.0883 C   0  0  1  0  0  0  0  0  0  0  0  0
    4.4771   -3.6282    0.7086 C   0  0  2  0  0  0  0  0  0  0  0  0
    5.3960   -3.2622    1.9044 C   0  0  0  0  0  0  0  0  0  0  0  0
    5.3375   -4.2107    3.1250 C   0  0  0  0  0  0  0  0  0  0  0  0
    3.9229   -4.5080    3.6257 C   0  0  2  0  0  0  0  0  0  0  0  0
    3.8763   -5.8264    4.3367 C   0  0  0  0  0  0  0  0  0  0  0  0
    4.6645   -6.2404    5.1860 O   0  0  0  0  0  0  0  0  0  0  0  0
    2.7938   -6.5255    3.9227 O   0  0  0  0  0  0  0  0  0  0  0  0
    2.1166   -5.8788    2.9427 C   0  0  0  0  0  0  0  0  0  0  0  0
    1.0337   -6.2644    2.5018 O   0  0  0  0  0  0  0  0  0  0  0  0
    2.8677   -4.6242    2.5720 C   0  0  2  0  0  0  0  0  0  0  0  0
    2.1556   -3.4511    3.0699 O   0  0  0  0  0  0  0  0  0  0  0  0
    3.0270   -3.3907    4.2326 C   0  0  0  0  0  0  0  0  0  0  0  0
    2.1637   -3.6703    5.4776 C   0  0  0  0  0  0  0  0  0  0  0  0
    3.5800   -1.9738    4.3919 C   0  0  0  0  0  0  0  0  0  0  0  0
    4.0480   -2.4060   -0.1903 C   0  0  2  0  0  0  0  0  0  0  0  0
    3.2137   -1.3712    0.6010 C   0  0  0  0  0  0  0  0  0  0  0  0
    5.3159   -1.7142   -0.7474 C   0  0  0  0  0  0  0  0  0  0  0  0
    4.9809   -0.6943   -1.8410 C   0  0  0  0  0  0  0  0  0  0  0  0
    4.1431   -1.3005   -2.9500 C   0  0  0  0  0  0  0  0  0  0  0  0
    4.2167   -0.7929   -4.0716 O   0  0  0  0  0  0  0  0  0  0  0  0
    3.1118   -2.9987   -4.7100 H   0  0  0  0  0  0  0  0  0  0  0  0
    1.6493   -2.2630   -4.0648 H   0  0  0  0  0  0  0  0  0  0  0  0
    2.0819   -3.9443   -3.6940 H   0  0  0  0  0  0  0  0  0  0  0  0
    1.3347   -4.0251   -1.7137 H   0  0  0  0  0  0  0  0  0  0  0  0
    1.4609   -5.4006    0.1981 H   0  0  0  0  0  0  0  0  0  0  0  0
    3.7753   -5.5844    0.9349 H   0  0  0  0  0  0  0  0  0  0  0  0
    5.1047   -4.2366    0.0455 H   0  0  0  0  0  0  0  0  0  0  0  0
    6.4210   -3.2481    1.5457 H   0  0  0  0  0  0  0  0  0  0  0  0
    5.2262   -2.2347    2.2165 H   0  0  0  0  0  0  0  0  0  0  0  0
    5.8703   -5.1366    2.8717 H   0  0  0  0  0  0  0  0  0  0  0  0
    5.8928   -3.7675    3.9459 H   0  0  0  0  0  0  0  0  0  0  0  0
    2.7797   -3.7235    6.3761 H   0  0  0  0  0  0  0  0  0  0  0  0
    1.5949   -4.5974    5.4161 H   0  0  0  0  0  0  0  0  0  0  0  0
    1.4287   -2.8792    5.6399 H   0  0  0  0  0  0  0  0  0  0  0  0
    4.5274   -1.9803    4.9332 H   0  0  0  0  0  0  0  0  0  0  0  0
    2.9008   -1.3205    4.9462 H   0  0  0  0  0  0  0  0  0  0  0  0
    3.7350   -1.4757    3.4410 H   0  0  0  0  0  0  0  0  0  0  0  0
    3.8017   -0.8056    1.3198 H   0  0  0  0  0  0  0  0  0  0  0  0
    2.3693   -1.8261    1.1167 H   0  0  0  0  0  0  0  0  0  0  0  0
    2.7857   -0.6303   -0.0675 H   0  0  0  0  0  0  0  0  0  0  0  0
    5.8617   -1.2100    0.0517 H   0  0  0  0  0  0  0  0  0  0  0  0
    5.9980   -2.4621   -1.1585 H   0  0  0  0  0  0  0  0  0  0  0  0
    4.4463    0.1426   -1.4188 H   0  0  0  0  0  0  0  0  0  0  0  0
    5.8795   -0.3017   -2.2975 H   0  0  0  0  0  0  0  0  0  0  0  0
  1  2  1  0
  1 27  1  0
  1 28  1  0
  1 29  1  0
  2 25  1  0
  2  3  2  0
  3 21  1  0
  3  4  1  0
  4  5  2  0
  4 30  1  0
  5  6  1  0
  5 31  1  0
  6 16  1  0
  6  7  1  0
  6 32  1  1
  7  8  1  0
  7 21  1  0
  7 33  1  6
  8  9  1  0
  8 34  1  0
  8 35  1  0
 10  9  1  6
  9 36  1  0
  9 37  1  0
 10 16  1  0
 10 18  1  0
 10 11  1  0
 11 12  2  0
 11 13  1  0
 13 14  1  0
 14 15  2  0
 14 16  1  0
 16 17  1  6
 17 18  1  0
 18 19  1  0
 18 20  1  0
 19 38  1  0
 19 39  1  0
 19 40  1  0
 20 41  1  0
 20 42  1  0
 20 43  1  0
 21 22  1  1
 21 23  1  0
 22 44  1  0
 22 45  1  0
 22 46  1  0
 23 24  1  0
 23 47  1  0
 23 48  1  0
 24 25  1  0
 24 49  1  0
 24 50  1  0
 25 26  2  0
M  END
>  <i_m_ct_stereo_status>  (309) 
1

>  <s_m_source_file>  (309) 
/var/tmp/pbs.5076255.sched01/tmppj12hgr0/126t4bdxmoi.sdf

>  <i_m_source_file_index>  (309) 
5

>  <i_lp_mmshare_version>  (309) 
48012

>  <i_f3d_flags>  (309) 
0

>  <s_epik_input>  (309) 
W0NIMl0xW0NIMl1DKD1PKUMoW0NIM10pPUMoW0NIXT1bQ0hdMilbQ0BAXTEoW0NIM10pW0NAQEhdKFtDSDJdW0NIMl0zKVtDQEhdMltDQF0oW0NAXTM0NSkoQyg9TylPQzQ9TylPQzUoW0NIM10pW0NIM10=

>  <s_epik_cmdline>  (309) 
J2VwaWtfcHl0aG9uJywgJy1waHQnLCAnMi4wJywgJy1waCcsICc3LjAnLCAnLXRuJywgJzgnLCAnLW1hJywgJzIwMCcsICctaW1hZScsICc8aW5maWxlLm1hZT4nLCAnLW9tYWUnLCAnPG91dGZpbGUubWFlPic=

>  <r_lp_tautomer_probability>  (309) 
1

>  <r_epik_Ionization_Penalty>  (309) 
0

>  <r_epik_Ionization_Penalty_Charging>  (309) 
0

>  <r_epik_Ionization_Penalty_Neutral>  (309) 
0

>  <r_epik_State_Penalty>  (309) 
-0

>  <r_epik_Charging_Adjusted_Penalty>  (309) 
0

>  <i_epik_Tot_Q>  (309) 
0

>  <i_epik_Tot_abs_Q>  (309) 
0

>  <s_lp_Force_Field>  (309) 
OPLS3e

>  <r_lp_Energy>  (309) 
26.974

>  <b_lp_Chiralities_Consistent>  (309) 
1

>  <s_lp_Variant>  (309) 
92:0-1

>  <s_i_glide_gridfile>  (309) 
pfpi4k_grid

>  <i_i_glide_lignum>  (309) 
5

>  <i_i_glide_rotatable_bonds>  (309) 
0

>  <r_i_docking_score>  (309) 
-2.42173

>  <r_i_glide_ligand_efficiency>  (309) 
-0.0931435

>  <r_i_glide_ligand_efficiency_sa>  (309) 
-0.275937

>  <r_i_glide_ligand_efficiency_ln>  (309) 
-0.568735

>  <r_i_glide_gscore>  (309) 
-2.42173

>  <r_i_glide_lipo>  (309) 
-0.264197

>  <r_i_glide_hbond>  (309) 
0

>  <r_i_glide_metal>  (309) 
-0

>  <r_i_glide_rewards>  (309) 
-0.979007

>  <r_i_glide_evdw>  (309) 
-21.4115

>  <r_i_glide_ecoul>  (309) 
-0.668703

>  <r_i_glide_erotb>  (309) 
0

>  <r_i_glide_esite>  (309) 
-0.00764457

>  <r_i_glide_emodel>  (309) 
-26.5567

>  <r_i_glide_energy>  (309) 
-22.0802

>  <r_i_glide_einternal>  (309) 
0

>  <r_i_glide_intrahb_reward>  (309) 
-0

>  <i_i_glide_confnum>  (309) 
1

>  <i_i_glide_posenum>  (309) 
14

>  <r_i_glide_eff_state_penalty>  (309) 
0

>  <ligand_id>  (309) 
92

>  <original_smiles>  (309) 
CC1=C2C=CC3C(CCC45C(=O)OC(=O)C34OC5(C)C)C2(C)CCC1=O

>  <smiles>  (309) 
[H]C1=C([H])C2([H])C34OC(C([H])([H])[H])(C([H])([H])[H])C3(C(=O)OC4=O)C([H])([H])C([H])([H])C2([H])C2(C([H])([H])[H])C1=C(C([H])([H])[H])C(=O)C([H])([H])C2([H])[H]

$$$$
93:0:0
     RDKit          3D

 61 68  0  0  1  0  0  0  0  0999 V2000
    3.5484   -0.6519   -2.3948 C   0  0  0  0  0  0  0  0  0  0  0  0
    4.2035   -1.8440   -3.0793 C   0  0  0  0  0  0  0  0  0  0  0  0
    4.2247   -1.9185   -4.2925 O   0  0  0  0  0  0  0  0  0  0  0  0
    4.7756   -2.7510   -2.2503 O   0  0  0  0  0  0  0  0  0  0  0  0
    4.3257   -2.9171   -0.9007 C   0  0  2  0  0  0  0  0  0  0  0  0
    5.0131   -2.1614    0.2410 C   0  0  2  0  0  0  0  0  0  0  0  0
    6.5980   -2.3195   -0.1259 C   0  0  1  0  0  0  0  0  0  0  0  0
    7.4117   -1.3793    0.5224 O   0  0  0  0  0  0  0  0  0  0  0  0
    7.1611   -3.8315   -0.0119 C   0  0  1  0  0  0  0  0  0  0  0  0
    7.5449   -4.7311    1.3464 C   0  0  2  0  0  0  0  0  0  0  0  0
    6.9279   -6.0882    1.9651 C   0  0  0  0  0  0  0  0  0  0  0  0
    5.4758   -5.8099    2.6725 C   0  0  1  0  0  0  0  0  0  0  0  0
    5.5240   -6.6447    4.0005 C   0  0  0  0  0  0  0  0  0  0  0  0
    4.9657   -6.0228    5.1328 O   0  0  0  0  0  0  0  0  0  0  0  0
    5.5939   -4.3388    2.9396 C   0  0  1  0  0  0  0  0  0  0  0  0
    6.3879   -4.0427    1.7360 C   0  0  2  0  0  0  0  0  0  0  0  0
    5.9461   -4.5863    0.1880 C   0  0  1  0  0  0  0  0  0  0  0  0
    4.5372   -4.3422   -0.3896 C   0  0  1  0  0  0  0  0  0  0  0  0
    3.7627   -4.4686    0.8836 C   0  0  2  0  0  0  0  0  0  0  0  0
    2.2496   -4.3878    0.9748 C   0  0  0  0  0  0  0  0  0  0  0  0
    2.1387   -4.7852    2.4667 C   0  0  2  0  0  0  0  0  0  0  0  0
    2.9800   -3.8034    3.4050 C   0  0  0  0  0  0  0  0  0  0  0  0
    4.3970   -3.3187    2.8627 C   0  0  1  0  0  0  0  0  0  0  0  0
    4.7750   -2.0746    3.5596 C   0  0  0  0  0  0  0  0  0  0  0  0
    5.0674   -1.1000    4.1042 N   0  0  0  0  0  0  0  0  0  0  0  0
    4.1321   -2.9934    1.3806 C   0  0  1  0  0  0  0  0  0  0  0  0
    2.7295   -6.1998    2.4516 C   0  0  0  0  0  0  0  0  0  0  0  0
    2.5085   -6.8819    3.8417 C   0  0  0  0  0  0  0  0  0  0  0  0
    1.8917   -7.1870    1.5770 C   0  0  0  0  0  0  0  0  0  0  0  0
    4.1269   -5.8540    1.7681 C   0  0  2  0  0  0  0  0  0  0  0  0
    4.3613   -6.8737    0.9246 F   0  0  0  0  0  0  0  0  0  0  0  0
    4.2764   -0.1400   -1.7700 H   0  0  0  0  0  0  0  0  0  0  0  0
    2.6911   -0.9459   -1.7951 H   0  0  0  0  0  0  0  0  0  0  0  0
    3.1994    0.0646   -3.1364 H   0  0  0  0  0  0  0  0  0  0  0  0
    3.2509   -2.7203   -0.8895 H   0  0  0  0  0  0  0  0  0  0  0  0
    4.7449   -1.0988    0.2392 H   0  0  0  0  0  0  0  0  0  0  0  0
    6.7520   -1.9992   -1.1560 H   0  0  0  0  0  0  0  0  0  0  0  0
    7.2745   -1.4636    1.4673 H   0  0  0  0  0  0  0  0  0  0  0  0
    7.7438   -4.1310   -0.8730 H   0  0  0  0  0  0  0  0  0  0  0  0
    8.4354   -4.3681    1.8459 H   0  0  0  0  0  0  0  0  0  0  0  0
    6.8907   -6.9089    1.2524 H   0  0  0  0  0  0  0  0  0  0  0  0
    7.6760   -6.4297    2.6796 H   0  0  0  0  0  0  0  0  0  0  0  0
    5.1200   -7.6447    3.8261 H   0  0  0  0  0  0  0  0  0  0  0  0
    6.5501   -6.8408    4.3156 H   0  0  0  0  0  0  0  0  0  0  0  0
    5.4346   -5.1826    5.3282 H   0  0  0  0  0  0  0  0  0  0  0  0
    6.1957   -4.1699    3.8380 H   0  0  0  0  0  0  0  0  0  0  0  0
    6.7306   -3.0381    2.0307 H   0  0  0  0  0  0  0  0  0  0  0  0
    6.1722   -5.5959   -0.1971 H   0  0  0  0  0  0  0  0  0  0  0  0
    4.2448   -5.0953   -1.1214 H   0  0  0  0  0  0  0  0  0  0  0  0
    1.8155   -3.4065    0.7493 H   0  0  0  0  0  0  0  0  0  0  0  0
    1.7532   -5.0399    0.2664 H   0  0  0  0  0  0  0  0  0  0  0  0
    1.1000   -4.8144    2.7952 H   0  0  0  0  0  0  0  0  0  0  0  0
    2.3635   -2.9139    3.5322 H   0  0  0  0  0  0  0  0  0  0  0  0
    3.0970   -4.1895    4.4136 H   0  0  0  0  0  0  0  0  0  0  0  0
    3.2999   -2.2963    1.4440 H   0  0  0  0  0  0  0  0  0  0  0  0
    3.0338   -7.8272    3.9436 H   0  0  0  0  0  0  0  0  0  0  0  0
    1.4523   -7.1396    3.9592 H   0  0  0  0  0  0  0  0  0  0  0  0
    2.7021   -6.2494    4.6946 H   0  0  0  0  0  0  0  0  0  0  0  0
    2.1819   -8.2270    1.7529 H   0  0  0  0  0  0  0  0  0  0  0  0
    2.0332   -7.0464    0.4985 H   0  0  0  0  0  0  0  0  0  0  0  0
    0.8193   -7.1135    1.7671 H   0  0  0  0  0  0  0  0  0  0  0  0
  1  2  1  0
  1 32  1  0
  1 33  1  0
  1 34  1  0
  2  3  2  0
  2  4  1  0
  4  5  1  0
  5 18  1  0
  5  6  1  0
  5 35  1  6
  6 26  1  0
  6  7  1  0
  6 36  1  6
  7  8  1  0
  7  9  1  0
  7 37  1  6
  8 38  1  0
  9 17  1  0
  9 10  1  0
  9 39  1  6
 10 16  1  0
 10 11  1  0
 10 40  1  1
 11 12  1  0
 11 41  1  0
 11 42  1  0
 12 30  1  0
 12 13  1  1
 12 15  1  0
 13 14  1  0
 13 43  1  0
 13 44  1  0
 14 45  1  0
 15 23  1  0
 15 16  1  0
 15 46  1  1
 16 17  1  0
 16 47  1  6
 17 18  1  0
 17 48  1  1
 18 19  1  0
 18 49  1  6
 19 26  1  0
 19 30  1  0
 19 20  1  6
 20 21  1  0
 20 50  1  0
 20 51  1  0
 21 22  1  0
 21 27  1  0
 21 52  1  1
 22 23  1  0
 22 53  1  0
 22 54  1  0
 23 24  1  1
 23 26  1  0
 24 25  3  0
 26 55  1  1
 27 28  1  0
 27 29  1  0
 27 30  1  0
 28 56  1  0
 28 57  1  0
 28 58  1  0
 29 59  1  0
 29 60  1  0
 29 61  1  0
 30 31  1  6
M  END
>  <i_m_ct_stereo_status>  (310) 
1

>  <s_m_source_file>  (310) 
/var/tmp/pbs.5076255.sched01/tmppj12hgr0/126t4bdxmoi.sdf

>  <i_m_source_file_index>  (310) 
6

>  <i_lp_mmshare_version>  (310) 
48012

>  <i_f3d_flags>  (310) 
0

>  <s_epik_input>  (310) 
W0NIM11DKD1PKU9bQ0BASF0xW0NASF0oW0NASF0yW09IXSlbQ0BASF0zW0NAQF00KEMjTilbQ0gyXVtDQEBIXShbQ0gyXTUpQyhbQ0gzXSkoW0NIM10pW0NAXTYoRilbQ0BdKFtDSDJdNykoW0NIMl1bT0hdKVtDQEhdNFtDQEhdOFtDQEBIXTdbQ0BIXTJbQ0BASF04W0NASF0xW0NAQF0zNTY=

>  <s_epik_cmdline>  (310) 
J2VwaWtfcHl0aG9uJywgJy1waHQnLCAnMi4wJywgJy1waCcsICc3LjAnLCAnLXRuJywgJzgnLCAnLW1hJywgJzIwMCcsICctaW1hZScsICc8aW5maWxlLm1hZT4nLCAnLW9tYWUnLCAnPG91dGZpbGUubWFlPic=

>  <r_lp_tautomer_probability>  (310) 
1

>  <r_epik_Ionization_Penalty>  (310) 
2.51281e-07

>  <r_epik_Ionization_Penalty_Charging>  (310) 
0

>  <r_epik_Ionization_Penalty_Neutral>  (310) 
2.51281e-07

>  <r_epik_State_Penalty>  (310) 
-0

>  <r_epik_Charging_Adjusted_Penalty>  (310) 
0

>  <i_epik_Tot_Q>  (310) 
0

>  <i_epik_Tot_abs_Q>  (310) 
0

>  <s_epik_Chemistry_Notes>  (310) 
This compound has an ester and may undergo hydrolysis at high or low pH.

>  <s_lp_Force_Field>  (310) 
OPLS3e

>  <r_lp_Energy>  (310) 
329.51

>  <b_lp_Chiralities_Consistent>  (310) 
1

>  <s_lp_Variant>  (310) 
93:0-1

>  <s_i_glide_gridfile>  (310) 
pfpi4k_grid

>  <i_i_glide_lignum>  (310) 
6

>  <i_i_glide_rotatable_bonds>  (310) 
6

>  <r_i_docking_score>  (310) 
-3.27304

>  <r_i_glide_ligand_efficiency>  (310) 
-0.105582

>  <r_i_glide_ligand_efficiency_sa>  (310) 
-0.331673

>  <r_i_glide_ligand_efficiency_ln>  (310) 
-0.73817

>  <r_i_glide_gscore>  (310) 
-3.27304

>  <r_i_glide_lipo>  (310) 
-0.530013

>  <r_i_glide_hbond>  (310) 
-0.337514

>  <r_i_glide_metal>  (310) 
-0

>  <r_i_glide_rewards>  (310) 
-0.826303

>  <r_i_glide_evdw>  (310) 
-21.8276

>  <r_i_glide_ecoul>  (310) 
-4.70073

>  <r_i_glide_erotb>  (310) 
0.217281

>  <r_i_glide_esite>  (310) 
0

>  <r_i_glide_emodel>  (310) 
-26.5141

>  <r_i_glide_energy>  (310) 
-26.5283

>  <r_i_glide_einternal>  (310) 
10.5503

>  <r_i_glide_intrahb_reward>  (310) 
-0

>  <i_i_glide_confnum>  (310) 
4

>  <i_i_glide_posenum>  (310) 
11

>  <r_i_glide_eff_state_penalty>  (310) 
0

>  <ligand_id>  (310) 
93

>  <original_smiles>  (310) 
CC(=O)OC1C2C(O)C3C4CC5(CO)C6C4C3C1C13CC(CC6(C#N)C21)C(C)(C)C53F

>  <smiles>  (310) 
[H]OC([H])([H])C12C([H])([H])C3([H])C4([H])C([H])(O[H])C5([H])C([H])(OC(=O)C([H])([H])[H])C6([H])C4([H])C3([H])C1([H])C1(C#N)C([H])([H])C3([H])C([H])([H])C6(C51[H])C2(F)C3(C([H])([H])[H])C([H])([H])[H]

$$$$
93:0:1
     RDKit          3D

 61 68  0  0  1  0  0  0  0  0999 V2000
    2.3864   -2.7884   -2.6952 C   0  0  0  0  0  0  0  0  0  0  0  0
    3.8262   -3.0535   -3.1155 C   0  0  0  0  0  0  0  0  0  0  0  0
    4.2071   -2.7449   -4.2364 O   0  0  0  0  0  0  0  0  0  0  0  0
    4.6242   -3.6461   -2.1835 O   0  0  0  0  0  0  0  0  0  0  0  0
    4.1788   -3.9214   -0.8515 C   0  0  2  0  0  0  0  0  0  0  0  0
    4.6125   -2.9361    0.2334 C   0  0  2  0  0  0  0  0  0  0  0  0
    6.2043   -2.6971   -0.1072 C   0  0  1  0  0  0  0  0  0  0  0  0
    6.7245   -1.5184    0.4887 O   0  0  0  0  0  0  0  0  0  0  0  0
    7.1285   -3.9999    0.1132 C   0  0  1  0  0  0  0  0  0  0  0  0
    7.7042   -4.6842    1.5326 C   0  0  2  0  0  0  0  0  0  0  0  0
    7.4536   -6.0894    2.2478 C   0  0  0  0  0  0  0  0  0  0  0  0
    5.9565   -6.1487    2.9263 C   0  0  1  0  0  0  0  0  0  0  0  0
    6.1963   -6.8590    4.3033 C   0  0  0  0  0  0  0  0  0  0  0  0
    5.5077   -6.2725    5.3936 O   0  0  0  0  0  0  0  0  0  0  0  0
    5.6844   -4.6833    3.0845 C   0  0  1  0  0  0  0  0  0  0  0  0
    6.4011   -4.2762    1.8677 C   0  0  2  0  0  0  0  0  0  0  0  0
    6.1503   -5.0326    0.3609 C   0  0  1  0  0  0  0  0  0  0  0  0
    4.7451   -5.2082   -0.2482 C   0  0  1  0  0  0  0  0  0  0  0  0
    3.9875   -5.4419    1.0332 C   0  0  2  0  0  0  0  0  0  0  0  0
    2.4931   -5.7603    1.1191 C   0  0  0  0  0  0  0  0  0  0  0  0
    2.4711   -6.0621    2.6366 C   0  0  2  0  0  0  0  0  0  0  0  0
    3.0088   -4.8227    3.5000 C   0  0  0  0  0  0  0  0  0  0  0  0
    4.2582   -4.0234    2.9264 C   0  0  1  0  0  0  0  0  0  0  0  0
    4.3018   -2.6789    3.5314 C   0  0  0  0  0  0  0  0  0  0  0  0
    4.3392   -1.6250    4.0028 N   0  0  0  0  0  0  0  0  0  0  0  0
    3.9539   -3.8939    1.4229 C   0  0  1  0  0  0  0  0  0  0  0  0
    3.4128   -7.2716    2.7262 C   0  0  0  0  0  0  0  0  0  0  0  0
    3.3561   -7.8684    4.1638 C   0  0  0  0  0  0  0  0  0  0  0  0
    2.8937   -8.5097    1.9169 C   0  0  0  0  0  0  0  0  0  0  0  0
    4.6889   -6.6112    2.0211 C   0  0  2  0  0  0  0  0  0  0  0  0
    5.2002   -7.5922    1.2671 F   0  0  0  0  0  0  0  0  0  0  0  0
    2.3672   -2.2149   -1.7701 H   0  0  0  0  0  0  0  0  0  0  0  0
    1.8701   -3.7358   -2.5374 H   0  0  0  0  0  0  0  0  0  0  0  0
    1.8456   -2.2344   -3.4551 H   0  0  0  0  0  0  0  0  0  0  0  0
    3.0948   -4.0375   -0.8445 H   0  0  0  0  0  0  0  0  0  0  0  0
    4.0728   -1.9896    0.1321 H   0  0  0  0  0  0  0  0  0  0  0  0
    6.3058   -2.3993   -1.1514 H   0  0  0  0  0  0  0  0  0  0  0  0
    6.6516   -1.6013    1.4267 H   0  0  0  0  0  0  0  0  0  0  0  0
    7.7913   -4.2156   -0.7249 H   0  0  0  0  0  0  0  0  0  0  0  0
    8.4816   -4.0743    1.9923 H   0  0  0  0  0  0  0  0  0  0  0  0
    7.6450   -6.9513    1.6073 H   0  0  0  0  0  0  0  0  0  0  0  0
    8.2416   -6.1730    2.9938 H   0  0  0  0  0  0  0  0  0  0  0  0
    6.0362   -7.9317    4.2277 H   0  0  0  0  0  0  0  0  0  0  0  0
    7.2362   -6.7715    4.6338 H   0  0  0  0  0  0  0  0  0  0  0  0
    5.4775   -6.8871    6.1119 H   0  0  0  0  0  0  0  0  0  0  0  0
    6.1947   -4.2861    3.9660 H   0  0  0  0  0  0  0  0  0  0  0  0
    6.4798   -3.2063    2.0884 H   0  0  0  0  0  0  0  0  0  0  0  0
    6.6362   -5.9773    0.0699 H   0  0  0  0  0  0  0  0  0  0  0  0
    4.6659   -6.0608   -0.9293 H   0  0  0  0  0  0  0  0  0  0  0  0
    1.8038   -4.9701    0.8393 H   0  0  0  0  0  0  0  0  0  0  0  0
    2.2005   -6.5854    0.4775 H   0  0  0  0  0  0  0  0  0  0  0  0
    1.4697   -6.3399    2.9671 H   0  0  0  0  0  0  0  0  0  0  0  0
    2.1790   -4.1165    3.5598 H   0  0  0  0  0  0  0  0  0  0  0  0
    3.2021   -5.0892    4.5361 H   0  0  0  0  0  0  0  0  0  0  0  0
    2.9546   -3.4505    1.4234 H   0  0  0  0  0  0  0  0  0  0  0  0
    4.1059   -8.6393    4.3393 H   0  0  0  0  0  0  0  0  0  0  0  0
    2.4003   -8.3798    4.3056 H   0  0  0  0  0  0  0  0  0  0  0  0
    3.3812   -7.1440    4.9710 H   0  0  0  0  0  0  0  0  0  0  0  0
    3.4278   -9.4181    2.2058 H   0  0  0  0  0  0  0  0  0  0  0  0
    3.0405   -8.4448    0.8463 H   0  0  0  0  0  0  0  0  0  0  0  0
    1.8321   -8.6917    2.0919 H   0  0  0  0  0  0  0  0  0  0  0  0
  1  2  1  0
  1 32  1  0
  1 33  1  0
  1 34  1  0
  2  3  2  0
  2  4  1  0
  4  5  1  0
  5 18  1  0
  5  6  1  0
  5 35  1  6
  6 26  1  0
  6  7  1  0
  6 36  1  6
  7  8  1  0
  7  9  1  0
  7 37  1  6
  8 38  1  0
  9 17  1  0
  9 10  1  0
  9 39  1  6
 10 16  1  0
 10 11  1  0
 10 40  1  1
 11 12  1  0
 11 41  1  0
 11 42  1  0
 12 30  1  0
 12 13  1  1
 12 15  1  0
 13 14  1  0
 13 43  1  0
 13 44  1  0
 14 45  1  0
 15 23  1  0
 15 16  1  0
 15 46  1  1
 16 17  1  0
 16 47  1  6
 17 18  1  0
 17 48  1  1
 18 19  1  0
 18 49  1  6
 19 26  1  0
 19 30  1  0
 19 20  1  6
 20 21  1  0
 20 50  1  0
 20 51  1  0
 21 22  1  0
 21 27  1  0
 21 52  1  1
 22 23  1  0
 22 53  1  0
 22 54  1  0
 23 24  1  1
 23 26  1  0
 24 25  3  0
 26 55  1  1
 27 28  1  0
 27 29  1  0
 27 30  1  0
 28 56  1  0
 28 57  1  0
 28 58  1  0
 29 59  1  0
 29 60  1  0
 29 61  1  0
 30 31  1  6
M  END
>  <i_m_ct_stereo_status>  (311) 
1

>  <s_m_source_file>  (311) 
/var/tmp/pbs.5076255.sched01/tmppj12hgr0/126t4bdxmoi.sdf

>  <i_m_source_file_index>  (311) 
6

>  <i_lp_mmshare_version>  (311) 
48012

>  <i_f3d_flags>  (311) 
0

>  <s_epik_input>  (311) 
W0NIM11DKD1PKU9bQ0BASF0xW0NASF0oW0NASF0yW09IXSlbQ0BASF0zW0NAQF00KEMjTilbQ0gyXVtDQEBIXShbQ0gyXTUpQyhbQ0gzXSkoW0NIM10pW0NAXTYoRilbQ0BdKFtDSDJdNykoW0NIMl1bT0hdKVtDQEhdNFtDQEhdOFtDQEBIXTdbQ0BIXTJbQ0BASF04W0NASF0xW0NAQF0zNTY=

>  <s_epik_cmdline>  (311) 
J2VwaWtfcHl0aG9uJywgJy1waHQnLCAnMi4wJywgJy1waCcsICc3LjAnLCAnLXRuJywgJzgnLCAnLW1hJywgJzIwMCcsICctaW1hZScsICc8aW5maWxlLm1hZT4nLCAnLW9tYWUnLCAnPG91dGZpbGUubWFlPic=

>  <r_lp_tautomer_probability>  (311) 
1

>  <r_epik_Ionization_Penalty>  (311) 
2.51281e-07

>  <r_epik_Ionization_Penalty_Charging>  (311) 
0

>  <r_epik_Ionization_Penalty_Neutral>  (311) 
2.51281e-07

>  <r_epik_State_Penalty>  (311) 
-0

>  <r_epik_Charging_Adjusted_Penalty>  (311) 
0

>  <i_epik_Tot_Q>  (311) 
0

>  <i_epik_Tot_abs_Q>  (311) 
0

>  <s_epik_Chemistry_Notes>  (311) 
This compound has an ester and may undergo hydrolysis at high or low pH.

>  <s_lp_Force_Field>  (311) 
OPLS3e

>  <r_lp_Energy>  (311) 
329.51

>  <b_lp_Chiralities_Consistent>  (311) 
1

>  <s_lp_Variant>  (311) 
93:0-1

>  <s_i_glide_gridfile>  (311) 
pfpi4k_grid

>  <i_i_glide_lignum>  (311) 
6

>  <i_i_glide_rotatable_bonds>  (311) 
6

>  <r_i_docking_score>  (311) 
-3.25281

>  <r_i_glide_ligand_efficiency>  (311) 
-0.104929

>  <r_i_glide_ligand_efficiency_sa>  (311) 
-0.329623

>  <r_i_glide_ligand_efficiency_ln>  (311) 
-0.733607

>  <r_i_glide_gscore>  (311) 
-3.25281

>  <r_i_glide_lipo>  (311) 
-0.536118

>  <r_i_glide_hbond>  (311) 
-0.278663

>  <r_i_glide_metal>  (311) 
-0

>  <r_i_glide_rewards>  (311) 
-0.712286

>  <r_i_glide_evdw>  (311) 
-22.6961

>  <r_i_glide_ecoul>  (311) 
-5.38809

>  <r_i_glide_erotb>  (311) 
0.217281

>  <r_i_glide_esite>  (311) 
0

>  <r_i_glide_emodel>  (311) 
-28.8846

>  <r_i_glide_energy>  (311) 
-28.0842

>  <r_i_glide_einternal>  (311) 
9.30056

>  <r_i_glide_intrahb_reward>  (311) 
-0

>  <i_i_glide_confnum>  (311) 
4

>  <i_i_glide_posenum>  (311) 
8

>  <r_i_glide_eff_state_penalty>  (311) 
0

>  <ligand_id>  (311) 
93

>  <original_smiles>  (311) 
CC(=O)OC1C2C(O)C3C4CC5(CO)C6C4C3C1C13CC(CC6(C#N)C21)C(C)(C)C53F

>  <smiles>  (311) 
[H]OC([H])([H])C12C([H])([H])C3([H])C4([H])C([H])(O[H])C5([H])C([H])(OC(=O)C([H])([H])[H])C6([H])C4([H])C3([H])C1([H])C1(C#N)C([H])([H])C3([H])C([H])([H])C6(C51[H])C2(F)C3(C([H])([H])[H])C([H])([H])[H]

$$$$
93:0:2
     RDKit          3D

 61 68  0  0  1  0  0  0  0  0999 V2000
    2.4707   -2.6983   -2.3717 C   0  0  0  0  0  0  0  0  0  0  0  0
    3.8690   -3.0383   -2.9077 C   0  0  0  0  0  0  0  0  0  0  0  0
    4.2009   -2.6969   -4.0069 O   0  0  0  0  0  0  0  0  0  0  0  0
    4.6594   -3.7449   -2.0450 O   0  0  0  0  0  0  0  0  0  0  0  0
    4.2587   -4.0964   -0.7211 C   0  0  2  0  0  0  0  0  0  0  0  0
    4.6949   -3.1595    0.4048 C   0  0  2  0  0  0  0  0  0  0  0  0
    6.2627   -2.8502    0.0382 C   0  0  1  0  0  0  0  0  0  0  0  0
    6.7957   -1.7069    0.6801 O   0  0  0  0  0  0  0  0  0  0  0  0
    7.2244   -4.1421    0.1635 C   0  0  1  0  0  0  0  0  0  0  0  0
    7.8563   -4.8872    1.5301 C   0  0  2  0  0  0  0  0  0  0  0  0
    7.6562   -6.3405    2.1781 C   0  0  0  0  0  0  0  0  0  0  0  0
    6.1811   -6.4702    2.8900 C   0  0  1  0  0  0  0  0  0  0  0  0
    6.4673   -7.2375    4.2313 C   0  0  0  0  0  0  0  0  0  0  0  0
    5.7804   -6.7715    5.3620 O   0  0  0  0  0  0  0  0  0  0  0  0
    5.8776   -5.0218    3.1304 C   0  0  1  0  0  0  0  0  0  0  0  0
    6.5540   -4.5379    1.9184 C   0  0  2  0  0  0  0  0  0  0  0  0
    6.2802   -5.2092    0.3832 C   0  0  1  0  0  0  0  0  0  0  0  0
    4.8652   -5.4003   -0.1957 C   0  0  1  0  0  0  0  0  0  0  0  0
    4.1478   -5.7134    1.0887 C   0  0  2  0  0  0  0  0  0  0  0  0
    2.6579   -6.0614    1.1986 C   0  0  0  0  0  0  0  0  0  0  0  0
    2.6897   -6.4508    2.6934 C   0  0  2  0  0  0  0  0  0  0  0  0
    3.2258   -5.2480    3.6081 C   0  0  0  0  0  0  0  0  0  0  0  0
    4.4398   -4.3919    3.0431 C   0  0  1  0  0  0  0  0  0  0  0  0
    4.4699   -3.0735    3.7220 C   0  0  0  0  0  0  0  0  0  0  0  0
    4.4947   -2.0543    4.2458 N   0  0  0  0  0  0  0  0  0  0  0  0
    4.0899   -4.1899    1.5601 C   0  0  1  0  0  0  0  0  0  0  0  0
    3.6600   -7.6411    2.6860 C   0  0  0  0  0  0  0  0  0  0  0  0
    3.6465   -8.3228    4.0895 C   0  0  0  0  0  0  0  0  0  0  0  0
    3.1466   -8.8436    1.8188 C   0  0  0  0  0  0  0  0  0  0  0  0
    4.9014   -6.9154    1.9943 C   0  0  2  0  0  0  0  0  0  0  0  0
    5.4138   -7.8452    1.1758 F   0  0  0  0  0  0  0  0  0  0  0  0
    2.5574   -2.1823   -1.4196 H   0  0  0  0  0  0  0  0  0  0  0  0
    1.8857   -3.6095   -2.2488 H   0  0  0  0  0  0  0  0  0  0  0  0
    1.9375   -2.0484   -3.0644 H   0  0  0  0  0  0  0  0  0  0  0  0
    3.1776   -4.2413   -0.6909 H   0  0  0  0  0  0  0  0  0  0  0  0
    4.1286   -2.2200    0.3736 H   0  0  0  0  0  0  0  0  0  0  0  0
    6.3285   -2.5055   -0.9940 H   0  0  0  0  0  0  0  0  0  0  0  0
    6.1098   -1.0352    0.7296 H   0  0  0  0  0  0  0  0  0  0  0  0
    7.8776   -4.2539   -0.7011 H   0  0  0  0  0  0  0  0  0  0  0  0
    8.6136   -4.2725    2.0119 H   0  0  0  0  0  0  0  0  0  0  0  0
    7.8549   -7.1594    1.4860 H   0  0  0  0  0  0  0  0  0  0  0  0
    8.4702   -6.4468    2.8946 H   0  0  0  0  0  0  0  0  0  0  0  0
    6.3752   -8.3177    4.0746 H   0  0  0  0  0  0  0  0  0  0  0  0
    7.5151   -7.1338    4.5402 H   0  0  0  0  0  0  0  0  0  0  0  0
    5.9716   -5.8269    5.5162 H   0  0  0  0  0  0  0  0  0  0  0  0
    6.4004   -4.6629    4.0160 H   0  0  0  0  0  0  0  0  0  0  0  0
    6.6148   -3.4716    2.1858 H   0  0  0  0  0  0  0  0  0  0  0  0
    6.7798   -6.1340    0.0439 H   0  0  0  0  0  0  0  0  0  0  0  0
    4.7846   -6.2162   -0.9203 H   0  0  0  0  0  0  0  0  0  0  0  0
    1.9339   -5.2782    0.9873 H   0  0  0  0  0  0  0  0  0  0  0  0
    2.3662   -6.8562    0.5242 H   0  0  0  0  0  0  0  0  0  0  0  0
    1.7053   -6.7699    3.0376 H   0  0  0  0  0  0  0  0  0  0  0  0
    2.3844   -4.5658    3.7275 H   0  0  0  0  0  0  0  0  0  0  0  0
    3.4523   -5.5659    4.6215 H   0  0  0  0  0  0  0  0  0  0  0  0
    3.0837   -3.7721    1.6096 H   0  0  0  0  0  0  0  0  0  0  0  0
    4.4193   -9.0810    4.2117 H   0  0  0  0  0  0  0  0  0  0  0  0
    2.7065   -8.8657    4.2257 H   0  0  0  0  0  0  0  0  0  0  0  0
    3.6597   -7.6464    4.9359 H   0  0  0  0  0  0  0  0  0  0  0  0
    3.7081   -9.7526    2.0478 H   0  0  0  0  0  0  0  0  0  0  0  0
    3.2606   -8.7213    0.7444 H   0  0  0  0  0  0  0  0  0  0  0  0
    2.0970   -9.0622    2.0173 H   0  0  0  0  0  0  0  0  0  0  0  0
  1  2  1  0
  1 32  1  0
  1 33  1  0
  1 34  1  0
  2  3  2  0
  2  4  1  0
  4  5  1  0
  5 18  1  0
  5  6  1  0
  5 35  1  6
  6 26  1  0
  6  7  1  0
  6 36  1  6
  7  8  1  0
  7  9  1  0
  7 37  1  6
  8 38  1  0
  9 17  1  0
  9 10  1  0
  9 39  1  6
 10 16  1  0
 10 11  1  0
 10 40  1  1
 11 12  1  0
 11 41  1  0
 11 42  1  0
 12 30  1  0
 12 13  1  1
 12 15  1  0
 13 14  1  0
 13 43  1  0
 13 44  1  0
 14 45  1  0
 15 23  1  0
 15 16  1  0
 15 46  1  1
 16 17  1  0
 16 47  1  6
 17 18  1  0
 17 48  1  1
 18 19  1  0
 18 49  1  6
 19 26  1  0
 19 30  1  0
 19 20  1  6
 20 21  1  0
 20 50  1  0
 20 51  1  0
 21 22  1  0
 21 27  1  0
 21 52  1  1
 22 23  1  0
 22 53  1  0
 22 54  1  0
 23 24  1  1
 23 26  1  0
 24 25  3  0
 26 55  1  1
 27 28  1  0
 27 29  1  0
 27 30  1  0
 28 56  1  0
 28 57  1  0
 28 58  1  0
 29 59  1  0
 29 60  1  0
 29 61  1  0
 30 31  1  6
M  END
>  <i_m_ct_stereo_status>  (312) 
1

>  <s_m_source_file>  (312) 
/var/tmp/pbs.5076255.sched01/tmppj12hgr0/126t4bdxmoi.sdf

>  <i_m_source_file_index>  (312) 
6

>  <i_lp_mmshare_version>  (312) 
48012

>  <i_f3d_flags>  (312) 
0

>  <s_epik_input>  (312) 
W0NIM11DKD1PKU9bQ0BASF0xW0NASF0oW0NASF0yW09IXSlbQ0BASF0zW0NAQF00KEMjTilbQ0gyXVtDQEBIXShbQ0gyXTUpQyhbQ0gzXSkoW0NIM10pW0NAXTYoRilbQ0BdKFtDSDJdNykoW0NIMl1bT0hdKVtDQEhdNFtDQEhdOFtDQEBIXTdbQ0BIXTJbQ0BASF04W0NASF0xW0NAQF0zNTY=

>  <s_epik_cmdline>  (312) 
J2VwaWtfcHl0aG9uJywgJy1waHQnLCAnMi4wJywgJy1waCcsICc3LjAnLCAnLXRuJywgJzgnLCAnLW1hJywgJzIwMCcsICctaW1hZScsICc8aW5maWxlLm1hZT4nLCAnLW9tYWUnLCAnPG91dGZpbGUubWFlPic=

>  <r_lp_tautomer_probability>  (312) 
1

>  <r_epik_Ionization_Penalty>  (312) 
2.51281e-07

>  <r_epik_Ionization_Penalty_Charging>  (312) 
0

>  <r_epik_Ionization_Penalty_Neutral>  (312) 
2.51281e-07

>  <r_epik_State_Penalty>  (312) 
-0

>  <r_epik_Charging_Adjusted_Penalty>  (312) 
0

>  <i_epik_Tot_Q>  (312) 
0

>  <i_epik_Tot_abs_Q>  (312) 
0

>  <s_epik_Chemistry_Notes>  (312) 
This compound has an ester and may undergo hydrolysis at high or low pH.

>  <s_lp_Force_Field>  (312) 
OPLS3e

>  <r_lp_Energy>  (312) 
329.51

>  <b_lp_Chiralities_Consistent>  (312) 
1

>  <s_lp_Variant>  (312) 
93:0-1

>  <s_i_glide_gridfile>  (312) 
pfpi4k_grid

>  <i_i_glide_lignum>  (312) 
6

>  <i_i_glide_rotatable_bonds>  (312) 
6

>  <r_i_docking_score>  (312) 
-3.06013

>  <r_i_glide_ligand_efficiency>  (312) 
-0.0987138

>  <r_i_glide_ligand_efficiency_sa>  (312) 
-0.310098

>  <r_i_glide_ligand_efficiency_ln>  (312) 
-0.690153

>  <r_i_glide_gscore>  (312) 
-3.06013

>  <r_i_glide_lipo>  (312) 
-0.608209

>  <r_i_glide_hbond>  (312) 
-0.209923

>  <r_i_glide_metal>  (312) 
-0

>  <r_i_glide_rewards>  (312) 
-0.629766

>  <r_i_glide_evdw>  (312) 
-22.8732

>  <r_i_glide_ecoul>  (312) 
-4.57234

>  <r_i_glide_erotb>  (312) 
0.217281

>  <r_i_glide_esite>  (312) 
0

>  <r_i_glide_emodel>  (312) 
-27.9582

>  <r_i_glide_energy>  (312) 
-27.4455

>  <r_i_glide_einternal>  (312) 
9.3011

>  <r_i_glide_intrahb_reward>  (312) 
-0

>  <i_i_glide_confnum>  (312) 
4

>  <i_i_glide_posenum>  (312) 
17

>  <r_i_glide_eff_state_penalty>  (312) 
0

>  <ligand_id>  (312) 
93

>  <original_smiles>  (312) 
CC(=O)OC1C2C(O)C3C4CC5(CO)C6C4C3C1C13CC(CC6(C#N)C21)C(C)(C)C53F

>  <smiles>  (312) 
[H]OC([H])([H])C12C([H])([H])C3([H])C4([H])C([H])(O[H])C5([H])C([H])(OC(=O)C([H])([H])[H])C6([H])C4([H])C3([H])C1([H])C1(C#N)C([H])([H])C3([H])C([H])([H])C6(C51[H])C2(F)C3(C([H])([H])[H])C([H])([H])[H]

$$$$
94:0:0
     RDKit          3D

 15 16  0  0  1  0  0  0  0  0999 V2000
    5.5761   -3.8101    1.2503 F   0  0  0  0  0  0  0  0  0  0  0  0
    5.3304   -3.4831   -0.0415 C   0  0  0  0  0  0  0  0  0  0  0  0
    6.4004   -3.3786   -0.9635 C   0  0  0  0  0  0  0  0  0  0  0  0
    6.1526   -3.0586   -2.2805 C   0  0  0  0  0  0  0  0  0  0  0  0
    4.8220   -2.8263   -2.7203 C   0  0  0  0  0  0  0  0  0  0  0  0
    4.3093   -2.5042   -3.9101 N   0  0  0  0  0  0  0  0  0  0  0  0
    2.9417   -2.3930   -3.7170 C   0  0  0  0  0  0  0  0  0  0  0  0
    2.6133   -2.6583   -2.4197 C   0  0  0  0  0  0  0  0  0  0  0  0
    3.7916   -2.9365   -1.7539 N   0  0  0  0  0  0  0  0  0  0  0  0
    4.0354   -3.2578   -0.4517 C   0  0  0  0  0  0  0  0  0  0  0  0
    7.4189   -3.5688   -0.6365 H   0  0  0  0  0  0  0  0  0  0  0  0
    6.9648   -2.9979   -2.9940 H   0  0  0  0  0  0  0  0  0  0  0  0
    2.2846   -2.1177   -4.5253 H   0  0  0  0  0  0  0  0  0  0  0  0
    1.6697   -2.6576   -1.9031 H   0  0  0  0  0  0  0  0  0  0  0  0
    3.1814   -3.3145    0.2175 H   0  0  0  0  0  0  0  0  0  0  0  0
  1  2  1  0
  2 10  2  0
  2  3  1  0
  3  4  2  0
  3 11  1  0
  4  5  1  0
  4 12  1  0
  5  9  1  0
  5  6  2  0
  6  7  1  0
  7  8  2  0
  7 13  1  0
  8  9  1  0
  8 14  1  0
  9 10  1  0
 10 15  1  0
M  END
>  <i_m_ct_stereo_status>  (313) 
1

>  <s_m_source_file>  (313) 
/var/tmp/pbs.5076255.sched01/tmppj12hgr0/126t4bdxmoi.sdf

>  <i_m_source_file_index>  (313) 
7

>  <i_lp_mmshare_version>  (313) 
48012

>  <i_f3d_flags>  (313) 
0

>  <s_epik_input>  (313) 
W2NIXTFbY0hdYyhGKVtjSF1uKGMxMilbY0hdW2NIXW4y

>  <s_epik_cmdline>  (313) 
J2VwaWtfcHl0aG9uJywgJy1waHQnLCAnMi4wJywgJy1waCcsICc3LjAnLCAnLXRuJywgJzgnLCAnLW1hJywgJzIwMCcsICctaW1hZScsICc8aW5maWxlLm1hZT4nLCAnLW9tYWUnLCAnPG91dGZpbGUubWFlPic=

>  <r_epik_Ionization_Penalty>  (313) 
0.0335519

>  <r_epik_Ionization_Penalty_Charging>  (313) 
0.0335519

>  <r_epik_Ionization_Penalty_Neutral>  (313) 
0

>  <r_epik_State_Penalty>  (313) 
0.0278614

>  <r_epik_Charging_Adjusted_Penalty>  (313) 
0.0614133

>  <i_epik_Tot_Q>  (313) 
0

>  <i_epik_Tot_abs_Q>  (313) 
0

>  <s_lp_Force_Field>  (313) 
OPLS3e

>  <r_lp_Energy>  (313) 
11.3371

>  <b_lp_Chiralities_Consistent>  (313) 
1

>  <s_lp_Variant>  (313) 
94:0-1

>  <s_i_glide_gridfile>  (313) 
pfpi4k_grid

>  <i_i_glide_lignum>  (313) 
7

>  <i_i_glide_rotatable_bonds>  (313) 
0

>  <r_i_docking_score>  (313) 
-5.48945

>  <r_i_glide_ligand_efficiency>  (313) 
-0.548945

>  <r_i_glide_ligand_efficiency_sa>  (313) 
-1.18267

>  <r_i_glide_ligand_efficiency_ln>  (313) 
-1.66217

>  <r_i_glide_gscore>  (313) 
-5.48945

>  <r_i_glide_lipo>  (313) 
-0.594371

>  <r_i_glide_hbond>  (313) 
-0.157921

>  <r_i_glide_metal>  (313) 
-0

>  <r_i_glide_rewards>  (313) 
-3.26855

>  <r_i_glide_evdw>  (313) 
-14.6254

>  <r_i_glide_ecoul>  (313) 
-4.79985

>  <r_i_glide_erotb>  (313) 
0

>  <r_i_glide_esite>  (313) 
-0.0173623

>  <r_i_glide_emodel>  (313) 
-26.4705

>  <r_i_glide_energy>  (313) 
-19.4252

>  <r_i_glide_einternal>  (313) 
0

>  <r_i_glide_intrahb_reward>  (313) 
-0

>  <i_i_glide_confnum>  (313) 
2

>  <i_i_glide_posenum>  (313) 
17

>  <r_i_glide_eff_state_penalty>  (313) 
0

>  <ligand_id>  (313) 
94

>  <original_smiles>  (313) 
Fc1ccc2nccn2c1

>  <smiles>  (313) 
[H]c1nc2c([H])c([H])c(F)c([H])n2c1[H]

$$$$
94:0:1
     RDKit          3D

 15 16  0  0  1  0  0  0  0  0999 V2000
    4.6910   -2.4437    1.1406 F   0  0  0  0  0  0  0  0  0  0  0  0
    4.6190   -2.4167   -0.2109 C   0  0  0  0  0  0  0  0  0  0  0  0
    5.3652   -3.3483   -0.9752 C   0  0  0  0  0  0  0  0  0  0  0  0
    5.2894   -3.3332   -2.3498 C   0  0  0  0  0  0  0  0  0  0  0  0
    4.4553   -2.3877   -2.9997 C   0  0  0  0  0  0  0  0  0  0  0  0
    4.2041   -2.1546   -4.2886 N   0  0  0  0  0  0  0  0  0  0  0  0
    3.3431   -1.0672   -4.3310 C   0  0  0  0  0  0  0  0  0  0  0  0
    3.0400   -0.6567   -3.0739 C   0  0  0  0  0  0  0  0  0  0  0  0
    3.7403   -1.4704   -2.1956 N   0  0  0  0  0  0  0  0  0  0  0  0
    3.8166   -1.4859   -0.8320 C   0  0  0  0  0  0  0  0  0  0  0  0
    5.9887   -4.0890   -0.4809 H   0  0  0  0  0  0  0  0  0  0  0  0
    5.8463   -4.0390   -2.9520 H   0  0  0  0  0  0  0  0  0  0  0  0
    2.9856   -0.6636   -5.2739 H   0  0  0  0  0  0  0  0  0  0  0  0
    2.3892    0.1304   -2.7211 H   0  0  0  0  0  0  0  0  0  0  0  0
    3.2141   -0.7621   -0.2901 H   0  0  0  0  0  0  0  0  0  0  0  0
  1  2  1  0
  2 10  2  0
  2  3  1  0
  3  4  2  0
  3 11  1  0
  4  5  1  0
  4 12  1  0
  5  9  1  0
  5  6  2  0
  6  7  1  0
  7  8  2  0
  7 13  1  0
  8  9  1  0
  8 14  1  0
  9 10  1  0
 10 15  1  0
M  END
>  <i_m_ct_stereo_status>  (314) 
1

>  <s_m_source_file>  (314) 
/var/tmp/pbs.5076255.sched01/tmppj12hgr0/126t4bdxmoi.sdf

>  <i_m_source_file_index>  (314) 
7

>  <i_lp_mmshare_version>  (314) 
48012

>  <i_f3d_flags>  (314) 
0

>  <s_epik_input>  (314) 
W2NIXTFbY0hdYyhGKVtjSF1uKGMxMilbY0hdW2NIXW4y

>  <s_epik_cmdline>  (314) 
J2VwaWtfcHl0aG9uJywgJy1waHQnLCAnMi4wJywgJy1waCcsICc3LjAnLCAnLXRuJywgJzgnLCAnLW1hJywgJzIwMCcsICctaW1hZScsICc8aW5maWxlLm1hZT4nLCAnLW9tYWUnLCAnPG91dGZpbGUubWFlPic=

>  <r_epik_Ionization_Penalty>  (314) 
0.0335519

>  <r_epik_Ionization_Penalty_Charging>  (314) 
0.0335519

>  <r_epik_Ionization_Penalty_Neutral>  (314) 
0

>  <r_epik_State_Penalty>  (314) 
0.0278614

>  <r_epik_Charging_Adjusted_Penalty>  (314) 
0.0614133

>  <i_epik_Tot_Q>  (314) 
0

>  <i_epik_Tot_abs_Q>  (314) 
0

>  <s_lp_Force_Field>  (314) 
OPLS3e

>  <r_lp_Energy>  (314) 
11.3371

>  <b_lp_Chiralities_Consistent>  (314) 
1

>  <s_lp_Variant>  (314) 
94:0-1

>  <s_i_glide_gridfile>  (314) 
pfpi4k_grid

>  <i_i_glide_lignum>  (314) 
7

>  <i_i_glide_rotatable_bonds>  (314) 
0

>  <r_i_docking_score>  (314) 
-4.64316

>  <r_i_glide_ligand_efficiency>  (314) 
-0.464316

>  <r_i_glide_ligand_efficiency_sa>  (314) 
-1.00034

>  <r_i_glide_ligand_efficiency_ln>  (314) 
-1.40592

>  <r_i_glide_gscore>  (314) 
-4.64316

>  <r_i_glide_lipo>  (314) 
-0.318098

>  <r_i_glide_hbond>  (314) 
-0.32

>  <r_i_glide_metal>  (314) 
-0

>  <r_i_glide_rewards>  (314) 
-2.44599

>  <r_i_glide_evdw>  (314) 
-13.6231

>  <r_i_glide_ecoul>  (314) 
-5.46187

>  <r_i_glide_erotb>  (314) 
0

>  <r_i_glide_esite>  (314) 
-0.0586338

>  <r_i_glide_emodel>  (314) 
-25.0379

>  <r_i_glide_energy>  (314) 
-19.0849

>  <r_i_glide_einternal>  (314) 
0

>  <r_i_glide_intrahb_reward>  (314) 
-0

>  <i_i_glide_confnum>  (314) 
1

>  <i_i_glide_posenum>  (314) 
8

>  <r_i_glide_eff_state_penalty>  (314) 
0

>  <ligand_id>  (314) 
94

>  <original_smiles>  (314) 
Fc1ccc2nccn2c1

>  <smiles>  (314) 
[H]c1nc2c([H])c([H])c(F)c([H])n2c1[H]

$$$$
94:0:2
     RDKit          3D

 15 16  0  0  1  0  0  0  0  0999 V2000
    2.5794   -4.3364    0.6649 F   0  0  0  0  0  0  0  0  0  0  0  0
    3.0147   -3.3921   -0.2041 C   0  0  0  0  0  0  0  0  0  0  0  0
    3.8698   -2.3557    0.2484 C   0  0  0  0  0  0  0  0  0  0  0  0
    4.3197   -1.3928   -0.6281 C   0  0  0  0  0  0  0  0  0  0  0  0
    3.9239   -1.4419   -1.9915 C   0  0  0  0  0  0  0  0  0  0  0  0
    4.2136   -0.6604   -3.0309 N   0  0  0  0  0  0  0  0  0  0  0  0
    3.5292   -1.1894   -4.1132 C   0  0  0  0  0  0  0  0  0  0  0  0
    2.8448   -2.3163   -3.7495 C   0  0  0  0  0  0  0  0  0  0  0  0
    3.0675   -2.4974   -2.3936 N   0  0  0  0  0  0  0  0  0  0  0  0
    2.6224   -3.4468   -1.5223 C   0  0  0  0  0  0  0  0  0  0  0  0
    4.1692   -2.3146    1.2930 H   0  0  0  0  0  0  0  0  0  0  0  0
    4.9640   -0.5880   -0.2949 H   0  0  0  0  0  0  0  0  0  0  0  0
    3.5922   -0.7105   -5.0811 H   0  0  0  0  0  0  0  0  0  0  0  0
    2.2025   -2.9936   -4.2955 H   0  0  0  0  0  0  0  0  0  0  0  0
    1.9699   -4.2205   -1.9205 H   0  0  0  0  0  0  0  0  0  0  0  0
  1  2  1  0
  2 10  2  0
  2  3  1  0
  3  4  2  0
  3 11  1  0
  4  5  1  0
  4 12  1  0
  5  9  1  0
  5  6  2  0
  6  7  1  0
  7  8  2  0
  7 13  1  0
  8  9  1  0
  8 14  1  0
  9 10  1  0
 10 15  1  0
M  END
>  <i_m_ct_stereo_status>  (315) 
1

>  <s_m_source_file>  (315) 
/var/tmp/pbs.5076255.sched01/tmppj12hgr0/126t4bdxmoi.sdf

>  <i_m_source_file_index>  (315) 
7

>  <i_lp_mmshare_version>  (315) 
48012

>  <i_f3d_flags>  (315) 
0

>  <s_epik_input>  (315) 
W2NIXTFbY0hdYyhGKVtjSF1uKGMxMilbY0hdW2NIXW4y

>  <s_epik_cmdline>  (315) 
J2VwaWtfcHl0aG9uJywgJy1waHQnLCAnMi4wJywgJy1waCcsICc3LjAnLCAnLXRuJywgJzgnLCAnLW1hJywgJzIwMCcsICctaW1hZScsICc8aW5maWxlLm1hZT4nLCAnLW9tYWUnLCAnPG91dGZpbGUubWFlPic=

>  <r_epik_Ionization_Penalty>  (315) 
0.0335519

>  <r_epik_Ionization_Penalty_Charging>  (315) 
0.0335519

>  <r_epik_Ionization_Penalty_Neutral>  (315) 
0

>  <r_epik_State_Penalty>  (315) 
0.0278614

>  <r_epik_Charging_Adjusted_Penalty>  (315) 
0.0614133

>  <i_epik_Tot_Q>  (315) 
0

>  <i_epik_Tot_abs_Q>  (315) 
0

>  <s_lp_Force_Field>  (315) 
OPLS3e

>  <r_lp_Energy>  (315) 
11.3371

>  <b_lp_Chiralities_Consistent>  (315) 
1

>  <s_lp_Variant>  (315) 
94:0-1

>  <s_i_glide_gridfile>  (315) 
pfpi4k_grid

>  <i_i_glide_lignum>  (315) 
7

>  <i_i_glide_rotatable_bonds>  (315) 
0

>  <r_i_docking_score>  (315) 
-3.98611

>  <r_i_glide_ligand_efficiency>  (315) 
-0.398611

>  <r_i_glide_ligand_efficiency_sa>  (315) 
-0.858781

>  <r_i_glide_ligand_efficiency_ln>  (315) 
-1.20697

>  <r_i_glide_gscore>  (315) 
-3.98611

>  <r_i_glide_lipo>  (315) 
-0.381011

>  <r_i_glide_hbond>  (315) 
0

>  <r_i_glide_metal>  (315) 
-0

>  <r_i_glide_rewards>  (315) 
-2.25

>  <r_i_glide_evdw>  (315) 
-16.9541

>  <r_i_glide_ecoul>  (315) 
-2.51681

>  <r_i_glide_erotb>  (315) 
0

>  <r_i_glide_esite>  (315) 
-0.129871

>  <r_i_glide_emodel>  (315) 
-24.5868

>  <r_i_glide_energy>  (315) 
-19.4709

>  <r_i_glide_einternal>  (315) 
0

>  <r_i_glide_intrahb_reward>  (315) 
-0

>  <i_i_glide_confnum>  (315) 
1

>  <i_i_glide_posenum>  (315) 
1

>  <r_i_glide_eff_state_penalty>  (315) 
0

>  <ligand_id>  (315) 
94

>  <original_smiles>  (315) 
Fc1ccc2nccn2c1

>  <smiles>  (315) 
[H]c1nc2c([H])c([H])c(F)c([H])n2c1[H]

$$$$
94:1:0
     RDKit          3D

 16 17  0  0  1  0  0  0  0  0999 V2000
    2.6704   -4.2874    0.8920 F   0  0  0  0  0  0  0  0  0  0  0  0
    3.0546   -3.3400    0.0158 C   0  0  0  0  0  0  0  0  0  0  0  0
    3.8705   -2.2530    0.4451 C   0  0  0  0  0  0  0  0  0  0  0  0
    4.2575   -1.2827   -0.4540 C   0  0  0  0  0  0  0  0  0  0  0  0
    3.8154   -1.4492   -1.7585 C   0  0  0  0  0  0  0  0  0  0  0  0
    4.0313   -0.6665   -2.8091 N   0  0  0  0  0  0  0  0  0  0  0  0
    3.3571   -1.2317   -3.8924 C   0  0  0  0  0  0  0  0  0  0  0  0
    2.7290   -2.3925   -3.5025 C   0  0  0  0  0  0  0  0  0  0  0  0
    3.0594   -2.4557   -2.1664 N   0  0  0  0  0  0  0  0  0  0  0  0
    2.6412   -3.4315   -1.2954 C   0  0  0  0  0  0  0  0  0  0  0  0
    4.1792   -2.1870    1.4781 H   0  0  0  0  0  0  0  0  0  0  0  0
    4.8545   -0.4198   -0.1919 H   0  0  0  0  0  0  0  0  0  0  0  0
    3.3640   -0.7290   -4.8430 H   0  0  0  0  0  0  0  0  0  0  0  0
    2.0951   -3.1020   -4.0152 H   0  0  0  0  0  0  0  0  0  0  0  0
    2.0037   -4.1930   -1.6946 H   0  0  0  0  0  0  0  0  0  0  0  0
    4.5235    0.2121   -2.7889 H   0  0  0  0  0  0  0  0  0  0  0  0
  1  2  1  0
  2 10  2  0
  2  3  1  0
  3  4  2  0
  3 11  1  0
  4  5  1  0
  4 12  1  0
  5  9  1  0
  5  6  2  0
  6  7  1  0
  6 16  1  0
  7  8  2  0
  7 13  1  0
  8  9  1  0
  8 14  1  0
  9 10  1  0
 10 15  1  0
M  CHG  1   6   1
M  END
>  <i_m_ct_stereo_status>  (316) 
1

>  <s_m_source_file>  (316) 
/var/tmp/pbs.5076255.sched01/tmppj12hgr0/126t4bdxmoi.sdf

>  <i_m_source_file_index>  (316) 
8

>  <i_lp_mmshare_version>  (316) 
48012

>  <i_f3d_flags>  (316) 
0

>  <s_epik_input>  (316) 
W2NIXTFbY0hdYyhGKVtjSF1uKGMxMilbY0hdW2NIXW4y

>  <s_epik_cmdline>  (316) 
J2VwaWtfcHl0aG9uJywgJy1waHQnLCAnMi4wJywgJy1waCcsICc3LjAnLCAnLXRuJywgJzgnLCAnLW1hJywgJzIwMCcsICctaW1hZScsICc8aW5maWxlLm1hZT4nLCAnLW9tYWUnLCAnPG91dGZpbGUubWFlPic=

>  <r_epik_Ionization_Penalty>  (316) 
1.71786

>  <r_epik_Ionization_Penalty_Charging>  (316) 
0

>  <r_epik_Ionization_Penalty_Neutral>  (316) 
1.71786

>  <r_epik_State_Penalty>  (316) 
1.82515

>  <r_epik_Charging_Adjusted_Penalty>  (316) 
1.82515

>  <i_epik_Tot_Q>  (316) 
1

>  <i_epik_Tot_abs_Q>  (316) 
1

>  <s_lp_Force_Field>  (316) 
OPLS3e

>  <r_lp_Energy>  (316) 
16.4193

>  <b_lp_Chiralities_Consistent>  (316) 
1

>  <s_lp_Variant>  (316) 
94:0-2

>  <s_i_glide_gridfile>  (316) 
pfpi4k_grid

>  <i_i_glide_lignum>  (316) 
8

>  <i_i_glide_rotatable_bonds>  (316) 
0

>  <r_i_docking_score>  (316) 
-4.29528

>  <r_i_glide_ligand_efficiency>  (316) 
-0.429528

>  <r_i_glide_ligand_efficiency_sa>  (316) 
-0.92539

>  <r_i_glide_ligand_efficiency_ln>  (316) 
-1.30058

>  <r_i_glide_gscore>  (316) 
-4.29528

>  <r_i_glide_lipo>  (316) 
-0.427534

>  <r_i_glide_hbond>  (316) 
0

>  <r_i_glide_metal>  (316) 
-0

>  <r_i_glide_rewards>  (316) 
-2.25

>  <r_i_glide_evdw>  (316) 
-14.9931

>  <r_i_glide_ecoul>  (316) 
-4.8578

>  <r_i_glide_erotb>  (316) 
0

>  <r_i_glide_esite>  (316) 
-0.13942

>  <r_i_glide_emodel>  (316) 
-27.924

>  <r_i_glide_energy>  (316) 
-19.8509

>  <r_i_glide_einternal>  (316) 
0

>  <r_i_glide_intrahb_reward>  (316) 
-0

>  <i_i_glide_confnum>  (316) 
2

>  <i_i_glide_posenum>  (316) 
31

>  <r_i_glide_eff_state_penalty>  (316) 
0

>  <ligand_id>  (316) 
94

>  <original_smiles>  (316) 
Fc1ccc2nccn2c1

>  <smiles>  (316) 
[H]c1c(F)c([H])n2c([H])c([H])[n+]([H])c2c1[H]

$$$$
94:1:1
     RDKit          3D

 16 17  0  0  1  0  0  0  0  0999 V2000
    6.1221   -4.3995    0.0985 F   0  0  0  0  0  0  0  0  0  0  0  0
    5.4738   -3.4151   -0.5632 C   0  0  0  0  0  0  0  0  0  0  0  0
    5.3506   -2.1245    0.0209 C   0  0  0  0  0  0  0  0  0  0  0  0
    4.6925   -1.1177   -0.6547 C   0  0  0  0  0  0  0  0  0  0  0  0
    4.1774   -1.4385   -1.9025 C   0  0  0  0  0  0  0  0  0  0  0  0
    3.5117   -0.6697   -2.7640 N   0  0  0  0  0  0  0  0  0  0  0  0
    3.1970   -1.4570   -3.8720 C   0  0  0  0  0  0  0  0  0  0  0  0
    3.6886   -2.7313   -3.6889 C   0  0  0  0  0  0  0  0  0  0  0  0
    4.2869   -2.6388   -2.4532 N   0  0  0  0  0  0  0  0  0  0  0  0
    4.9349   -3.6640   -1.8071 C   0  0  0  0  0  0  0  0  0  0  0  0
    5.7782   -1.9388    1.0021 H   0  0  0  0  0  0  0  0  0  0  0  0
    4.5673   -0.1250   -0.2401 H   0  0  0  0  0  0  0  0  0  0  0  0
    2.6258   -1.0247   -4.6821 H   0  0  0  0  0  0  0  0  0  0  0  0
    3.6380   -3.6294   -4.2863 H   0  0  0  0  0  0  0  0  0  0  0  0
    4.9886   -4.6209   -2.3147 H   0  0  0  0  0  0  0  0  0  0  0  0
    3.2278    0.2970   -2.6310 H   0  0  0  0  0  0  0  0  0  0  0  0
  1  2  1  0
  2 10  2  0
  2  3  1  0
  3  4  2  0
  3 11  1  0
  4  5  1  0
  4 12  1  0
  5  9  1  0
  5  6  2  0
  6  7  1  0
  6 16  1  0
  7  8  2  0
  7 13  1  0
  8  9  1  0
  8 14  1  0
  9 10  1  0
 10 15  1  0
M  CHG  1   6   1
M  END
>  <i_m_ct_stereo_status>  (317) 
1

>  <s_m_source_file>  (317) 
/var/tmp/pbs.5076255.sched01/tmppj12hgr0/126t4bdxmoi.sdf

>  <i_m_source_file_index>  (317) 
8

>  <i_lp_mmshare_version>  (317) 
48012

>  <i_f3d_flags>  (317) 
0

>  <s_epik_input>  (317) 
W2NIXTFbY0hdYyhGKVtjSF1uKGMxMilbY0hdW2NIXW4y

>  <s_epik_cmdline>  (317) 
J2VwaWtfcHl0aG9uJywgJy1waHQnLCAnMi4wJywgJy1waCcsICc3LjAnLCAnLXRuJywgJzgnLCAnLW1hJywgJzIwMCcsICctaW1hZScsICc8aW5maWxlLm1hZT4nLCAnLW9tYWUnLCAnPG91dGZpbGUubWFlPic=

>  <r_epik_Ionization_Penalty>  (317) 
1.71786

>  <r_epik_Ionization_Penalty_Charging>  (317) 
0

>  <r_epik_Ionization_Penalty_Neutral>  (317) 
1.71786

>  <r_epik_State_Penalty>  (317) 
1.82515

>  <r_epik_Charging_Adjusted_Penalty>  (317) 
1.82515

>  <i_epik_Tot_Q>  (317) 
1

>  <i_epik_Tot_abs_Q>  (317) 
1

>  <s_lp_Force_Field>  (317) 
OPLS3e

>  <r_lp_Energy>  (317) 
16.4193

>  <b_lp_Chiralities_Consistent>  (317) 
1

>  <s_lp_Variant>  (317) 
94:0-2

>  <s_i_glide_gridfile>  (317) 
pfpi4k_grid

>  <i_i_glide_lignum>  (317) 
8

>  <i_i_glide_rotatable_bonds>  (317) 
0

>  <r_i_docking_score>  (317) 
-4.28539

>  <r_i_glide_ligand_efficiency>  (317) 
-0.428539

>  <r_i_glide_ligand_efficiency_sa>  (317) 
-0.923259

>  <r_i_glide_ligand_efficiency_ln>  (317) 
-1.29759

>  <r_i_glide_gscore>  (317) 
-4.28539

>  <r_i_glide_lipo>  (317) 
-0.396079

>  <r_i_glide_hbond>  (317) 
0

>  <r_i_glide_metal>  (317) 
-0

>  <r_i_glide_rewards>  (317) 
-2.41477

>  <r_i_glide_evdw>  (317) 
-15.5948

>  <r_i_glide_ecoul>  (317) 
-4.28326

>  <r_i_glide_erotb>  (317) 
0

>  <r_i_glide_esite>  (317) 
-0.0523093

>  <r_i_glide_emodel>  (317) 
-27.9392

>  <r_i_glide_energy>  (317) 
-19.878

>  <r_i_glide_einternal>  (317) 
0

>  <r_i_glide_intrahb_reward>  (317) 
-0

>  <i_i_glide_confnum>  (317) 
2

>  <i_i_glide_posenum>  (317) 
25

>  <r_i_glide_eff_state_penalty>  (317) 
0

>  <ligand_id>  (317) 
94

>  <original_smiles>  (317) 
Fc1ccc2nccn2c1

>  <smiles>  (317) 
[H]c1c(F)c([H])n2c([H])c([H])[n+]([H])c2c1[H]

$$$$
94:1:2
     RDKit          3D

 16 17  0  0  1  0  0  0  0  0999 V2000
    3.4864   -1.8332   -4.3088 F   0  0  0  0  0  0  0  0  0  0  0  0
    3.5629   -1.9559   -2.9617 C   0  0  0  0  0  0  0  0  0  0  0  0
    4.2099   -0.9488   -2.1893 C   0  0  0  0  0  0  0  0  0  0  0  0
    4.3034   -1.0743   -0.8158 C   0  0  0  0  0  0  0  0  0  0  0  0
    3.7372   -2.2105   -0.2682 C   0  0  0  0  0  0  0  0  0  0  0  0
    3.6851   -2.5775    1.0133 N   0  0  0  0  0  0  0  0  0  0  0  0
    3.0191   -3.8067    1.0645 C   0  0  0  0  0  0  0  0  0  0  0  0
    2.6591   -4.1893   -0.2085 C   0  0  0  0  0  0  0  0  0  0  0  0
    3.1333   -3.1517   -0.9729 N   0  0  0  0  0  0  0  0  0  0  0  0
    3.0197   -3.0556   -2.3408 C   0  0  0  0  0  0  0  0  0  0  0  0
    4.6098   -0.0740   -2.6908 H   0  0  0  0  0  0  0  0  0  0  0  0
    4.7676   -0.3225   -0.1826 H   0  0  0  0  0  0  0  0  0  0  0  0
    2.8737   -4.2964    2.0212 H   0  0  0  0  0  0  0  0  0  0  0  0
    2.1505   -5.0553   -0.5955 H   0  0  0  0  0  0  0  0  0  0  0  0
    2.5035   -3.8540   -2.8519 H   0  0  0  0  0  0  0  0  0  0  0  0
    4.0560   -2.0577    1.8008 H   0  0  0  0  0  0  0  0  0  0  0  0
  1  2  1  0
  2 10  2  0
  2  3  1  0
  3  4  2  0
  3 11  1  0
  4  5  1  0
  4 12  1  0
  5  9  1  0
  5  6  2  0
  6  7  1  0
  6 16  1  0
  7  8  2  0
  7 13  1  0
  8  9  1  0
  8 14  1  0
  9 10  1  0
 10 15  1  0
M  CHG  1   6   1
M  END
>  <i_m_ct_stereo_status>  (318) 
1

>  <s_m_source_file>  (318) 
/var/tmp/pbs.5076255.sched01/tmppj12hgr0/126t4bdxmoi.sdf

>  <i_m_source_file_index>  (318) 
8

>  <i_lp_mmshare_version>  (318) 
48012

>  <i_f3d_flags>  (318) 
0

>  <s_epik_input>  (318) 
W2NIXTFbY0hdYyhGKVtjSF1uKGMxMilbY0hdW2NIXW4y

>  <s_epik_cmdline>  (318) 
J2VwaWtfcHl0aG9uJywgJy1waHQnLCAnMi4wJywgJy1waCcsICc3LjAnLCAnLXRuJywgJzgnLCAnLW1hJywgJzIwMCcsICctaW1hZScsICc8aW5maWxlLm1hZT4nLCAnLW9tYWUnLCAnPG91dGZpbGUubWFlPic=

>  <r_epik_Ionization_Penalty>  (318) 
1.71786

>  <r_epik_Ionization_Penalty_Charging>  (318) 
0

>  <r_epik_Ionization_Penalty_Neutral>  (318) 
1.71786

>  <r_epik_State_Penalty>  (318) 
1.82515

>  <r_epik_Charging_Adjusted_Penalty>  (318) 
1.82515

>  <i_epik_Tot_Q>  (318) 
1

>  <i_epik_Tot_abs_Q>  (318) 
1

>  <s_lp_Force_Field>  (318) 
OPLS3e

>  <r_lp_Energy>  (318) 
16.4193

>  <b_lp_Chiralities_Consistent>  (318) 
1

>  <s_lp_Variant>  (318) 
94:0-2

>  <s_i_glide_gridfile>  (318) 
pfpi4k_grid

>  <i_i_glide_lignum>  (318) 
8

>  <i_i_glide_rotatable_bonds>  (318) 
0

>  <r_i_docking_score>  (318) 
-3.76752

>  <r_i_glide_ligand_efficiency>  (318) 
-0.376752

>  <r_i_glide_ligand_efficiency_sa>  (318) 
-0.811687

>  <r_i_glide_ligand_efficiency_ln>  (318) 
-1.14078

>  <r_i_glide_gscore>  (318) 
-3.76752

>  <r_i_glide_lipo>  (318) 
-0.0214183

>  <r_i_glide_hbond>  (318) 
0

>  <r_i_glide_metal>  (318) 
-0

>  <r_i_glide_rewards>  (318) 
-2.28579

>  <r_i_glide_evdw>  (318) 
-13.2531

>  <r_i_glide_ecoul>  (318) 
-4.74142

>  <r_i_glide_erotb>  (318) 
0

>  <r_i_glide_esite>  (318) 
-0.0864423

>  <r_i_glide_emodel>  (318) 
-25.0825

>  <r_i_glide_energy>  (318) 
-17.9945

>  <r_i_glide_einternal>  (318) 
0

>  <r_i_glide_intrahb_reward>  (318) 
-0

>  <i_i_glide_confnum>  (318) 
1

>  <i_i_glide_posenum>  (318) 
10

>  <r_i_glide_eff_state_penalty>  (318) 
0

>  <ligand_id>  (318) 
94

>  <original_smiles>  (318) 
Fc1ccc2nccn2c1

>  <smiles>  (318) 
[H]c1c(F)c([H])n2c([H])c([H])[n+]([H])c2c1[H]

$$$$
96:0:0
     RDKit          3D

 33 35  0  0  1  0  0  0  0  0999 V2000
    3.1991  -11.9611    2.8749 N   0  0  0  0  0  0  0  0  0  0  0  0
    3.7173  -10.8025    3.2991 C   0  0  0  0  0  0  0  0  0  0  0  0
    4.4993  -10.0026    2.5202 N   0  0  0  0  0  0  0  0  0  0  0  0
    5.1666   -8.7770    3.0065 C   0  0  1  0  0  0  0  0  0  0  0  0
    5.1553   -7.6306    1.9883 C   0  0  0  0  0  0  0  0  0  0  0  0
    3.9582   -7.3224    1.2927 C   0  0  0  0  0  0  0  0  0  0  0  0
    3.9147   -6.2362    0.3982 C   0  0  0  0  0  0  0  0  0  0  0  0
    5.0585   -5.4499    0.1720 C   0  0  0  0  0  0  0  0  0  0  0  0
    6.2446   -5.7358    0.8685 C   0  0  0  0  0  0  0  0  0  0  0  0
    7.3461   -4.9791    0.6422 F   0  0  0  0  0  0  0  0  0  0  0  0
    6.2968   -6.8173    1.7774 C   0  0  0  0  0  0  0  0  0  0  0  0
    7.7795   -7.1133    2.6140 Cl  0  0  0  0  0  0  0  0  0  0  0  0
    4.4636   -8.3881    4.3035 C   0  0  2  0  0  0  0  0  0  0  0  0
    5.1252   -7.3842    5.2382 C   0  0  0  0  0  0  0  0  0  0  0  0
    4.4233   -7.6286    6.5916 C   0  0  0  0  0  0  0  0  0  0  0  0
    3.8625   -9.0632    6.5392 C   0  0  0  0  0  0  0  0  0  0  0  0
    4.3267   -9.6053    5.1921 C   0  0  1  0  0  0  0  0  0  0  0  0
    3.4092  -10.4715    4.5779 O   0  0  0  0  0  0  0  0  0  0  0  0
    3.4159  -12.2542    1.9179 H   0  0  0  0  0  0  0  0  0  0  0  0
    4.7103  -10.3185    1.5828 H   0  0  0  0  0  0  0  0  0  0  0  0
    6.1938   -9.0712    3.2348 H   0  0  0  0  0  0  0  0  0  0  0  0
    3.0657   -7.9124    1.4455 H   0  0  0  0  0  0  0  0  0  0  0  0
    3.0081   -6.0104   -0.1477 H   0  0  0  0  0  0  0  0  0  0  0  0
    5.0243   -4.6428   -0.5452 H   0  0  0  0  0  0  0  0  0  0  0  0
    3.4640   -8.0170    4.0722 H   0  0  0  0  0  0  0  0  0  0  0  0
    6.1872   -7.6166    5.3365 H   0  0  0  0  0  0  0  0  0  0  0  0
    5.0334   -6.3514    4.8957 H   0  0  0  0  0  0  0  0  0  0  0  0
    5.1070   -7.4964    7.4348 H   0  0  0  0  0  0  0  0  0  0  0  0
    3.5936   -6.9270    6.7180 H   0  0  0  0  0  0  0  0  0  0  0  0
    4.2037   -9.6957    7.3633 H   0  0  0  0  0  0  0  0  0  0  0  0
    2.7725   -9.0338    6.5761 H   0  0  0  0  0  0  0  0  0  0  0  0
    5.2975  -10.0924    5.3125 H   0  0  0  0  0  0  0  0  0  0  0  0
    2.6046  -12.5435    3.4678 H   0  0  0  0  0  0  0  0  0  0  0  0
  1  2  1  0
  1 19  1  0
  1 33  1  0
  2 18  1  0
  2  3  2  0
  3  4  1  0
  3 20  1  0
  4  5  1  0
  4 13  1  0
  4 21  1  1
  5 11  1  0
  5  6  2  0
  6  7  1  0
  6 22  1  0
  7  8  2  0
  7 23  1  0
  8  9  1  0
  8 24  1  0
  9 10  1  0
  9 11  2  0
 11 12  1  0
 13 17  1  0
 13 14  1  0
 13 25  1  6
 14 15  1  0
 14 26  1  0
 14 27  1  0
 15 16  1  0
 15 28  1  0
 15 29  1  0
 16 17  1  0
 16 30  1  0
 16 31  1  0
 17 18  1  0
 17 32  1  1
M  CHG  1   3   1
M  END
>  <i_m_ct_stereo_status>  (319) 
1

>  <s_m_source_file>  (319) 
/var/tmp/pbs.5076255.sched01/tmppj12hgr0/126t4bdxmoi.sdf

>  <i_m_source_file_index>  (319) 
10

>  <i_lp_mmshare_version>  (319) 
48012

>  <i_f3d_flags>  (319) 
0

>  <s_epik_input>  (319) 
W0NIMl0xW0NIMl1bQ0gyXVtDQEhdKFtDQEBIXTEyKU9DKD1OXFtIXSkvW05IXVtDQEhdMmMzW2NIXVtjSF1bY0hdYyhGKWMzQ2w=

>  <s_epik_cmdline>  (319) 
J2VwaWtfcHl0aG9uJywgJy1waHQnLCAnMi4wJywgJy1waCcsICc3LjAnLCAnLXRuJywgJzgnLCAnLW1hJywgJzIwMCcsICctaW1hZScsICc8aW5maWxlLm1hZT4nLCAnLW9tYWUnLCAnPG91dGZpbGUubWFlPic=

>  <r_epik_Ionization_Penalty>  (319) 
0.100419

>  <r_epik_Ionization_Penalty_Charging>  (319) 
0.100419

>  <r_epik_Ionization_Penalty_Neutral>  (319) 
1.72736e-13

>  <r_epik_State_Penalty>  (319) 
0.0939122

>  <r_epik_Charging_Adjusted_Penalty>  (319) 
0.194331

>  <i_epik_Tot_Q>  (319) 
1

>  <i_epik_Tot_abs_Q>  (319) 
1

>  <s_epik_Chemistry_Notes>  (319) 
This compound has an imine and may undergo hydrolysis.

>  <s_lp_Force_Field>  (319) 
OPLS3e

>  <r_lp_Energy>  (319) 
27.4971

>  <b_lp_Chiralities_Consistent>  (319) 
1

>  <s_lp_Variant>  (319) 
96:0-1

>  <s_i_glide_gridfile>  (319) 
pfpi4k_grid

>  <i_i_glide_lignum>  (319) 
10

>  <i_i_glide_rotatable_bonds>  (319) 
1

>  <r_i_docking_score>  (319) 
-4.03474

>  <r_i_glide_ligand_efficiency>  (319) 
-0.224152

>  <r_i_glide_ligand_efficiency_sa>  (319) 
-0.587446

>  <r_i_glide_ligand_efficiency_ln>  (319) 
-1.03711

>  <r_i_glide_gscore>  (319) 
-4.03474

>  <r_i_glide_lipo>  (319) 
-0.439951

>  <r_i_glide_hbond>  (319) 
-0.25216

>  <r_i_glide_metal>  (319) 
-0

>  <r_i_glide_rewards>  (319) 
-1.73595

>  <r_i_glide_evdw>  (319) 
-11.2873

>  <r_i_glide_ecoul>  (319) 
-7.4496

>  <r_i_glide_erotb>  (319) 
0.245682

>  <r_i_glide_esite>  (319) 
-0.17056

>  <r_i_glide_emodel>  (319) 
-26.5032

>  <r_i_glide_energy>  (319) 
-18.7369

>  <r_i_glide_einternal>  (319) 
0.0902591

>  <r_i_glide_intrahb_reward>  (319) 
-0

>  <i_i_glide_confnum>  (319) 
4

>  <i_i_glide_posenum>  (319) 
37

>  <r_i_glide_eff_state_penalty>  (319) 
0

>  <ligand_id>  (319) 
96

>  <original_smiles>  (319) 
N=C1NC(c2cccc(F)c2Cl)C2CCCC2O1

>  <smiles>  (319) 
[H]c1c([H])c(F)c(Cl)c(C2([H])[N+]([H])=C(N([H])[H])OC3([H])C([H])([H])C([H])([H])C([H])([H])C23[H])c1[H]

$$$$
96:0:1
     RDKit          3D

 33 35  0  0  1  0  0  0  0  0999 V2000
    2.4502   -6.9049    1.5741 N   0  0  0  0  0  0  0  0  0  0  0  0
    2.7341   -5.5925    1.5023 C   0  0  0  0  0  0  0  0  0  0  0  0
    3.3701   -4.9931    0.4494 N   0  0  0  0  0  0  0  0  0  0  0  0
    3.7105   -3.5539    0.3867 C   0  0  1  0  0  0  0  0  0  0  0  0
    3.4599   -2.9295   -0.9912 C   0  0  0  0  0  0  0  0  0  0  0  0
    2.4528   -3.4451   -1.8468 C   0  0  0  0  0  0  0  0  0  0  0  0
    2.2249   -2.8938   -3.1264 C   0  0  0  0  0  0  0  0  0  0  0  0
    2.9630   -1.7759   -3.5500 C   0  0  0  0  0  0  0  0  0  0  0  0
    3.9274   -1.2243   -2.6952 C   0  0  0  0  0  0  0  0  0  0  0  0
    4.6028   -0.1291   -3.0951 F   0  0  0  0  0  0  0  0  0  0  0  0
    4.1928   -1.7966   -1.4342 C   0  0  0  0  0  0  0  0  0  0  0  0
    5.4483   -1.0940   -0.4824 Cl  0  0  0  0  0  0  0  0  0  0  0  0
    2.8955   -2.8602    1.4789 C   0  0  2  0  0  0  0  0  0  0  0  0
    3.2838   -1.4539    1.9171 C   0  0  0  0  0  0  0  0  0  0  0  0
    2.6166   -1.2955    3.2900 C   0  0  0  0  0  0  0  0  0  0  0  0
    2.3942   -2.7216    3.8266 C   0  0  0  0  0  0  0  0  0  0  0  0
    3.0039   -3.6397    2.7690 C   0  0  1  0  0  0  0  0  0  0  0  0
    2.3324   -4.8671    2.5835 O   0  0  0  0  0  0  0  0  0  0  0  0
    2.7561   -7.5748    0.8767 H   0  0  0  0  0  0  0  0  0  0  0  0
    3.6683   -5.5454   -0.3472 H   0  0  0  0  0  0  0  0  0  0  0  0
    4.7797   -3.4840    0.6080 H   0  0  0  0  0  0  0  0  0  0  0  0
    1.8452   -4.2936   -1.5523 H   0  0  0  0  0  0  0  0  0  0  0  0
    1.4605   -3.3028   -3.7713 H   0  0  0  0  0  0  0  0  0  0  0  0
    2.7597   -1.3283   -4.5137 H   0  0  0  0  0  0  0  0  0  0  0  0
    1.8515   -2.8232    1.1692 H   0  0  0  0  0  0  0  0  0  0  0  0
    4.3631   -1.3929    2.0513 H   0  0  0  0  0  0  0  0  0  0  0  0
    2.9758   -0.6872    1.2047 H   0  0  0  0  0  0  0  0  0  0  0  0
    3.2367   -0.6985    3.9617 H   0  0  0  0  0  0  0  0  0  0  0  0
    1.6577   -0.7858    3.1771 H   0  0  0  0  0  0  0  0  0  0  0  0
    2.8553   -2.8776    4.8032 H   0  0  0  0  0  0  0  0  0  0  0  0
    1.3259   -2.9116    3.9248 H   0  0  0  0  0  0  0  0  0  0  0  0
    4.0516   -3.8268    3.0111 H   0  0  0  0  0  0  0  0  0  0  0  0
    2.0304   -7.2592    2.4226 H   0  0  0  0  0  0  0  0  0  0  0  0
  1  2  1  0
  1 19  1  0
  1 33  1  0
  2 18  1  0
  2  3  2  0
  3  4  1  0
  3 20  1  0
  4  5  1  0
  4 13  1  0
  4 21  1  1
  5 11  1  0
  5  6  2  0
  6  7  1  0
  6 22  1  0
  7  8  2  0
  7 23  1  0
  8  9  1  0
  8 24  1  0
  9 10  1  0
  9 11  2  0
 11 12  1  0
 13 17  1  0
 13 14  1  0
 13 25  1  6
 14 15  1  0
 14 26  1  0
 14 27  1  0
 15 16  1  0
 15 28  1  0
 15 29  1  0
 16 17  1  0
 16 30  1  0
 16 31  1  0
 17 18  1  0
 17 32  1  1
M  CHG  1   3   1
M  END
>  <i_m_ct_stereo_status>  (320) 
1

>  <s_m_source_file>  (320) 
/var/tmp/pbs.5076255.sched01/tmppj12hgr0/126t4bdxmoi.sdf

>  <i_m_source_file_index>  (320) 
10

>  <i_lp_mmshare_version>  (320) 
48012

>  <i_f3d_flags>  (320) 
0

>  <s_epik_input>  (320) 
W0NIMl0xW0NIMl1bQ0gyXVtDQEhdKFtDQEBIXTEyKU9DKD1OXFtIXSkvW05IXVtDQEhdMmMzW2NIXVtjSF1bY0hdYyhGKWMzQ2w=

>  <s_epik_cmdline>  (320) 
J2VwaWtfcHl0aG9uJywgJy1waHQnLCAnMi4wJywgJy1waCcsICc3LjAnLCAnLXRuJywgJzgnLCAnLW1hJywgJzIwMCcsICctaW1hZScsICc8aW5maWxlLm1hZT4nLCAnLW9tYWUnLCAnPG91dGZpbGUubWFlPic=

>  <r_epik_Ionization_Penalty>  (320) 
0.100419

>  <r_epik_Ionization_Penalty_Charging>  (320) 
0.100419

>  <r_epik_Ionization_Penalty_Neutral>  (320) 
1.72736e-13

>  <r_epik_State_Penalty>  (320) 
0.0939122

>  <r_epik_Charging_Adjusted_Penalty>  (320) 
0.194331

>  <i_epik_Tot_Q>  (320) 
1

>  <i_epik_Tot_abs_Q>  (320) 
1

>  <s_epik_Chemistry_Notes>  (320) 
This compound has an imine and may undergo hydrolysis.

>  <s_lp_Force_Field>  (320) 
OPLS3e

>  <r_lp_Energy>  (320) 
27.4971

>  <b_lp_Chiralities_Consistent>  (320) 
1

>  <s_lp_Variant>  (320) 
96:0-1

>  <s_i_glide_gridfile>  (320) 
pfpi4k_grid

>  <i_i_glide_lignum>  (320) 
10

>  <i_i_glide_rotatable_bonds>  (320) 
1

>  <r_i_docking_score>  (320) 
-3.35562

>  <r_i_glide_ligand_efficiency>  (320) 
-0.186423

>  <r_i_glide_ligand_efficiency_sa>  (320) 
-0.488567

>  <r_i_glide_ligand_efficiency_ln>  (320) 
-0.862544

>  <r_i_glide_gscore>  (320) 
-3.35562

>  <r_i_glide_lipo>  (320) 
-0.487428

>  <r_i_glide_hbond>  (320) 
0

>  <r_i_glide_metal>  (320) 
-0

>  <r_i_glide_rewards>  (320) 
-1.63795

>  <r_i_glide_evdw>  (320) 
-17.7585

>  <r_i_glide_ecoul>  (320) 
-3.71261

>  <r_i_glide_erotb>  (320) 
0.245682

>  <r_i_glide_esite>  (320) 
-0.0311043

>  <r_i_glide_emodel>  (320) 
-27.6658

>  <r_i_glide_energy>  (320) 
-21.4711

>  <r_i_glide_einternal>  (320) 
0.342265

>  <r_i_glide_intrahb_reward>  (320) 
-0

>  <i_i_glide_confnum>  (320) 
4

>  <i_i_glide_posenum>  (320) 
23

>  <r_i_glide_eff_state_penalty>  (320) 
0

>  <ligand_id>  (320) 
96

>  <original_smiles>  (320) 
N=C1NC(c2cccc(F)c2Cl)C2CCCC2O1

>  <smiles>  (320) 
[H]c1c([H])c(F)c(Cl)c(C2([H])[N+]([H])=C(N([H])[H])OC3([H])C([H])([H])C([H])([H])C([H])([H])C23[H])c1[H]

$$$$
96:0:2
     RDKit          3D

 33 35  0  0  1  0  0  0  0  0999 V2000
    5.8167   -0.1029    0.8658 N   0  0  0  0  0  0  0  0  0  0  0  0
    5.2526   -1.0559    0.1386 C   0  0  0  0  0  0  0  0  0  0  0  0
    5.2846   -2.3757    0.4175 N   0  0  0  0  0  0  0  0  0  0  0  0
    4.6385   -3.3988   -0.4155 C   0  0  1  0  0  0  0  0  0  0  0  0
    3.9451   -4.4577    0.4344 C   0  0  0  0  0  0  0  0  0  0  0  0
    4.2529   -5.8148    0.1821 C   0  0  0  0  0  0  0  0  0  0  0  0
    3.6210   -6.8469    0.9113 C   0  0  0  0  0  0  0  0  0  0  0  0
    2.6414   -6.5393    1.8747 C   0  0  0  0  0  0  0  0  0  0  0  0
    2.3276   -5.1917    2.1401 C   0  0  0  0  0  0  0  0  0  0  0  0
    1.3797   -4.9049    3.0607 F   0  0  0  0  0  0  0  0  0  0  0  0
    2.9783   -4.1480    1.4422 C   0  0  0  0  0  0  0  0  0  0  0  0
    2.5450   -2.5274    1.8453 Cl  0  0  0  0  0  0  0  0  0  0  0  0
    3.7113   -2.6859   -1.3990 C   0  0  2  0  0  0  0  0  0  0  0  0
    3.2374   -3.4428   -2.6208 C   0  0  0  0  0  0  0  0  0  0  0  0
    2.7790   -2.3551   -3.5896 C   0  0  0  0  0  0  0  0  0  0  0  0
    3.5028   -1.0646   -3.1566 C   0  0  0  0  0  0  0  0  0  0  0  0
    4.4253   -1.5153   -2.0181 C   0  0  1  0  0  0  0  0  0  0  0  0
    4.6149   -0.5870   -1.0041 O   0  0  0  0  0  0  0  0  0  0  0  0
    6.3999   -0.2539    1.6811 H   0  0  0  0  0  0  0  0  0  0  0  0
    5.7440   -2.6839    1.2577 H   0  0  0  0  0  0  0  0  0  0  0  0
    5.4489   -3.8728   -0.9764 H   0  0  0  0  0  0  0  0  0  0  0  0
    4.9508   -6.0770   -0.5933 H   0  0  0  0  0  0  0  0  0  0  0  0
    3.8457   -7.8796    0.6901 H   0  0  0  0  0  0  0  0  0  0  0  0
    2.1364   -7.3297    2.4008 H   0  0  0  0  0  0  0  0  0  0  0  0
    2.8215   -2.3175   -0.8892 H   0  0  0  0  0  0  0  0  0  0  0  0
    4.0562   -4.0135   -3.0674 H   0  0  0  0  0  0  0  0  0  0  0  0
    2.3959   -4.0912   -2.3770 H   0  0  0  0  0  0  0  0  0  0  0  0
    2.9841   -2.6200   -4.6309 H   0  0  0  0  0  0  0  0  0  0  0  0
    1.6965   -2.2680   -3.4784 H   0  0  0  0  0  0  0  0  0  0  0  0
    4.0567   -0.6000   -3.9728 H   0  0  0  0  0  0  0  0  0  0  0  0
    2.7672   -0.3413   -2.7989 H   0  0  0  0  0  0  0  0  0  0  0  0
    5.3809   -1.8245   -2.4397 H   0  0  0  0  0  0  0  0  0  0  0  0
    5.7406    0.8275    0.4519 H   0  0  0  0  0  0  0  0  0  0  0  0
  1  2  1  0
  1 19  1  0
  1 33  1  0
  2 18  1  0
  2  3  2  0
  3  4  1  0
  3 20  1  0
  4  5  1  0
  4 13  1  0
  4 21  1  6
  5 11  1  0
  5  6  2  0
  6  7  1  0
  6 22  1  0
  7  8  2  0
  7 23  1  0
  8  9  1  0
  8 24  1  0
  9 10  1  0
  9 11  2  0
 11 12  1  0
 13 17  1  0
 13 14  1  0
 13 25  1  1
 14 15  1  0
 14 26  1  0
 14 27  1  0
 15 16  1  0
 15 28  1  0
 15 29  1  0
 16 17  1  0
 16 30  1  0
 16 31  1  0
 17 18  1  0
 17 32  1  6
M  CHG  1   3   1
M  END
>  <i_m_ct_stereo_status>  (321) 
1

>  <s_m_source_file>  (321) 
/var/tmp/pbs.5076255.sched01/tmppj12hgr0/126t4bdxmoi.sdf

>  <i_m_source_file_index>  (321) 
10

>  <i_lp_mmshare_version>  (321) 
48012

>  <i_f3d_flags>  (321) 
0

>  <s_epik_input>  (321) 
W0NIMl0xW0NIMl1bQ0gyXVtDQEhdKFtDQEBIXTEyKU9DKD1OXFtIXSkvW05IXVtDQEhdMmMzW2NIXVtjSF1bY0hdYyhGKWMzQ2w=

>  <s_epik_cmdline>  (321) 
J2VwaWtfcHl0aG9uJywgJy1waHQnLCAnMi4wJywgJy1waCcsICc3LjAnLCAnLXRuJywgJzgnLCAnLW1hJywgJzIwMCcsICctaW1hZScsICc8aW5maWxlLm1hZT4nLCAnLW9tYWUnLCAnPG91dGZpbGUubWFlPic=

>  <r_epik_Ionization_Penalty>  (321) 
0.100419

>  <r_epik_Ionization_Penalty_Charging>  (321) 
0.100419

>  <r_epik_Ionization_Penalty_Neutral>  (321) 
1.72736e-13

>  <r_epik_State_Penalty>  (321) 
0.0939122

>  <r_epik_Charging_Adjusted_Penalty>  (321) 
0.194331

>  <i_epik_Tot_Q>  (321) 
1

>  <i_epik_Tot_abs_Q>  (321) 
1

>  <s_epik_Chemistry_Notes>  (321) 
This compound has an imine and may undergo hydrolysis.

>  <s_lp_Force_Field>  (321) 
OPLS3e

>  <r_lp_Energy>  (321) 
27.4971

>  <b_lp_Chiralities_Consistent>  (321) 
1

>  <s_lp_Variant>  (321) 
96:0-1

>  <s_i_glide_gridfile>  (321) 
pfpi4k_grid

>  <i_i_glide_lignum>  (321) 
10

>  <i_i_glide_rotatable_bonds>  (321) 
1

>  <r_i_docking_score>  (321) 
-3.29713

>  <r_i_glide_ligand_efficiency>  (321) 
-0.183174

>  <r_i_glide_ligand_efficiency_sa>  (321) 
-0.480052

>  <r_i_glide_ligand_efficiency_ln>  (321) 
-0.847511

>  <r_i_glide_gscore>  (321) 
-3.29713

>  <r_i_glide_lipo>  (321) 
-0.502477

>  <r_i_glide_hbond>  (321) 
0

>  <r_i_glide_metal>  (321) 
-0

>  <r_i_glide_rewards>  (321) 
-1.63191

>  <r_i_glide_evdw>  (321) 
-17.0486

>  <r_i_glide_ecoul>  (321) 
-3.56824

>  <r_i_glide_erotb>  (321) 
0.245682

>  <r_i_glide_esite>  (321) 
-0.0207614

>  <r_i_glide_emodel>  (321) 
-26.4118

>  <r_i_glide_energy>  (321) 
-20.6169

>  <r_i_glide_einternal>  (321) 
0.811734

>  <r_i_glide_intrahb_reward>  (321) 
-0

>  <i_i_glide_confnum>  (321) 
3

>  <i_i_glide_posenum>  (321) 
10

>  <r_i_glide_eff_state_penalty>  (321) 
0

>  <ligand_id>  (321) 
96

>  <original_smiles>  (321) 
N=C1NC(c2cccc(F)c2Cl)C2CCCC2O1

>  <smiles>  (321) 
[H]c1c([H])c(F)c(Cl)c(C2([H])[N+]([H])=C(N([H])[H])OC3([H])C([H])([H])C([H])([H])C([H])([H])C23[H])c1[H]

$$$$
97:0:0
     RDKit          3D

 74 78  0  0  1  0  0  0  0  0999 V2000
    1.8808   -0.3063    8.6429 C   0  0  0  0  0  0  0  0  0  0  0  0
    1.9271   -0.6001    7.3296 C   0  0  0  0  0  0  0  0  0  0  0  0
    1.6425    0.5484    6.2952 C   0  0  0  0  0  0  0  0  0  0  0  0
    1.7247    1.6966    6.7377 O   0  0  0  0  0  0  0  0  0  0  0  0
    1.2663    0.4349    4.6846 C   0  0  1  0  0  0  0  0  0  0  0  0
   -0.0872    0.0054    4.4142 O   0  0  0  0  0  0  0  0  0  0  0  0
   -1.1348    0.3601    5.1768 C   0  0  0  0  0  0  0  0  0  0  0  0
   -1.5561   -0.2693    6.1390 O   0  0  0  0  0  0  0  0  0  0  0  0
   -1.8486    1.6063    4.6892 C   0  0  0  0  0  0  0  0  0  0  0  0
   -0.9962    2.8293    4.8562 C   0  0  0  0  0  0  0  0  0  0  0  0
    0.3115    2.9484    4.5789 C   0  0  0  0  0  0  0  0  0  0  0  0
    1.2705    1.8899    4.0111 C   0  0  1  0  0  0  0  0  0  0  0  0
    2.5885    2.4361    4.0025 O   0  0  0  0  0  0  0  0  0  0  0  0
    2.7902    3.5237    3.1111 C   0  0  0  0  0  0  0  0  0  0  0  0
    2.2119   -0.6004    3.8390 C   0  0  2  0  0  0  0  0  0  0  0  0
    2.2152   -1.0213    2.3660 C   0  0  1  0  0  0  0  0  0  0  0  0
    1.8462    0.0353    1.4999 O   0  0  0  0  0  0  0  0  0  0  0  0
    3.6890   -1.5911    2.0662 C   0  0  1  0  0  0  0  0  0  0  0  0
    4.1420   -1.0406    0.8392 O   0  0  0  0  0  0  0  0  0  0  0  0
    4.7951   -1.1497    3.1843 C   0  0  1  0  0  0  0  0  0  0  0  0
    5.3314    0.1304    2.9047 O   0  0  0  0  0  0  0  0  0  0  0  0
    4.3171   -1.1979    4.7248 C   0  0  1  0  0  0  0  0  0  0  0  0
    4.6729    0.0850    5.5425 C   0  0  0  0  0  0  0  0  0  0  0  0
    2.8213   -1.8081    4.6255 C   0  0  1  0  0  0  0  0  0  0  0  0
    1.6063   -2.2025    5.5703 C   0  0  1  0  0  0  0  0  0  0  0  0
    0.8992   -3.4444    5.3916 O   0  0  0  0  0  0  0  0  0  0  0  0
   -0.1747   -3.7858    6.1349 C   0  0  0  0  0  0  0  0  0  0  0  0
   -0.5668   -5.2424    5.9364 C   0  0  0  0  0  0  0  0  0  0  0  0
   -0.7745   -3.0535    6.9230 O   0  0  0  0  0  0  0  0  0  0  0  0
    2.1727   -2.0497    6.8746 C   0  0  2  0  0  0  0  0  0  0  0  0
    3.2082   -3.1956    7.0999 C   0  0  0  0  0  0  0  0  0  0  0  0
    3.6630   -3.4630    8.2115 O   0  0  0  0  0  0  0  0  0  0  0  0
    3.5991   -4.0216    5.7572 C   0  0  0  0  0  0  0  0  0  0  0  0
    4.0147   -5.1786    5.8028 O   0  0  0  0  0  0  0  0  0  0  0  0
    3.3791   -3.2769    4.3658 C   0  0  1  0  0  0  0  0  0  0  0  0
    3.0192   -3.9752    3.0366 C   0  0  1  0  0  0  0  0  0  0  0  0
    1.6370   -4.2406    2.8958 O   0  0  0  0  0  0  0  0  0  0  0  0
    3.6268   -3.1712    1.8144 C   0  0  0  0  0  0  0  0  0  0  0  0
    2.8254   -3.5030    0.5173 C   0  0  0  0  0  0  0  0  0  0  0  0
    5.0432   -3.7516    1.5393 C   0  0  0  0  0  0  0  0  0  0  0  0
    2.0444   -1.0645    9.3927 H   0  0  0  0  0  0  0  0  0  0  0  0
    1.6758    0.6939    9.0045 H   0  0  0  0  0  0  0  0  0  0  0  0
   -2.2019    1.5011    3.6664 H   0  0  0  0  0  0  0  0  0  0  0  0
   -2.6821    1.7815    5.3586 H   0  0  0  0  0  0  0  0  0  0  0  0
   -1.5277    3.7043    5.2041 H   0  0  0  0  0  0  0  0  0  0  0  0
    0.7319    3.9258    4.7668 H   0  0  0  0  0  0  0  0  0  0  0  0
    0.9562    1.7825    2.9742 H   0  0  0  0  0  0  0  0  0  0  0  0
    3.8141    3.8541    3.2106 H   0  0  0  0  0  0  0  0  0  0  0  0
    2.1718    4.3940    3.3148 H   0  0  0  0  0  0  0  0  0  0  0  0
    2.6155    3.2164    2.0825 H   0  0  0  0  0  0  0  0  0  0  0  0
    2.9322    0.1856    3.6875 H   0  0  0  0  0  0  0  0  0  0  0  0
    1.4417   -1.7774    2.2477 H   0  0  0  0  0  0  0  0  0  0  0  0
    1.4390   -0.3223    0.7082 H   0  0  0  0  0  0  0  0  0  0  0  0
    3.4412   -1.1177    0.2107 H   0  0  0  0  0  0  0  0  0  0  0  0
    5.6764   -1.7808    3.0899 H   0  0  0  0  0  0  0  0  0  0  0  0
    4.6189    0.7560    2.8663 H   0  0  0  0  0  0  0  0  0  0  0  0
    5.0229   -1.8477    5.2499 H   0  0  0  0  0  0  0  0  0  0  0  0
    4.1778    0.9950    5.2152 H   0  0  0  0  0  0  0  0  0  0  0  0
    5.7431    0.2885    5.4625 H   0  0  0  0  0  0  0  0  0  0  0  0
    4.4934   -0.0329    6.6081 H   0  0  0  0  0  0  0  0  0  0  0  0
    0.7285   -1.6030    5.5413 H   0  0  0  0  0  0  0  0  0  0  0  0
   -0.7778   -5.4541    4.8884 H   0  0  0  0  0  0  0  0  0  0  0  0
   -1.4478   -5.4852    6.5329 H   0  0  0  0  0  0  0  0  0  0  0  0
    0.2529   -5.8913    6.2541 H   0  0  0  0  0  0  0  0  0  0  0  0
    3.1336   -1.5654    6.7603 H   0  0  0  0  0  0  0  0  0  0  0  0
    4.4412   -3.3029    4.1460 H   0  0  0  0  0  0  0  0  0  0  0  0
    3.4689   -4.9712    3.0511 H   0  0  0  0  0  0  0  0  0  0  0  0
    1.1683   -3.4216    2.9299 H   0  0  0  0  0  0  0  0  0  0  0  0
    2.7107   -4.5818    0.3916 H   0  0  0  0  0  0  0  0  0  0  0  0
    3.3301   -3.1424   -0.3788 H   0  0  0  0  0  0  0  0  0  0  0  0
    1.8300   -3.0681    0.5100 H   0  0  0  0  0  0  0  0  0  0  0  0
    4.9811   -4.7803    1.1770 H   0  0  0  0  0  0  0  0  0  0  0  0
    5.6768   -3.7916    2.4267 H   0  0  0  0  0  0  0  0  0  0  0  0
    5.5752   -3.1804    0.7773 H   0  0  0  0  0  0  0  0  0  0  0  0
  1  2  2  0
  1 41  1  0
  1 42  1  0
  2 30  1  0
  2  3  1  0
  3  4  2  0
  3  5  1  0
  5 12  1  0
  5  6  1  1
  5 15  1  0
  6  7  1  0
  7  8  2  0
  7  9  1  0
  9 10  1  0
  9 43  1  0
  9 44  1  0
 10 11  2  0
 10 45  1  0
 11 12  1  0
 11 46  1  0
 12 13  1  0
 12 47  1  6
 13 14  1  0
 14 48  1  0
 14 49  1  0
 14 50  1  0
 15 24  1  0
 15 16  1  0
 15 51  1  6
 16 17  1  0
 16 18  1  0
 16 52  1  1
 17 53  1  0
 18 38  1  0
 18 19  1  6
 18 20  1  0
 19 54  1  0
 20 21  1  0
 20 22  1  0
 20 55  1  1
 21 56  1  0
 22 23  1  0
 24 22  1  1
 22 57  1  1
 23 58  1  0
 23 59  1  0
 23 60  1  0
 24 35  1  0
 24 25  1  0
 25 26  1  0
 25 30  1  0
 25 61  1  1
 26 27  1  0
 27 28  1  0
 27 29  2  0
 28 62  1  0
 28 63  1  0
 28 64  1  0
 30 31  1  0
 30 65  1  1
 31 32  2  0
 31 33  1  0
 33 34  2  0
 33 35  1  0
 35 36  1  0
 35 66  1  6
 36 37  1  0
 36 38  1  0
 36 67  1  1
 37 68  1  0
 38 39  1  0
 38 40  1  0
 39 69  1  0
 39 70  1  0
 39 71  1  0
 40 72  1  0
 40 73  1  0
 40 74  1  0
M  END
>  <i_m_ct_stereo_status>  (322) 
1

>  <s_m_source_file>  (322) 
/var/tmp/pbs.5076255.sched01/tmppj12hgr0/126t4bdxmoi.sdf

>  <i_m_source_file_index>  (322) 
12

>  <i_lp_mmshare_version>  (322) 
48012

>  <i_f3d_flags>  (322) 
0

>  <s_epik_input>  (322) 
W0NIM11DKD1PKU9bQ0BIXTFbQ0BASF0oQyg9W0NIMl0pQzI9TylDKD1PKUMoPU8pW0NAQEhdKFtDQEBIXShbT0hdKUMoW0NIM10pKFtDSDNdKVtDQEBdKFtPSF0pKFtDQEBIXTNbT0hdKVtDQEBIXShbT0hdKVtDQEhdNFtDSDNdKVtDQEBdMTRbQ0BASF0zW0NAQF0yNU9DKD1PKVtDSDJdW0NIXT1bQ0hdW0NASF01T1tDSDNd

>  <s_epik_cmdline>  (322) 
J2VwaWtfcHl0aG9uJywgJy1waHQnLCAnMi4wJywgJy1waCcsICc3LjAnLCAnLXRuJywgJzgnLCAnLW1hJywgJzIwMCcsICctaW1hZScsICc8aW5maWxlLm1hZT4nLCAnLW9tYWUnLCAnPG91dGZpbGUubWFlPic=

>  <r_lp_tautomer_probability>  (322) 
1

>  <r_epik_Ionization_Penalty>  (322) 
3.93906e-06

>  <r_epik_Ionization_Penalty_Charging>  (322) 
0

>  <r_epik_Ionization_Penalty_Neutral>  (322) 
3.93906e-06

>  <r_epik_State_Penalty>  (322) 
-0

>  <r_epik_Charging_Adjusted_Penalty>  (322) 
0

>  <i_epik_Tot_Q>  (322) 
0

>  <i_epik_Tot_abs_Q>  (322) 
0

>  <s_epik_Chemistry_Notes>  (322) 
This compound has an ester and may undergo hydrolysis at high or low pH.

>  <s_lp_Force_Field>  (322) 
OPLS3e

>  <r_lp_Energy>  (322) 
280.845

>  <b_lp_Chiralities_Consistent>  (322) 
1

>  <s_lp_Variant>  (322) 
97:0-1

>  <s_i_glide_gridfile>  (322) 
pfpi4k_grid

>  <i_i_glide_lignum>  (322) 
12

>  <i_i_glide_rotatable_bonds>  (322) 
7

>  <r_i_docking_score>  (322) 
-3.04268

>  <r_i_glide_ligand_efficiency>  (322) 
-0.0760671

>  <r_i_glide_ligand_efficiency_sa>  (322) 
-0.260146

>  <r_i_glide_ligand_efficiency_ln>  (322) 
-0.648915

>  <r_i_glide_gscore>  (322) 
-3.04268

>  <r_i_glide_lipo>  (322) 
-0.169002

>  <r_i_glide_hbond>  (322) 
-0.132196

>  <r_i_glide_metal>  (322) 
-0

>  <r_i_glide_rewards>  (322) 
0

>  <r_i_glide_evdw>  (322) 
-20.7132

>  <r_i_glide_ecoul>  (322) 
-11.5266

>  <r_i_glide_erotb>  (322) 
0.0657308

>  <r_i_glide_esite>  (322) 
-0.0425691

>  <r_i_glide_emodel>  (322) 
-37.8566

>  <r_i_glide_energy>  (322) 
-32.2398

>  <r_i_glide_einternal>  (322) 
2.64054

>  <r_i_glide_intrahb_reward>  (322) 
-0

>  <i_i_glide_confnum>  (322) 
3

>  <i_i_glide_posenum>  (322) 
8

>  <r_i_glide_eff_state_penalty>  (322) 
0

>  <ligand_id>  (322) 
97

>  <original_smiles>  (322) 
C=C1C(=O)C2(OC(=O)CC=CC2OC)C2C(O)C3(O)C(O)C(C)C24C(OC(C)=O)C1C(=O)C(=O)C4C(O)C3(C)C

>  <smiles>  (322) 
[H]OC1([H])C([H])(C([H])([H])[H])C23C([H])(OC(=O)C([H])([H])[H])C4([H])C(=O)C(=O)C2([H])C([H])(O[H])C(C([H])([H])[H])(C([H])([H])[H])C1(O[H])C([H])(O[H])C3([H])C1(OC(=O)C([H])([H])C([H])=C([H])C1([H])OC([H])([H])[H])C(=O)C4=C([H])[H]

$$$$
97:0:1
     RDKit          3D

 74 78  0  0  1  0  0  0  0  0999 V2000
    3.6482   -3.1779    7.4436 C   0  0  0  0  0  0  0  0  0  0  0  0
    3.0134   -3.9264    6.5235 C   0  0  0  0  0  0  0  0  0  0  0  0
    3.2891   -3.6320    5.0042 C   0  0  0  0  0  0  0  0  0  0  0  0
    4.3073   -2.9772    4.7626 O   0  0  0  0  0  0  0  0  0  0  0  0
    2.4105   -4.1013    3.6817 C   0  0  1  0  0  0  0  0  0  0  0  0
    1.1785   -3.3710    3.4874 O   0  0  0  0  0  0  0  0  0  0  0  0
    1.0416   -2.0624    3.7833 C   0  0  0  0  0  0  0  0  0  0  0  0
    0.6850   -1.6227    4.8698 O   0  0  0  0  0  0  0  0  0  0  0  0
    1.2875   -1.1460    2.5930 C   0  0  0  0  0  0  0  0  0  0  0  0
    2.7445   -1.1826    2.1863 C   0  0  0  0  0  0  0  0  0  0  0  0
    3.5405   -2.2666    2.0762 C   0  0  0  0  0  0  0  0  0  0  0  0
    3.1944   -3.7412    2.3363 C   0  0  1  0  0  0  0  0  0  0  0  0
    4.3853   -4.5236    2.2278 O   0  0  0  0  0  0  0  0  0  0  0  0
    4.8825   -4.7192    0.9104 C   0  0  0  0  0  0  0  0  0  0  0  0
    1.9743   -5.6815    3.6814 C   0  0  2  0  0  0  0  0  0  0  0  0
    1.1667   -6.5288    2.6938 C   0  0  1  0  0  0  0  0  0  0  0  0
    1.3166   -6.1267    1.3437 O   0  0  0  0  0  0  0  0  0  0  0  0
    1.5754   -8.0619    2.9684 C   0  0  1  0  0  0  0  0  0  0  0  0
    1.8336   -8.6915    1.7202 O   0  0  0  0  0  0  0  0  0  0  0  0
    2.9577   -8.2153    3.8200 C   0  0  1  0  0  0  0  0  0  0  0  0
    4.0724   -8.1592    2.9446 O   0  0  0  0  0  0  0  0  0  0  0  0
    3.1656   -7.1917    5.0496 C   0  0  1  0  0  0  0  0  0  0  0  0
    4.5744   -6.5170    5.0824 C   0  0  0  0  0  0  0  0  0  0  0  0
    1.7752   -6.3622    5.0757 C   0  0  1  0  0  0  0  0  0  0  0  0
    1.0707   -5.1929    5.8891 C   0  0  1  0  0  0  0  0  0  0  0  0
   -0.3073   -5.2861    6.2967 O   0  0  0  0  0  0  0  0  0  0  0  0
   -0.9720   -4.2700    6.8907 C   0  0  0  0  0  0  0  0  0  0  0  0
   -2.3710   -4.6681    7.3186 C   0  0  0  0  0  0  0  0  0  0  0  0
   -0.5332   -3.1392    7.1121 O   0  0  0  0  0  0  0  0  0  0  0  0
    1.9862   -4.9831    6.9695 C   0  0  2  0  0  0  0  0  0  0  0  0
    1.8978   -6.2104    7.9301 C   0  0  0  0  0  0  0  0  0  0  0  0
    2.3789   -6.1995    9.0617 O   0  0  0  0  0  0  0  0  0  0  0  0
    1.0824   -7.4792    7.3243 C   0  0  0  0  0  0  0  0  0  0  0  0
    0.5061   -8.2866    8.0582 O   0  0  0  0  0  0  0  0  0  0  0  0
    1.0009   -7.5881    5.7380 C   0  0  1  0  0  0  0  0  0  0  0  0
   -0.1668   -8.2147    4.9525 C   0  0  1  0  0  0  0  0  0  0  0  0
   -1.2275   -7.3111    4.7222 O   0  0  0  0  0  0  0  0  0  0  0  0
    0.3412   -8.8602    3.6047 C   0  0  0  0  0  0  0  0  0  0  0  0
   -0.8499   -8.9657    2.6019 C   0  0  0  0  0  0  0  0  0  0  0  0
    0.7146  -10.3385    3.9059 C   0  0  0  0  0  0  0  0  0  0  0  0
    3.4760   -3.3192    8.5003 H   0  0  0  0  0  0  0  0  0  0  0  0
    4.3492   -2.4009    7.1704 H   0  0  0  0  0  0  0  0  0  0  0  0
    0.6572   -1.4102    1.7478 H   0  0  0  0  0  0  0  0  0  0  0  0
    1.0406   -0.1217    2.8854 H   0  0  0  0  0  0  0  0  0  0  0  0
    3.1531   -0.2196    1.9086 H   0  0  0  0  0  0  0  0  0  0  0  0
    4.5558   -2.0837    1.7455 H   0  0  0  0  0  0  0  0  0  0  0  0
    2.5558   -4.0002    1.4959 H   0  0  0  0  0  0  0  0  0  0  0  0
    5.7931   -5.3166    0.9663 H   0  0  0  0  0  0  0  0  0  0  0  0
    5.1368   -3.7822    0.4149 H   0  0  0  0  0  0  0  0  0  0  0  0
    4.1638   -5.2595    0.2918 H   0  0  0  0  0  0  0  0  0  0  0  0
    2.9181   -5.9451    3.2361 H   0  0  0  0  0  0  0  0  0  0  0  0
    0.1197   -6.3465    2.9075 H   0  0  0  0  0  0  0  0  0  0  0  0
    2.2183   -6.2846    1.0957 H   0  0  0  0  0  0  0  0  0  0  0  0
    1.0078   -8.9116    1.3143 H   0  0  0  0  0  0  0  0  0  0  0  0
    3.0386   -9.2262    4.2151 H   0  0  0  0  0  0  0  0  0  0  0  0
    3.9877   -8.8933    2.3496 H   0  0  0  0  0  0  0  0  0  0  0  0
    3.3312   -7.8043    5.9412 H   0  0  0  0  0  0  0  0  0  0  0  0
    4.7934   -5.8625    4.2439 H   0  0  0  0  0  0  0  0  0  0  0  0
    5.3523   -7.2839    5.0639 H   0  0  0  0  0  0  0  0  0  0  0  0
    4.7498   -5.9618    6.0008 H   0  0  0  0  0  0  0  0  0  0  0  0
    0.9437   -4.2562    5.4035 H   0  0  0  0  0  0  0  0  0  0  0  0
   -2.9572   -5.0349    6.4774 H   0  0  0  0  0  0  0  0  0  0  0  0
   -2.8994   -3.8306    7.7682 H   0  0  0  0  0  0  0  0  0  0  0  0
   -2.3037   -5.4543    8.0627 H   0  0  0  0  0  0  0  0  0  0  0  0
    2.8810   -5.5505    6.7528 H   0  0  0  0  0  0  0  0  0  0  0  0
    1.5620   -8.5167    5.7303 H   0  0  0  0  0  0  0  0  0  0  0  0
   -0.6076   -8.9985    5.5769 H   0  0  0  0  0  0  0  0  0  0  0  0
   -1.9785   -7.8303    4.4718 H   0  0  0  0  0  0  0  0  0  0  0  0
   -1.7187   -9.4321    3.0740 H   0  0  0  0  0  0  0  0  0  0  0  0
   -0.6067   -9.5888    1.7459 H   0  0  0  0  0  0  0  0  0  0  0  0
   -1.1735   -8.0019    2.2124 H   0  0  0  0  0  0  0  0  0  0  0  0
   -0.1776  -10.9200    4.1473 H   0  0  0  0  0  0  0  0  0  0  0  0
    1.3812  -10.4548    4.7619 H   0  0  0  0  0  0  0  0  0  0  0  0
    1.1806  -10.8222    3.0473 H   0  0  0  0  0  0  0  0  0  0  0  0
  1  2  2  0
  1 41  1  0
  1 42  1  0
  2 30  1  0
  2  3  1  0
  3  4  2  0
  3  5  1  0
  5 12  1  0
  5  6  1  6
  5 15  1  0
  6  7  1  0
  7  8  2  0
  7  9  1  0
  9 10  1  0
  9 43  1  0
  9 44  1  0
 10 11  2  0
 10 45  1  0
 11 12  1  0
 11 46  1  0
 12 13  1  0
 12 47  1  6
 13 14  1  0
 14 48  1  0
 14 49  1  0
 14 50  1  0
 15 24  1  0
 15 16  1  0
 15 51  1  6
 16 17  1  0
 16 18  1  0
 16 52  1  1
 17 53  1  0
 18 38  1  0
 18 19  1  6
 18 20  1  0
 19 54  1  0
 20 21  1  0
 20 22  1  0
 20 55  1  1
 21 56  1  0
 22 23  1  0
 24 22  1  1
 22 57  1  1
 23 58  1  0
 23 59  1  0
 23 60  1  0
 24 35  1  0
 24 25  1  0
 25 26  1  0
 25 30  1  0
 25 61  1  6
 26 27  1  0
 27 28  1  0
 27 29  2  0
 28 62  1  0
 28 63  1  0
 28 64  1  0
 30 31  1  0
 30 65  1  1
 31 32  2  0
 31 33  1  0
 33 34  2  0
 33 35  1  0
 35 36  1  0
 35 66  1  6
 36 37  1  0
 36 38  1  0
 36 67  1  1
 37 68  1  0
 38 39  1  0
 38 40  1  0
 39 69  1  0
 39 70  1  0
 39 71  1  0
 40 72  1  0
 40 73  1  0
 40 74  1  0
M  END
>  <i_m_ct_stereo_status>  (323) 
1

>  <s_m_source_file>  (323) 
/var/tmp/pbs.5076255.sched01/tmppj12hgr0/126t4bdxmoi.sdf

>  <i_m_source_file_index>  (323) 
12

>  <i_lp_mmshare_version>  (323) 
48012

>  <i_f3d_flags>  (323) 
0

>  <s_epik_input>  (323) 
W0NIM11DKD1PKU9bQ0BIXTFbQ0BASF0oQyg9W0NIMl0pQzI9TylDKD1PKUMoPU8pW0NAQEhdKFtDQEBIXShbT0hdKUMoW0NIM10pKFtDSDNdKVtDQEBdKFtPSF0pKFtDQEBIXTNbT0hdKVtDQEBIXShbT0hdKVtDQEhdNFtDSDNdKVtDQEBdMTRbQ0BASF0zW0NAQF0yNU9DKD1PKVtDSDJdW0NIXT1bQ0hdW0NASF01T1tDSDNd

>  <s_epik_cmdline>  (323) 
J2VwaWtfcHl0aG9uJywgJy1waHQnLCAnMi4wJywgJy1waCcsICc3LjAnLCAnLXRuJywgJzgnLCAnLW1hJywgJzIwMCcsICctaW1hZScsICc8aW5maWxlLm1hZT4nLCAnLW9tYWUnLCAnPG91dGZpbGUubWFlPic=

>  <r_lp_tautomer_probability>  (323) 
1

>  <r_epik_Ionization_Penalty>  (323) 
3.93906e-06

>  <r_epik_Ionization_Penalty_Charging>  (323) 
0

>  <r_epik_Ionization_Penalty_Neutral>  (323) 
3.93906e-06

>  <r_epik_State_Penalty>  (323) 
-0

>  <r_epik_Charging_Adjusted_Penalty>  (323) 
0

>  <i_epik_Tot_Q>  (323) 
0

>  <i_epik_Tot_abs_Q>  (323) 
0

>  <s_epik_Chemistry_Notes>  (323) 
This compound has an ester and may undergo hydrolysis at high or low pH.

>  <s_lp_Force_Field>  (323) 
OPLS3e

>  <r_lp_Energy>  (323) 
280.845

>  <b_lp_Chiralities_Consistent>  (323) 
1

>  <s_lp_Variant>  (323) 
97:0-1

>  <s_i_glide_gridfile>  (323) 
pfpi4k_grid

>  <i_i_glide_lignum>  (323) 
12

>  <i_i_glide_rotatable_bonds>  (323) 
7

>  <r_i_docking_score>  (323) 
-2.60418

>  <r_i_glide_ligand_efficiency>  (323) 
-0.0651046

>  <r_i_glide_ligand_efficiency_sa>  (323) 
-0.222654

>  <r_i_glide_ligand_efficiency_ln>  (323) 
-0.555396

>  <r_i_glide_gscore>  (323) 
-2.60418

>  <r_i_glide_lipo>  (323) 
-0.0659838

>  <r_i_glide_hbond>  (323) 
0

>  <r_i_glide_metal>  (323) 
-0

>  <r_i_glide_rewards>  (323) 
-0.0349461

>  <r_i_glide_evdw>  (323) 
-27.9487

>  <r_i_glide_ecoul>  (323) 
-7.63121

>  <r_i_glide_erotb>  (323) 
0.0657308

>  <r_i_glide_esite>  (323) 
-0.0268656

>  <r_i_glide_emodel>  (323) 
-40.6336

>  <r_i_glide_energy>  (323) 
-35.5799

>  <r_i_glide_einternal>  (323) 
2.01688

>  <r_i_glide_intrahb_reward>  (323) 
-0

>  <i_i_glide_confnum>  (323) 
3

>  <i_i_glide_posenum>  (323) 
14

>  <r_i_glide_eff_state_penalty>  (323) 
0

>  <ligand_id>  (323) 
97

>  <original_smiles>  (323) 
C=C1C(=O)C2(OC(=O)CC=CC2OC)C2C(O)C3(O)C(O)C(C)C24C(OC(C)=O)C1C(=O)C(=O)C4C(O)C3(C)C

>  <smiles>  (323) 
[H]OC1([H])C([H])(C([H])([H])[H])C23C([H])(OC(=O)C([H])([H])[H])C4([H])C(=O)C(=O)C2([H])C([H])(O[H])C(C([H])([H])[H])(C([H])([H])[H])C1(O[H])C([H])(O[H])C3([H])C1(OC(=O)C([H])([H])C([H])=C([H])C1([H])OC([H])([H])[H])C(=O)C4=C([H])[H]

$$$$
97:0:2
     RDKit          3D

 74 78  0  0  1  0  0  0  0  0999 V2000
    3.6025   -3.1682    7.4968 C   0  0  0  0  0  0  0  0  0  0  0  0
    2.9778   -3.9108    6.5644 C   0  0  0  0  0  0  0  0  0  0  0  0
    3.2667   -3.6054    5.0505 C   0  0  0  0  0  0  0  0  0  0  0  0
    4.2865   -2.9488    4.8225 O   0  0  0  0  0  0  0  0  0  0  0  0
    2.4021   -4.0653    3.7167 C   0  0  1  0  0  0  0  0  0  0  0  0
    1.1728   -3.3324    3.5142 O   0  0  0  0  0  0  0  0  0  0  0  0
    1.0308   -2.0273    3.8190 C   0  0  0  0  0  0  0  0  0  0  0  0
    0.6646   -1.5942    4.9046 O   0  0  0  0  0  0  0  0  0  0  0  0
    1.2877   -1.1019    2.6375 C   0  0  0  0  0  0  0  0  0  0  0  0
    2.7490   -1.1339    2.2450 C   0  0  0  0  0  0  0  0  0  0  0  0
    3.5469   -2.2164    2.1353 C   0  0  0  0  0  0  0  0  0  0  0  0
    3.1991   -3.6929    2.3812 C   0  0  1  0  0  0  0  0  0  0  0  0
    4.3916   -4.4744    2.2782 O   0  0  0  0  0  0  0  0  0  0  0  0
    4.9013   -4.6599    0.9642 C   0  0  0  0  0  0  0  0  0  0  0  0
    1.9690   -5.6446    3.7028 C   0  0  2  0  0  0  0  0  0  0  0  0
    1.1745   -6.4816    2.7002 C   0  0  1  0  0  0  0  0  0  0  0  0
    1.3344   -6.0507    1.3600 O   0  0  0  0  0  0  0  0  0  0  0  0
    1.5813   -8.0164    2.9633 C   0  0  1  0  0  0  0  0  0  0  0  0
    1.8536   -8.6134    1.7039 O   0  0  0  0  0  0  0  0  0  0  0  0
    2.9544   -8.1824    3.8297 C   0  0  1  0  0  0  0  0  0  0  0  0
    4.0838   -8.1122    2.9728 O   0  0  0  0  0  0  0  0  0  0  0  0
    3.1468   -7.1674    5.0691 C   0  0  1  0  0  0  0  0  0  0  0  0
    4.5532   -6.4896    5.1206 C   0  0  0  0  0  0  0  0  0  0  0  0
    1.7564   -6.3385    5.0885 C   0  0  1  0  0  0  0  0  0  0  0  0
    1.0443   -5.1744    5.9023 C   0  0  1  0  0  0  0  0  0  0  0  0
   -0.3362   -5.2730    6.2976 O   0  0  0  0  0  0  0  0  0  0  0  0
   -1.0030   -4.2610    6.8942 C   0  0  0  0  0  0  0  0  0  0  0  0
   -2.4020   -4.6637    7.3208 C   0  0  0  0  0  0  0  0  0  0  0  0
   -0.5683   -3.1307    7.1216 O   0  0  0  0  0  0  0  0  0  0  0  0
    1.9471   -4.9721    6.9931 C   0  0  2  0  0  0  0  0  0  0  0  0
    1.8487   -6.2057    7.9443 C   0  0  0  0  0  0  0  0  0  0  0  0
    2.3187   -6.2018    9.0803 O   0  0  0  0  0  0  0  0  0  0  0  0
    1.0398   -7.4714    7.3228 C   0  0  0  0  0  0  0  0  0  0  0  0
    0.4581   -8.2843    8.0429 O   0  0  0  0  0  0  0  0  0  0  0  0
    0.9737   -7.5669    5.7333 C   0  0  1  0  0  0  0  0  0  0  0  0
   -0.1860   -8.1897    4.9300 C   0  0  1  0  0  0  0  0  0  0  0  0
   -1.2467   -7.2859    4.6989 O   0  0  0  0  0  0  0  0  0  0  0  0
    0.3392   -8.8224    3.5808 C   0  0  0  0  0  0  0  0  0  0  0  0
   -0.8425   -8.9204    2.5680 C   0  0  0  0  0  0  0  0  0  0  0  0
    0.7077  -10.3040    3.8763 C   0  0  0  0  0  0  0  0  0  0  0  0
    3.4198   -3.3182    8.5502 H   0  0  0  0  0  0  0  0  0  0  0  0
    4.3050   -2.3887    7.2354 H   0  0  0  0  0  0  0  0  0  0  0  0
    0.6643   -1.3580    1.7836 H   0  0  0  0  0  0  0  0  0  0  0  0
    1.0381   -0.0798    2.9358 H   0  0  0  0  0  0  0  0  0  0  0  0
    3.1595   -0.1688    1.9775 H   0  0  0  0  0  0  0  0  0  0  0  0
    4.5637   -2.0306    1.8146 H   0  0  0  0  0  0  0  0  0  0  0  0
    2.5700   -3.9432    1.5308 H   0  0  0  0  0  0  0  0  0  0  0  0
    5.8115   -5.2571    1.0244 H   0  0  0  0  0  0  0  0  0  0  0  0
    5.1601   -3.7195    0.4778 H   0  0  0  0  0  0  0  0  0  0  0  0
    4.1890   -5.1960    0.3351 H   0  0  0  0  0  0  0  0  0  0  0  0
    2.9170   -5.9057    3.2650 H   0  0  0  0  0  0  0  0  0  0  0  0
    0.1244   -6.3103    2.9039 H   0  0  0  0  0  0  0  0  0  0  0  0
    2.2264   -6.2410    1.1019 H   0  0  0  0  0  0  0  0  0  0  0  0
    1.9005   -9.5498    1.8224 H   0  0  0  0  0  0  0  0  0  0  0  0
    3.0324   -9.1946    4.2226 H   0  0  0  0  0  0  0  0  0  0  0  0
    4.0362   -8.8430    2.3718 H   0  0  0  0  0  0  0  0  0  0  0  0
    3.3022   -7.7840    5.9594 H   0  0  0  0  0  0  0  0  0  0  0  0
    4.7794   -5.8280    4.2887 H   0  0  0  0  0  0  0  0  0  0  0  0
    5.3327   -7.2545    5.1042 H   0  0  0  0  0  0  0  0  0  0  0  0
    4.7197   -5.9401    6.0448 H   0  0  0  0  0  0  0  0  0  0  0  0
    0.9209   -4.2346    5.4213 H   0  0  0  0  0  0  0  0  0  0  0  0
   -2.9854   -5.0350    6.4789 H   0  0  0  0  0  0  0  0  0  0  0  0
   -2.9378   -3.8313    7.7692 H   0  0  0  0  0  0  0  0  0  0  0  0
   -2.3327   -5.4606    8.0625 H   0  0  0  0  0  0  0  0  0  0  0  0
    2.8440   -5.5377    6.7825 H   0  0  0  0  0  0  0  0  0  0  0  0
    1.5357   -8.4955    5.7251 H   0  0  0  0  0  0  0  0  0  0  0  0
   -0.6312   -8.9793    5.5444 H   0  0  0  0  0  0  0  0  0  0  0  0
   -1.9959   -7.8043    4.4406 H   0  0  0  0  0  0  0  0  0  0  0  0
   -1.7154   -9.3950    3.0226 H   0  0  0  0  0  0  0  0  0  0  0  0
   -0.5813   -9.5273    1.7060 H   0  0  0  0  0  0  0  0  0  0  0  0
   -1.1626   -7.9542    2.1846 H   0  0  0  0  0  0  0  0  0  0  0  0
   -0.1796  -10.8856    4.1077 H   0  0  0  0  0  0  0  0  0  0  0  0
    1.3662  -10.4270    4.7378 H   0  0  0  0  0  0  0  0  0  0  0  0
    1.1783  -10.7884    3.0214 H   0  0  0  0  0  0  0  0  0  0  0  0
  1  2  2  0
  1 41  1  0
  1 42  1  0
  2 30  1  0
  2  3  1  0
  3  4  2  0
  3  5  1  0
  5 12  1  0
  5  6  1  6
  5 15  1  0
  6  7  1  0
  7  8  2  0
  7  9  1  0
  9 10  1  0
  9 43  1  0
  9 44  1  0
 10 11  2  0
 10 45  1  0
 11 12  1  0
 11 46  1  0
 12 13  1  0
 12 47  1  6
 13 14  1  0
 14 48  1  0
 14 49  1  0
 14 50  1  0
 15 24  1  0
 15 16  1  0
 15 51  1  6
 16 17  1  0
 16 18  1  0
 16 52  1  1
 17 53  1  0
 18 38  1  0
 18 19  1  6
 18 20  1  0
 19 54  1  0
 20 21  1  0
 20 22  1  0
 20 55  1  1
 21 56  1  0
 22 23  1  0
 24 22  1  1
 22 57  1  1
 23 58  1  0
 23 59  1  0
 23 60  1  0
 24 35  1  0
 24 25  1  0
 25 26  1  0
 25 30  1  0
 25 61  1  6
 26 27  1  0
 27 28  1  0
 27 29  2  0
 28 62  1  0
 28 63  1  0
 28 64  1  0
 30 31  1  0
 30 65  1  1
 31 32  2  0
 31 33  1  0
 33 34  2  0
 33 35  1  0
 35 36  1  0
 35 66  1  6
 36 37  1  0
 36 38  1  0
 36 67  1  1
 37 68  1  0
 38 39  1  0
 38 40  1  0
 39 69  1  0
 39 70  1  0
 39 71  1  0
 40 72  1  0
 40 73  1  0
 40 74  1  0
M  END
>  <i_m_ct_stereo_status>  (324) 
1

>  <s_m_source_file>  (324) 
/var/tmp/pbs.5076255.sched01/tmppj12hgr0/126t4bdxmoi.sdf

>  <i_m_source_file_index>  (324) 
12

>  <i_lp_mmshare_version>  (324) 
48012

>  <i_f3d_flags>  (324) 
0

>  <s_epik_input>  (324) 
W0NIM11DKD1PKU9bQ0BIXTFbQ0BASF0oQyg9W0NIMl0pQzI9TylDKD1PKUMoPU8pW0NAQEhdKFtDQEBIXShbT0hdKUMoW0NIM10pKFtDSDNdKVtDQEBdKFtPSF0pKFtDQEBIXTNbT0hdKVtDQEBIXShbT0hdKVtDQEhdNFtDSDNdKVtDQEBdMTRbQ0BASF0zW0NAQF0yNU9DKD1PKVtDSDJdW0NIXT1bQ0hdW0NASF01T1tDSDNd

>  <s_epik_cmdline>  (324) 
J2VwaWtfcHl0aG9uJywgJy1waHQnLCAnMi4wJywgJy1waCcsICc3LjAnLCAnLXRuJywgJzgnLCAnLW1hJywgJzIwMCcsICctaW1hZScsICc8aW5maWxlLm1hZT4nLCAnLW9tYWUnLCAnPG91dGZpbGUubWFlPic=

>  <r_lp_tautomer_probability>  (324) 
1

>  <r_epik_Ionization_Penalty>  (324) 
3.93906e-06

>  <r_epik_Ionization_Penalty_Charging>  (324) 
0

>  <r_epik_Ionization_Penalty_Neutral>  (324) 
3.93906e-06

>  <r_epik_State_Penalty>  (324) 
-0

>  <r_epik_Charging_Adjusted_Penalty>  (324) 
0

>  <i_epik_Tot_Q>  (324) 
0

>  <i_epik_Tot_abs_Q>  (324) 
0

>  <s_epik_Chemistry_Notes>  (324) 
This compound has an ester and may undergo hydrolysis at high or low pH.

>  <s_lp_Force_Field>  (324) 
OPLS3e

>  <r_lp_Energy>  (324) 
280.845

>  <b_lp_Chiralities_Consistent>  (324) 
1

>  <s_lp_Variant>  (324) 
97:0-1

>  <s_i_glide_gridfile>  (324) 
pfpi4k_grid

>  <i_i_glide_lignum>  (324) 
12

>  <i_i_glide_rotatable_bonds>  (324) 
7

>  <r_i_docking_score>  (324) 
-2.36821

>  <r_i_glide_ligand_efficiency>  (324) 
-0.0592052

>  <r_i_glide_ligand_efficiency_sa>  (324) 
-0.202479

>  <r_i_glide_ligand_efficiency_ln>  (324) 
-0.505069

>  <r_i_glide_gscore>  (324) 
-2.36821

>  <r_i_glide_lipo>  (324) 
-0.0584869

>  <r_i_glide_hbond>  (324) 
0

>  <r_i_glide_metal>  (324) 
-0

>  <r_i_glide_rewards>  (324) 
-0.0302545

>  <r_i_glide_evdw>  (324) 
-27.7531

>  <r_i_glide_ecoul>  (324) 
-6.20801

>  <r_i_glide_erotb>  (324) 
0.0657308

>  <r_i_glide_esite>  (324) 
-0.0263394

>  <r_i_glide_emodel>  (324) 
-38.6091

>  <r_i_glide_energy>  (324) 
-33.9611

>  <r_i_glide_einternal>  (324) 
1.68651

>  <r_i_glide_intrahb_reward>  (324) 
-0

>  <i_i_glide_confnum>  (324) 
3

>  <i_i_glide_posenum>  (324) 
1

>  <r_i_glide_eff_state_penalty>  (324) 
0

>  <ligand_id>  (324) 
97

>  <original_smiles>  (324) 
C=C1C(=O)C2(OC(=O)CC=CC2OC)C2C(O)C3(O)C(O)C(C)C24C(OC(C)=O)C1C(=O)C(=O)C4C(O)C3(C)C

>  <smiles>  (324) 
[H]OC1([H])C([H])(C([H])([H])[H])C23C([H])(OC(=O)C([H])([H])[H])C4([H])C(=O)C(=O)C2([H])C([H])(O[H])C(C([H])([H])[H])(C([H])([H])[H])C1(O[H])C([H])(O[H])C3([H])C1(OC(=O)C([H])([H])C([H])=C([H])C1([H])OC([H])([H])[H])C(=O)C4=C([H])[H]

$$$$
99:0:0
     RDKit          3D

 55 60  0  0  1  0  0  0  0  0999 V2000
    2.5038   -2.7395    4.5539 C   0  0  0  0  0  0  0  0  0  0  0  0
    3.6610   -3.3520    3.9875 O   0  0  0  0  0  0  0  0  0  0  0  0
    3.9958   -3.0080    2.6684 C   0  0  1  0  0  0  0  0  0  0  0  0
    5.4548   -3.3982    2.4777 C   0  0  0  0  0  0  0  0  0  0  0  0
    5.8389   -3.6125    1.0190 C   0  0  0  0  0  0  0  0  0  0  0  0
    5.6567   -4.8443    0.4770 C   0  0  0  0  0  0  0  0  0  0  0  0
    4.6927   -5.7885    1.0345 C   0  0  0  0  0  0  0  0  0  0  0  0
    4.9725   -7.1610    0.9643 C   0  0  0  0  0  0  0  0  0  0  0  0
    4.0259   -8.0634    1.4460 C   0  0  0  0  0  0  0  0  0  0  0  0
    2.8207   -7.6323    1.9706 C   0  0  0  0  0  0  0  0  0  0  0  0
    2.5050   -6.2756    2.0405 C   0  0  0  0  0  0  0  0  0  0  0  0
    3.4341   -5.3263    1.5751 C   0  0  0  0  0  0  0  0  0  0  0  0
    3.0671   -3.8230    1.6606 C   0  0  2  0  0  0  0  0  0  0  0  0
    2.8153   -3.1025    0.3007 C   0  0  2  0  0  0  0  0  0  0  0  0
    3.2579   -3.6936   -0.9133 O   0  0  0  0  0  0  0  0  0  0  0  0
    4.2134   -2.9737   -1.5408 C   0  0  0  0  0  0  0  0  0  0  0  0
    4.6217   -3.1443   -2.6891 O   0  0  0  0  0  0  0  0  0  0  0  0
    4.7578   -1.9160   -0.5876 C   0  0  1  0  0  0  0  0  0  0  0  0
    3.4344   -1.7180    0.2012 C   0  0  2  0  0  0  0  0  0  0  0  0
    3.2884   -0.9310    1.5168 C   0  0  0  0  0  0  0  0  0  0  0  0
    3.8478    0.4897    1.4056 C   0  0  0  0  0  0  0  0  0  0  0  0
    1.8224   -0.7663    1.9701 C   0  0  0  0  0  0  0  0  0  0  0  0
    4.0002   -1.6024    2.5364 O   0  0  0  0  0  0  0  0  0  0  0  0
    6.1112   -2.3912    0.1160 C   0  0  0  0  0  0  0  0  0  0  0  0
    6.7705   -1.2218    0.8889 C   0  0  0  0  0  0  0  0  0  0  0  0
    7.1715   -2.7255   -0.9687 C   0  0  0  0  0  0  0  0  0  0  0  0
    2.1003   -8.7116    2.3870 O   0  0  0  0  0  0  0  0  0  0  0  0
    2.9480   -9.8198    2.2063 C   0  0  0  0  0  0  0  0  0  0  0  0
    4.0980   -9.4192    1.5092 O   0  0  0  0  0  0  0  0  0  0  0  0
    2.2976   -3.1315    5.5510 H   0  0  0  0  0  0  0  0  0  0  0  0
    1.5934   -2.9145    3.9737 H   0  0  0  0  0  0  0  0  0  0  0  0
    2.6442   -1.6607    4.6513 H   0  0  0  0  0  0  0  0  0  0  0  0
    6.1007   -2.6670    2.9743 H   0  0  0  0  0  0  0  0  0  0  0  0
    5.6344   -4.3306    3.0245 H   0  0  0  0  0  0  0  0  0  0  0  0
    5.8654   -5.0171   -0.5610 H   0  0  0  0  0  0  0  0  0  0  0  0
    5.9075   -7.5326    0.5581 H   0  0  0  0  0  0  0  0  0  0  0  0
    1.5510   -5.9714    2.4745 H   0  0  0  0  0  0  0  0  0  0  0  0
    2.0774   -3.8276    2.1052 H   0  0  0  0  0  0  0  0  0  0  0  0
    1.7443   -3.0190    0.1914 H   0  0  0  0  0  0  0  0  0  0  0  0
    4.9593   -1.0215   -1.1814 H   0  0  0  0  0  0  0  0  0  0  0  0
    2.8264   -1.1484   -0.4973 H   0  0  0  0  0  0  0  0  0  0  0  0
    4.7865    0.5456    0.8632 H   0  0  0  0  0  0  0  0  0  0  0  0
    3.9821    0.9250    2.3919 H   0  0  0  0  0  0  0  0  0  0  0  0
    3.1349    1.1309    0.8891 H   0  0  0  0  0  0  0  0  0  0  0  0
    1.2404   -0.1700    1.2752 H   0  0  0  0  0  0  0  0  0  0  0  0
    1.7763   -0.2422    2.9204 H   0  0  0  0  0  0  0  0  0  0  0  0
    1.3006   -1.7123    2.0747 H   0  0  0  0  0  0  0  0  0  0  0  0
    6.9158   -0.3608    0.2368 H   0  0  0  0  0  0  0  0  0  0  0  0
    7.7544   -1.5029    1.2616 H   0  0  0  0  0  0  0  0  0  0  0  0
    6.2065   -0.8702    1.7468 H   0  0  0  0  0  0  0  0  0  0  0  0
    7.3565   -1.8594   -1.6103 H   0  0  0  0  0  0  0  0  0  0  0  0
    6.8943   -3.5346   -1.6387 H   0  0  0  0  0  0  0  0  0  0  0  0
    8.1194   -3.0189   -0.5186 H   0  0  0  0  0  0  0  0  0  0  0  0
    3.2566  -10.1901    3.1845 H   0  0  0  0  0  0  0  0  0  0  0  0
    2.4447  -10.6222    1.6728 H   0  0  0  0  0  0  0  0  0  0  0  0
  1  2  1  0
  1 30  1  0
  1 31  1  0
  1 32  1  0
  3  2  1  1
  3 13  1  0
  3 23  1  0
  3  4  1  0
  4  5  1  0
  4 33  1  0
  4 34  1  0
  5 24  1  0
  5  6  2  0
  6  7  1  0
  6 35  1  0
  7 12  2  0
  7  8  1  0
  8  9  2  0
  8 36  1  0
  9 29  1  0
  9 10  1  0
 10 11  2  0
 10 27  1  0
 11 12  1  0
 11 37  1  0
 12 13  1  0
 13 14  1  0
 13 38  1  1
 14 19  1  0
 14 15  1  0
 14 39  1  6
 15 16  1  0
 16 17  2  0
 16 18  1  0
 18 19  1  0
 18 24  1  0
 18 40  1  6
 19 20  1  0
 19 41  1  6
 20 21  1  0
 20 22  1  0
 20 23  1  0
 21 42  1  0
 21 43  1  0
 21 44  1  0
 22 45  1  0
 22 46  1  0
 22 47  1  0
 24 25  1  0
 24 26  1  0
 25 48  1  0
 25 49  1  0
 25 50  1  0
 26 51  1  0
 26 52  1  0
 26 53  1  0
 27 28  1  0
 28 29  1  0
 28 54  1  0
 28 55  1  0
M  END
>  <i_m_ct_stereo_status>  (325) 
1

>  <s_m_source_file>  (325) 
/var/tmp/pbs.5076255.sched01/tmppj12hgr0/126t4bdxmoi.sdf

>  <i_m_source_file_index>  (325) 
15

>  <i_lp_mmshare_version>  (325) 
48012

>  <i_f3d_flags>  (325) 
0

>  <s_epik_input>  (325) 
TzFbQ0gyXU9jKFtjSF0yKWMxW2NIXWMoYzJbQ0BIXTNbQ0BAXTQ1T1tDSDNdKVtDSF09QyhbQ0gyXTQpQyhbQ0gzXSkoW0NIM10pW0NAQEhdNltDQEhdKEMoTzUpKFtDSDNdKVtDSDNdKVtDQEhdM09DNj1P

>  <s_epik_cmdline>  (325) 
J2VwaWtfcHl0aG9uJywgJy1waHQnLCAnMi4wJywgJy1waCcsICc3LjAnLCAnLXRuJywgJzgnLCAnLW1hJywgJzIwMCcsICctaW1hZScsICc8aW5maWxlLm1hZT4nLCAnLW9tYWUnLCAnPG91dGZpbGUubWFlPic=

>  <r_lp_tautomer_probability>  (325) 
1

>  <r_epik_Ionization_Penalty>  (325) 
8.90649e-14

>  <r_epik_Ionization_Penalty_Charging>  (325) 
0

>  <r_epik_Ionization_Penalty_Neutral>  (325) 
8.90649e-14

>  <r_epik_State_Penalty>  (325) 
-0

>  <r_epik_Charging_Adjusted_Penalty>  (325) 
0

>  <i_epik_Tot_Q>  (325) 
0

>  <i_epik_Tot_abs_Q>  (325) 
0

>  <s_epik_Chemistry_Notes>  (325) 
This compound has an ester and may undergo hydrolysis at high or low pH. This compound contains an acetal/aminal-like group ( X-CH(R)-Y where X, Y are N, S, or O) that may be acid/base labile, releasing an aldehyde.

>  <s_lp_Force_Field>  (325) 
OPLS3e

>  <r_lp_Energy>  (325) 
80.4942

>  <b_lp_Chiralities_Consistent>  (325) 
1

>  <s_lp_Variant>  (325) 
99:0-1

>  <s_i_glide_gridfile>  (325) 
pfpi4k_grid

>  <i_i_glide_lignum>  (325) 
15

>  <i_i_glide_rotatable_bonds>  (325) 
1

>  <r_i_docking_score>  (325) 
-2.51724

>  <r_i_glide_ligand_efficiency>  (325) 
-0.0868013

>  <r_i_glide_ligand_efficiency_sa>  (325) 
-0.266681

>  <r_i_glide_ligand_efficiency_ln>  (325) 
-0.576384

>  <r_i_glide_gscore>  (325) 
-2.51724

>  <r_i_glide_lipo>  (325) 
-0.408096

>  <r_i_glide_hbond>  (325) 
0

>  <r_i_glide_metal>  (325) 
-0

>  <r_i_glide_rewards>  (325) 
-0.693955

>  <r_i_glide_evdw>  (325) 
-24.8779

>  <r_i_glide_ecoul>  (325) 
-0.764368

>  <r_i_glide_erotb>  (325) 
0

>  <r_i_glide_esite>  (325) 
-0.0566393

>  <r_i_glide_emodel>  (325) 
-28.1923

>  <r_i_glide_energy>  (325) 
-25.6422

>  <r_i_glide_einternal>  (325) 
1.59832

>  <r_i_glide_intrahb_reward>  (325) 
-0

>  <i_i_glide_confnum>  (325) 
1

>  <i_i_glide_posenum>  (325) 
28

>  <r_i_glide_eff_state_penalty>  (325) 
0

>  <ligand_id>  (325) 
99

>  <original_smiles>  (325) 
COC12CC3=Cc4cc5c(cc4C1C1OC(=O)C(C1C(C)(C)O2)C3(C)C)OCO5

>  <smiles>  (325) 
[H]C1=C2C([H])([H])C3(OC([H])([H])[H])OC(C([H])([H])[H])(C([H])([H])[H])C4([H])C([H])(OC(=O)C4([H])C2(C([H])([H])[H])C([H])([H])[H])C3([H])c2c([H])c3c(c([H])c21)OC([H])([H])O3

$$$$
99:0:1
     RDKit          3D

 55 60  0  0  1  0  0  0  0  0999 V2000
    4.3446   -7.4513    0.9394 C   0  0  0  0  0  0  0  0  0  0  0  0
    4.9564   -6.1802    1.1499 O   0  0  0  0  0  0  0  0  0  0  0  0
    4.4186   -5.3606    2.1611 C   0  0  1  0  0  0  0  0  0  0  0  0
    5.5028   -4.3547    2.5315 C   0  0  0  0  0  0  0  0  0  0  0  0
    4.9552   -3.0839    3.1758 C   0  0  0  0  0  0  0  0  0  0  0  0
    4.5798   -2.0648    2.3762 C   0  0  0  0  0  0  0  0  0  0  0  0
    4.2002   -2.2770    0.9720 C   0  0  0  0  0  0  0  0  0  0  0  0
    4.4990   -1.2635    0.0363 C   0  0  0  0  0  0  0  0  0  0  0  0
    4.1102   -1.4645   -1.2910 C   0  0  0  0  0  0  0  0  0  0  0  0
    3.4231   -2.5976   -1.6810 C   0  0  0  0  0  0  0  0  0  0  0  0
    3.0923   -3.6019   -0.7642 C   0  0  0  0  0  0  0  0  0  0  0  0
    3.4946   -3.4600    0.5812 C   0  0  0  0  0  0  0  0  0  0  0  0
    3.1400   -4.6068    1.5733 C   0  0  2  0  0  0  0  0  0  0  0  0
    2.0525   -4.2541    2.6451 C   0  0  2  0  0  0  0  0  0  0  0  0
    1.7329   -2.8944    2.9174 O   0  0  0  0  0  0  0  0  0  0  0  0
    2.0682   -2.4981    4.1616 C   0  0  0  0  0  0  0  0  0  0  0  0
    1.7123   -1.4561    4.7015 O   0  0  0  0  0  0  0  0  0  0  0  0
    2.9920   -3.5415    4.7996 C   0  0  1  0  0  0  0  0  0  0  0  0
    2.3702   -4.7599    4.0539 C   0  0  2  0  0  0  0  0  0  0  0  0
    2.9902   -6.1676    4.0347 C   0  0  0  0  0  0  0  0  0  0  0  0
    3.2712   -6.7074    5.4538 C   0  0  0  0  0  0  0  0  0  0  0  0
    2.0741   -7.2030    3.3421 C   0  0  0  0  0  0  0  0  0  0  0  0
    4.2236   -6.1224    3.3388 O   0  0  0  0  0  0  0  0  0  0  0  0
    4.5342   -3.1227    4.6640 C   0  0  0  0  0  0  0  0  0  0  0  0
    5.4404   -4.0486    5.5086 C   0  0  0  0  0  0  0  0  0  0  0  0
    4.7628   -1.7349    5.3280 C   0  0  0  0  0  0  0  0  0  0  0  0
    3.1680   -2.5428   -3.0061 O   0  0  0  0  0  0  0  0  0  0  0  0
    3.7979   -1.3778   -3.4695 C   0  0  0  0  0  0  0  0  0  0  0  0
    4.2954   -0.6646   -2.3681 O   0  0  0  0  0  0  0  0  0  0  0  0
    4.7915   -7.9591    0.0785 H   0  0  0  0  0  0  0  0  0  0  0  0
    3.2686   -7.3611    0.7780 H   0  0  0  0  0  0  0  0  0  0  0  0
    4.4972   -8.0946    1.8084 H   0  0  0  0  0  0  0  0  0  0  0  0
    6.2580   -4.8517    3.1338 H   0  0  0  0  0  0  0  0  0  0  0  0
    6.0264   -4.0763    1.6164 H   0  0  0  0  0  0  0  0  0  0  0  0
    4.1535   -1.1736    2.7977 H   0  0  0  0  0  0  0  0  0  0  0  0
    5.0129   -0.3545    0.3205 H   0  0  0  0  0  0  0  0  0  0  0  0
    2.5611   -4.4780   -1.1010 H   0  0  0  0  0  0  0  0  0  0  0  0
    2.6237   -5.3408    0.9613 H   0  0  0  0  0  0  0  0  0  0  0  0
    1.1244   -4.7219    2.3152 H   0  0  0  0  0  0  0  0  0  0  0  0
    2.7328   -3.5811    5.8594 H   0  0  0  0  0  0  0  0  0  0  0  0
    1.4074   -4.9128    4.5497 H   0  0  0  0  0  0  0  0  0  0  0  0
    3.7073   -5.9692    6.1233 H   0  0  0  0  0  0  0  0  0  0  0  0
    3.9490   -7.5624    5.4083 H   0  0  0  0  0  0  0  0  0  0  0  0
    2.3488   -7.0490    5.9234 H   0  0  0  0  0  0  0  0  0  0  0  0
    1.1438   -7.3464    3.9012 H   0  0  0  0  0  0  0  0  0  0  0  0
    2.5728   -8.1711    3.3120 H   0  0  0  0  0  0  0  0  0  0  0  0
    1.8340   -6.9358    2.3122 H   0  0  0  0  0  0  0  0  0  0  0  0
    5.1149   -4.0642    6.5501 H   0  0  0  0  0  0  0  0  0  0  0  0
    6.4731   -3.6978    5.5105 H   0  0  0  0  0  0  0  0  0  0  0  0
    5.4705   -5.0817    5.1736 H   0  0  0  0  0  0  0  0  0  0  0  0
    4.4804   -1.7557    6.3801 H   0  0  0  0  0  0  0  0  0  0  0  0
    4.2001   -0.9175    4.8829 H   0  0  0  0  0  0  0  0  0  0  0  0
    5.8127   -1.4439    5.2799 H   0  0  0  0  0  0  0  0  0  0  0  0
    4.6482   -1.6715   -4.0848 H   0  0  0  0  0  0  0  0  0  0  0  0
    3.1162   -0.7642   -4.0611 H   0  0  0  0  0  0  0  0  0  0  0  0
  1  2  1  0
  1 30  1  0
  1 31  1  0
  1 32  1  0
  3  2  1  6
  3 13  1  0
  3 23  1  0
  3  4  1  0
  4  5  1  0
  4 33  1  0
  4 34  1  0
  5 24  1  0
  5  6  2  0
  6  7  1  0
  6 35  1  0
  7 12  2  0
  7  8  1  0
  8  9  2  0
  8 36  1  0
  9 29  1  0
  9 10  1  0
 10 11  2  0
 10 27  1  0
 11 12  1  0
 11 37  1  0
 12 13  1  0
 13 14  1  0
 13 38  1  6
 14 19  1  0
 14 15  1  0
 14 39  1  6
 15 16  1  0
 16 17  2  0
 16 18  1  0
 18 19  1  0
 18 24  1  0
 18 40  1  1
 19 20  1  0
 19 41  1  1
 20 21  1  0
 20 22  1  0
 20 23  1  0
 21 42  1  0
 21 43  1  0
 21 44  1  0
 22 45  1  0
 22 46  1  0
 22 47  1  0
 24 25  1  0
 24 26  1  0
 25 48  1  0
 25 49  1  0
 25 50  1  0
 26 51  1  0
 26 52  1  0
 26 53  1  0
 27 28  1  0
 28 29  1  0
 28 54  1  0
 28 55  1  0
M  END
>  <i_m_ct_stereo_status>  (326) 
1

>  <s_m_source_file>  (326) 
/var/tmp/pbs.5076255.sched01/tmppj12hgr0/126t4bdxmoi.sdf

>  <i_m_source_file_index>  (326) 
15

>  <i_lp_mmshare_version>  (326) 
48012

>  <i_f3d_flags>  (326) 
0

>  <s_epik_input>  (326) 
TzFbQ0gyXU9jKFtjSF0yKWMxW2NIXWMoYzJbQ0BIXTNbQ0BAXTQ1T1tDSDNdKVtDSF09QyhbQ0gyXTQpQyhbQ0gzXSkoW0NIM10pW0NAQEhdNltDQEhdKEMoTzUpKFtDSDNdKVtDSDNdKVtDQEhdM09DNj1P

>  <s_epik_cmdline>  (326) 
J2VwaWtfcHl0aG9uJywgJy1waHQnLCAnMi4wJywgJy1waCcsICc3LjAnLCAnLXRuJywgJzgnLCAnLW1hJywgJzIwMCcsICctaW1hZScsICc8aW5maWxlLm1hZT4nLCAnLW9tYWUnLCAnPG91dGZpbGUubWFlPic=

>  <r_lp_tautomer_probability>  (326) 
1

>  <r_epik_Ionization_Penalty>  (326) 
8.90649e-14

>  <r_epik_Ionization_Penalty_Charging>  (326) 
0

>  <r_epik_Ionization_Penalty_Neutral>  (326) 
8.90649e-14

>  <r_epik_State_Penalty>  (326) 
-0

>  <r_epik_Charging_Adjusted_Penalty>  (326) 
0

>  <i_epik_Tot_Q>  (326) 
0

>  <i_epik_Tot_abs_Q>  (326) 
0

>  <s_epik_Chemistry_Notes>  (326) 
This compound has an ester and may undergo hydrolysis at high or low pH. This compound contains an acetal/aminal-like group ( X-CH(R)-Y where X, Y are N, S, or O) that may be acid/base labile, releasing an aldehyde.

>  <s_lp_Force_Field>  (326) 
OPLS3e

>  <r_lp_Energy>  (326) 
80.4942

>  <b_lp_Chiralities_Consistent>  (326) 
1

>  <s_lp_Variant>  (326) 
99:0-1

>  <s_i_glide_gridfile>  (326) 
pfpi4k_grid

>  <i_i_glide_lignum>  (326) 
15

>  <i_i_glide_rotatable_bonds>  (326) 
1

>  <r_i_docking_score>  (326) 
-2.09131

>  <r_i_glide_ligand_efficiency>  (326) 
-0.072114

>  <r_i_glide_ligand_efficiency_sa>  (326) 
-0.221557

>  <r_i_glide_ligand_efficiency_ln>  (326) 
-0.478856

>  <r_i_glide_gscore>  (326) 
-2.09131

>  <r_i_glide_lipo>  (326) 
-0.272395

>  <r_i_glide_hbond>  (326) 
0

>  <r_i_glide_metal>  (326) 
-0

>  <r_i_glide_rewards>  (326) 
-0.943906

>  <r_i_glide_evdw>  (326) 
-23.0268

>  <r_i_glide_ecoul>  (326) 
1.84222

>  <r_i_glide_erotb>  (326) 
0

>  <r_i_glide_esite>  (326) 
0

>  <r_i_glide_emodel>  (326) 
-23.1858

>  <r_i_glide_energy>  (326) 
-21.1846

>  <r_i_glide_einternal>  (326) 
1.55434

>  <r_i_glide_intrahb_reward>  (326) 
-0

>  <i_i_glide_confnum>  (326) 
1

>  <i_i_glide_posenum>  (326) 
18

>  <r_i_glide_eff_state_penalty>  (326) 
0

>  <ligand_id>  (326) 
99

>  <original_smiles>  (326) 
COC12CC3=Cc4cc5c(cc4C1C1OC(=O)C(C1C(C)(C)O2)C3(C)C)OCO5

>  <smiles>  (326) 
[H]C1=C2C([H])([H])C3(OC([H])([H])[H])OC(C([H])([H])[H])(C([H])([H])[H])C4([H])C([H])(OC(=O)C4([H])C2(C([H])([H])[H])C([H])([H])[H])C3([H])c2c([H])c3c(c([H])c21)OC([H])([H])O3

$$$$
99:0:2
     RDKit          3D

 55 60  0  0  1  0  0  0  0  0999 V2000
    3.2955    5.1117    5.7519 C   0  0  0  0  0  0  0  0  0  0  0  0
    2.0226    5.0444    6.3968 O   0  0  0  0  0  0  0  0  0  0  0  0
    1.7809    3.9583    7.2580 C   0  0  1  0  0  0  0  0  0  0  0  0
    0.6076    4.3870    8.1443 C   0  0  0  0  0  0  0  0  0  0  0  0
   -0.1606    3.2253    8.7514 C   0  0  0  0  0  0  0  0  0  0  0  0
   -1.1708    2.6731    8.0442 C   0  0  0  0  0  0  0  0  0  0  0  0
   -1.2388    2.7997    6.5853 C   0  0  0  0  0  0  0  0  0  0  0  0
   -2.5111    2.8822    5.9795 C   0  0  0  0  0  0  0  0  0  0  0  0
   -2.5716    2.9305    4.5877 C   0  0  0  0  0  0  0  0  0  0  0  0
   -1.4320    2.9115    3.8133 C   0  0  0  0  0  0  0  0  0  0  0  0
   -0.1590    2.8357    4.3888 C   0  0  0  0  0  0  0  0  0  0  0  0
   -0.0490    2.7767    5.7851 C   0  0  0  0  0  0  0  0  0  0  0  0
    1.3821    2.6783    6.4034 C   0  0  2  0  0  0  0  0  0  0  0  0
    1.7486    1.3098    7.0656 C   0  0  2  0  0  0  0  0  0  0  0  0
    0.7313    0.3840    7.4365 O   0  0  0  0  0  0  0  0  0  0  0  0
    0.5948    0.2152    8.7665 C   0  0  0  0  0  0  0  0  0  0  0  0
   -0.0953   -0.6403    9.3118 O   0  0  0  0  0  0  0  0  0  0  0  0
    1.3842    1.2879    9.5070 C   0  0  1  0  0  0  0  0  0  0  0  0
    2.4853    1.4419    8.4017 C   0  0  2  0  0  0  0  0  0  0  0  0
    3.5238    2.5793    8.3813 C   0  0  0  0  0  0  0  0  0  0  0  0
    4.3046    2.6897    9.7100 C   0  0  0  0  0  0  0  0  0  0  0  0
    4.5756    2.3662    7.2762 C   0  0  0  0  0  0  0  0  0  0  0  0
    2.8660    3.8152    8.1684 O   0  0  0  0  0  0  0  0  0  0  0  0
    0.4416    2.4979    9.9789 C   0  0  0  0  0  0  0  0  0  0  0  0
    1.1957    3.4694   10.9220 C   0  0  0  0  0  0  0  0  0  0  0  0
   -0.6923    1.9605   10.8916 C   0  0  0  0  0  0  0  0  0  0  0  0
   -1.7743    2.9617    2.4979 O   0  0  0  0  0  0  0  0  0  0  0  0
   -3.1595    3.1450    2.4780 C   0  0  0  0  0  0  0  0  0  0  0  0
   -3.6591    2.9490    3.7674 O   0  0  0  0  0  0  0  0  0  0  0  0
    3.3363    5.9745    5.0710 H   0  0  0  0  0  0  0  0  0  0  0  0
    3.5071    4.2024    5.1802 H   0  0  0  0  0  0  0  0  0  0  0  0
    4.0814    5.2453    6.4990 H   0  0  0  0  0  0  0  0  0  0  0  0
    0.9521    5.1122    8.8859 H   0  0  0  0  0  0  0  0  0  0  0  0
   -0.0880    4.9569    7.5175 H   0  0  0  0  0  0  0  0  0  0  0  0
   -1.7041    1.8336    8.4354 H   0  0  0  0  0  0  0  0  0  0  0  0
   -3.4283    2.8835    6.5682 H   0  0  0  0  0  0  0  0  0  0  0  0
    0.7157    2.8147    3.7490 H   0  0  0  0  0  0  0  0  0  0  0  0
    2.0418    2.6804    5.5416 H   0  0  0  0  0  0  0  0  0  0  0  0
    2.3860    0.7885    6.3539 H   0  0  0  0  0  0  0  0  0  0  0  0
    1.8116    0.8112   10.3951 H   0  0  0  0  0  0  0  0  0  0  0  0
    3.0933    0.5403    8.5166 H   0  0  0  0  0  0  0  0  0  0  0  0
    3.6800    2.5909   10.5968 H   0  0  0  0  0  0  0  0  0  0  0  0
    4.8212    3.6481    9.7600 H   0  0  0  0  0  0  0  0  0  0  0  0
    5.0593    1.9057    9.7716 H   0  0  0  0  0  0  0  0  0  0  0  0
    5.1883    1.4835    7.4866 H   0  0  0  0  0  0  0  0  0  0  0  0
    5.2476    3.2205    7.2525 H   0  0  0  0  0  0  0  0  0  0  0  0
    4.1260    2.2663    6.2863 H   0  0  0  0  0  0  0  0  0  0  0  0
    1.6052    2.9268   11.7731 H   0  0  0  0  0  0  0  0  0  0  0  0
    0.5124    4.2146   11.3227 H   0  0  0  0  0  0  0  0  0  0  0  0
    2.0128    4.0095   10.4628 H   0  0  0  0  0  0  0  0  0  0  0  0
   -0.2842    1.4467   11.7669 H   0  0  0  0  0  0  0  0  0  0  0  0
   -1.3556    1.2515   10.4103 H   0  0  0  0  0  0  0  0  0  0  0  0
   -1.3255    2.7697   11.2577 H   0  0  0  0  0  0  0  0  0  0  0  0
   -3.3732    4.1698    2.1900 H   0  0  0  0  0  0  0  0  0  0  0  0
   -3.6377    2.4842    1.7474 H   0  0  0  0  0  0  0  0  0  0  0  0
  1  2  1  0
  1 30  1  0
  1 31  1  0
  1 32  1  0
  3  2  1  6
  3 13  1  0
  3 23  1  0
  3  4  1  0
  4  5  1  0
  4 33  1  0
  4 34  1  0
  5 24  1  0
  5  6  2  0
  6  7  1  0
  6 35  1  0
  7 12  2  0
  7  8  1  0
  8  9  2  0
  8 36  1  0
  9 29  1  0
  9 10  1  0
 10 11  2  0
 10 27  1  0
 11 12  1  0
 11 37  1  0
 12 13  1  0
 13 14  1  0
 13 38  1  6
 14 19  1  0
 14 15  1  0
 14 39  1  6
 15 16  1  0
 16 17  2  0
 16 18  1  0
 18 19  1  0
 18 24  1  0
 18 40  1  1
 19 20  1  0
 19 41  1  1
 20 21  1  0
 20 22  1  0
 20 23  1  0
 21 42  1  0
 21 43  1  0
 21 44  1  0
 22 45  1  0
 22 46  1  0
 22 47  1  0
 24 25  1  0
 24 26  1  0
 25 48  1  0
 25 49  1  0
 25 50  1  0
 26 51  1  0
 26 52  1  0
 26 53  1  0
 27 28  1  0
 28 29  1  0
 28 54  1  0
 28 55  1  0
M  END
>  <i_m_ct_stereo_status>  (327) 
1

>  <s_m_source_file>  (327) 
/var/tmp/pbs.5076255.sched01/tmppj12hgr0/126t4bdxmoi.sdf

>  <i_m_source_file_index>  (327) 
15

>  <i_lp_mmshare_version>  (327) 
48012

>  <i_f3d_flags>  (327) 
0

>  <s_epik_input>  (327) 
TzFbQ0gyXU9jKFtjSF0yKWMxW2NIXWMoYzJbQ0BIXTNbQ0BAXTQ1T1tDSDNdKVtDSF09QyhbQ0gyXTQpQyhbQ0gzXSkoW0NIM10pW0NAQEhdNltDQEhdKEMoTzUpKFtDSDNdKVtDSDNdKVtDQEhdM09DNj1P

>  <s_epik_cmdline>  (327) 
J2VwaWtfcHl0aG9uJywgJy1waHQnLCAnMi4wJywgJy1waCcsICc3LjAnLCAnLXRuJywgJzgnLCAnLW1hJywgJzIwMCcsICctaW1hZScsICc8aW5maWxlLm1hZT4nLCAnLW9tYWUnLCAnPG91dGZpbGUubWFlPic=

>  <r_lp_tautomer_probability>  (327) 
1

>  <r_epik_Ionization_Penalty>  (327) 
8.90649e-14

>  <r_epik_Ionization_Penalty_Charging>  (327) 
0

>  <r_epik_Ionization_Penalty_Neutral>  (327) 
8.90649e-14

>  <r_epik_State_Penalty>  (327) 
-0

>  <r_epik_Charging_Adjusted_Penalty>  (327) 
0

>  <i_epik_Tot_Q>  (327) 
0

>  <i_epik_Tot_abs_Q>  (327) 
0

>  <s_epik_Chemistry_Notes>  (327) 
This compound has an ester and may undergo hydrolysis at high or low pH. This compound contains an acetal/aminal-like group ( X-CH(R)-Y where X, Y are N, S, or O) that may be acid/base labile, releasing an aldehyde.

>  <s_lp_Force_Field>  (327) 
OPLS3e

>  <r_lp_Energy>  (327) 
80.4942

>  <b_lp_Chiralities_Consistent>  (327) 
1

>  <s_lp_Variant>  (327) 
99:0-1

>  <s_i_glide_gridfile>  (327) 
pfpi4k_grid

>  <i_i_glide_lignum>  (327) 
15

>  <i_i_glide_rotatable_bonds>  (327) 
1

>  <r_i_docking_score>  (327) 
-1.82766

>  <r_i_glide_ligand_efficiency>  (327) 
-0.0630228

>  <r_i_glide_ligand_efficiency_sa>  (327) 
-0.193626

>  <r_i_glide_ligand_efficiency_ln>  (327) 
-0.418488

>  <r_i_glide_gscore>  (327) 
-1.82766

>  <r_i_glide_lipo>  (327) 
-0.107131

>  <r_i_glide_hbond>  (327) 
-0.0500893

>  <r_i_glide_metal>  (327) 
-0

>  <r_i_glide_rewards>  (327) 
-0.692394

>  <r_i_glide_evdw>  (327) 
-15.3158

>  <r_i_glide_ecoul>  (327) 
-1.27414

>  <r_i_glide_erotb>  (327) 
0

>  <r_i_glide_esite>  (327) 
-0.0211372

>  <r_i_glide_emodel>  (327) 
-18.1678

>  <r_i_glide_energy>  (327) 
-16.59

>  <r_i_glide_einternal>  (327) 
1.50598

>  <r_i_glide_intrahb_reward>  (327) 
-0

>  <i_i_glide_confnum>  (327) 
2

>  <i_i_glide_posenum>  (327) 
37

>  <r_i_glide_eff_state_penalty>  (327) 
0

>  <ligand_id>  (327) 
99

>  <original_smiles>  (327) 
COC12CC3=Cc4cc5c(cc4C1C1OC(=O)C(C1C(C)(C)O2)C3(C)C)OCO5

>  <smiles>  (327) 
[H]C1=C2C([H])([H])C3(OC([H])([H])[H])OC(C([H])([H])[H])(C([H])([H])[H])C4([H])C([H])(OC(=O)C4([H])C2(C([H])([H])[H])C([H])([H])[H])C3([H])c2c([H])c3c(c([H])c21)OC([H])([H])O3

$$$$
100:0:0
     RDKit          3D

 28 30  0  0  1  0  0  0  0  0999 V2000
    1.6985   -5.4697    1.3293 O   0  0  0  0  0  0  0  0  0  0  0  0
    2.5453   -6.1465    1.9069 C   0  0  0  0  0  0  0  0  0  0  0  0
    3.7816   -5.4936    2.5286 C   0  0  0  0  0  0  0  0  0  0  0  0
    5.2061   -5.4352    1.4036 S   0  0  0  0  0  0  0  0  0  0  0  0
    4.8828   -4.2057    0.1755 C   0  0  0  0  0  0  0  0  0  0  0  0
    3.6076   -3.9544   -0.1997 N   0  0  0  0  0  0  0  0  0  0  0  0
    3.4642   -3.0120   -1.1716 C   0  0  0  0  0  0  0  0  0  0  0  0
    4.4632   -2.3131   -1.7757 N   0  0  0  0  0  0  0  0  0  0  0  0
    5.6823   -2.6407   -1.3063 C   0  0  0  0  0  0  0  0  0  0  0  0
    6.9577   -2.2588   -1.5244 N   0  0  0  0  0  0  0  0  0  0  0  0
    7.6289   -3.4074   -0.3084 S   0  0  0  0  0  0  0  0  0  0  0  0
    5.9372   -3.5715   -0.3483 N   0  0  0  0  0  0  0  0  0  0  0  0
    2.4235   -7.4728    2.0414 N   0  0  0  0  0  0  0  0  0  0  0  0
    1.2925   -8.2244    1.5167 C   0  0  0  0  0  0  0  0  0  0  0  0
    0.0983   -8.2128    2.4215 C   0  0  0  0  0  0  0  0  0  0  0  0
   -0.8619   -9.1430    2.6933 C   0  0  0  0  0  0  0  0  0  0  0  0
   -1.7292   -8.5537    3.6541 C   0  0  0  0  0  0  0  0  0  0  0  0
   -1.2432   -7.3040    3.8908 C   0  0  0  0  0  0  0  0  0  0  0  0
   -0.1435   -7.0654    3.1249 O   0  0  0  0  0  0  0  0  0  0  0  0
    3.5580   -4.4823    2.8756 H   0  0  0  0  0  0  0  0  0  0  0  0
    4.0794   -6.0576    3.4132 H   0  0  0  0  0  0  0  0  0  0  0  0
    2.4550   -2.7951   -1.4911 H   0  0  0  0  0  0  0  0  0  0  0  0
    3.1182   -7.9772    2.5705 H   0  0  0  0  0  0  0  0  0  0  0  0
    1.0021   -7.8360    0.5367 H   0  0  0  0  0  0  0  0  0  0  0  0
    1.6290   -9.2464    1.3521 H   0  0  0  0  0  0  0  0  0  0  0  0
   -0.9163  -10.1361    2.2716 H   0  0  0  0  0  0  0  0  0  0  0  0
   -2.5826   -9.0093    4.1335 H   0  0  0  0  0  0  0  0  0  0  0  0
   -1.5330   -6.4953    4.5436 H   0  0  0  0  0  0  0  0  0  0  0  0
  1  2  2  0
  2  3  1  0
  2 13  1  0
  3  4  1  0
  3 20  1  0
  3 21  1  0
  4  5  1  0
  5 12  1  0
  5  6  2  0
  6  7  1  0
  7  8  2  0
  7 22  1  0
  8  9  1  0
  9 12  1  0
  9 10  2  0
 10 11  1  0
 11 12  1  0
 13 14  1  0
 13 23  1  0
 14 15  1  0
 14 24  1  0
 14 25  1  0
 15 19  1  0
 15 16  2  0
 16 17  1  0
 16 26  1  0
 17 18  2  0
 17 27  1  0
 18 19  1  0
 18 28  1  0
M  END
>  <i_m_ct_stereo_status>  (328) 
1

>  <s_m_source_file>  (328) 
/var/tmp/pbs.5076255.sched01/tmppj12hgr0/126t4bdxmoi.sdf

>  <i_m_source_file_index>  (328) 
16

>  <i_lp_mmshare_version>  (328) 
48012

>  <i_f3d_flags>  (328) 
0

>  <s_epik_input>  (328) 
bjFbY0hdbmMobihjMTIpc24yKVNbQ0gyXUMoPU8pW05IXVtDSDJdYzNbY0hdW2NIXVtjSF1vMw==

>  <s_epik_cmdline>  (328) 
J2VwaWtfcHl0aG9uJywgJy1waHQnLCAnMi4wJywgJy1waCcsICc3LjAnLCAnLXRuJywgJzgnLCAnLW1hJywgJzIwMCcsICctaW1hZScsICc8aW5maWxlLm1hZT4nLCAnLW9tYWUnLCAnPG91dGZpbGUubWFlPic=

>  <r_lp_tautomer_probability>  (328) 
1

>  <r_epik_Ionization_Penalty>  (328) 
7.87844e-06

>  <r_epik_Ionization_Penalty_Charging>  (328) 
0

>  <r_epik_Ionization_Penalty_Neutral>  (328) 
7.87844e-06

>  <r_epik_State_Penalty>  (328) 
-0

>  <r_epik_Charging_Adjusted_Penalty>  (328) 
0

>  <i_epik_Tot_Q>  (328) 
0

>  <i_epik_Tot_abs_Q>  (328) 
0

>  <s_lp_Force_Field>  (328) 
OPLS3e

>  <r_lp_Energy>  (328) 
18.2381

>  <b_lp_Chiralities_Consistent>  (328) 
1

>  <s_lp_Variant>  (328) 
100:0-1

>  <s_i_glide_gridfile>  (328) 
pfpi4k_grid

>  <i_i_glide_lignum>  (328) 
16

>  <i_i_glide_rotatable_bonds>  (328) 
6

>  <r_i_docking_score>  (328) 
-3.3715

>  <r_i_glide_ligand_efficiency>  (328) 
-0.177447

>  <r_i_glide_ligand_efficiency_sa>  (328) 
-0.4735

>  <r_i_glide_ligand_efficiency_ln>  (328) 
-0.854746

>  <r_i_glide_gscore>  (328) 
-3.3715

>  <r_i_glide_lipo>  (328) 
-0.28248

>  <r_i_glide_hbond>  (328) 
-0.271327

>  <r_i_glide_metal>  (328) 
-0

>  <r_i_glide_rewards>  (328) 
-1.54766

>  <r_i_glide_evdw>  (328) 
-26.6422

>  <r_i_glide_ecoul>  (328) 
-4.95211

>  <r_i_glide_erotb>  (328) 
0.839317

>  <r_i_glide_esite>  (328) 
-0.0344225

>  <r_i_glide_emodel>  (328) 
-37.99

>  <r_i_glide_energy>  (328) 
-31.5943

>  <r_i_glide_einternal>  (328) 
1.57339

>  <r_i_glide_intrahb_reward>  (328) 
-0

>  <i_i_glide_confnum>  (328) 
5

>  <i_i_glide_posenum>  (328) 
40

>  <r_i_glide_eff_state_penalty>  (328) 
0

>  <ligand_id>  (328) 
100

>  <original_smiles>  (328) 
O=C(CSc1ncnc2nsn12)NCc1ccco1

>  <smiles>  (328) 
[H]c1nc(SC([H])([H])C(=O)N([H])C([H])([H])c2oc([H])c([H])c2[H])n2snc2n1

$$$$
100:0:1
     RDKit          3D

 28 30  0  0  1  0  0  0  0  0999 V2000
   -1.8000    0.1420    6.4789 O   0  0  0  0  0  0  0  0  0  0  0  0
   -1.3771    1.0275    5.7389 C   0  0  0  0  0  0  0  0  0  0  0  0
   -1.6165    0.9218    4.2402 C   0  0  0  0  0  0  0  0  0  0  0  0
   -0.1049    1.0688    3.2564 S   0  0  0  0  0  0  0  0  0  0  0  0
    0.7469   -0.4738    3.3630 C   0  0  0  0  0  0  0  0  0  0  0  0
    0.2253   -1.4786    4.1103 N   0  0  0  0  0  0  0  0  0  0  0  0
    0.9546   -2.6319    4.0837 C   0  0  0  0  0  0  0  0  0  0  0  0
    2.1039   -2.8587    3.3945 N   0  0  0  0  0  0  0  0  0  0  0  0
    2.5229   -1.7842    2.6956 C   0  0  0  0  0  0  0  0  0  0  0  0
    3.5568   -1.4816    1.8923 N   0  0  0  0  0  0  0  0  0  0  0  0
    2.9613    0.2128    1.6421 S   0  0  0  0  0  0  0  0  0  0  0  0
    1.8781   -0.5869    2.6656 N   0  0  0  0  0  0  0  0  0  0  0  0
   -0.7327    2.1206    6.1787 N   0  0  0  0  0  0  0  0  0  0  0  0
   -0.4798    2.4510    7.5764 C   0  0  0  0  0  0  0  0  0  0  0  0
   -1.7287    2.7880    8.3320 C   0  0  0  0  0  0  0  0  0  0  0  0
   -2.9807    3.1823    7.9526 C   0  0  0  0  0  0  0  0  0  0  0  0
   -3.7347    3.3472    9.1477 C   0  0  0  0  0  0  0  0  0  0  0  0
   -2.8872    3.0267   10.1689 C   0  0  0  0  0  0  0  0  0  0  0  0
   -1.6591    2.6827    9.6888 O   0  0  0  0  0  0  0  0  0  0  0  0
   -2.1085   -0.0222    4.0127 H   0  0  0  0  0  0  0  0  0  0  0  0
   -2.2972    1.7179    3.9361 H   0  0  0  0  0  0  0  0  0  0  0  0
    0.5829   -3.4674    4.6646 H   0  0  0  0  0  0  0  0  0  0  0  0
   -0.4015    2.7792    5.4849 H   0  0  0  0  0  0  0  0  0  0  0  0
    0.0431    1.6232    8.0580 H   0  0  0  0  0  0  0  0  0  0  0  0
    0.1953    3.3075    7.6073 H   0  0  0  0  0  0  0  0  0  0  0  0
   -3.3022    3.3308    6.9327 H   0  0  0  0  0  0  0  0  0  0  0  0
   -4.7672    3.6469    9.2515 H   0  0  0  0  0  0  0  0  0  0  0  0
   -2.9903    2.9902   11.2461 H   0  0  0  0  0  0  0  0  0  0  0  0
  1  2  2  0
  2  3  1  0
  2 13  1  0
  3  4  1  0
  3 20  1  0
  3 21  1  0
  4  5  1  0
  5 12  1  0
  5  6  2  0
  6  7  1  0
  7  8  2  0
  7 22  1  0
  8  9  1  0
  9 12  1  0
  9 10  2  0
 10 11  1  0
 11 12  1  0
 13 14  1  0
 13 23  1  0
 14 15  1  0
 14 24  1  0
 14 25  1  0
 15 19  1  0
 15 16  2  0
 16 17  1  0
 16 26  1  0
 17 18  2  0
 17 27  1  0
 18 19  1  0
 18 28  1  0
M  END
>  <i_m_ct_stereo_status>  (329) 
1

>  <s_m_source_file>  (329) 
/var/tmp/pbs.5076255.sched01/tmppj12hgr0/126t4bdxmoi.sdf

>  <i_m_source_file_index>  (329) 
16

>  <i_lp_mmshare_version>  (329) 
48012

>  <i_f3d_flags>  (329) 
0

>  <s_epik_input>  (329) 
bjFbY0hdbmMobihjMTIpc24yKVNbQ0gyXUMoPU8pW05IXVtDSDJdYzNbY0hdW2NIXVtjSF1vMw==

>  <s_epik_cmdline>  (329) 
J2VwaWtfcHl0aG9uJywgJy1waHQnLCAnMi4wJywgJy1waCcsICc3LjAnLCAnLXRuJywgJzgnLCAnLW1hJywgJzIwMCcsICctaW1hZScsICc8aW5maWxlLm1hZT4nLCAnLW9tYWUnLCAnPG91dGZpbGUubWFlPic=

>  <r_lp_tautomer_probability>  (329) 
1

>  <r_epik_Ionization_Penalty>  (329) 
7.87844e-06

>  <r_epik_Ionization_Penalty_Charging>  (329) 
0

>  <r_epik_Ionization_Penalty_Neutral>  (329) 
7.87844e-06

>  <r_epik_State_Penalty>  (329) 
-0

>  <r_epik_Charging_Adjusted_Penalty>  (329) 
0

>  <i_epik_Tot_Q>  (329) 
0

>  <i_epik_Tot_abs_Q>  (329) 
0

>  <s_lp_Force_Field>  (329) 
OPLS3e

>  <r_lp_Energy>  (329) 
18.2381

>  <b_lp_Chiralities_Consistent>  (329) 
1

>  <s_lp_Variant>  (329) 
100:0-1

>  <s_i_glide_gridfile>  (329) 
pfpi4k_grid

>  <i_i_glide_lignum>  (329) 
16

>  <i_i_glide_rotatable_bonds>  (329) 
6

>  <r_i_docking_score>  (329) 
-3.14917

>  <r_i_glide_ligand_efficiency>  (329) 
-0.165746

>  <r_i_glide_ligand_efficiency_sa>  (329) 
-0.442276

>  <r_i_glide_ligand_efficiency_ln>  (329) 
-0.798382

>  <r_i_glide_gscore>  (329) 
-3.14917

>  <r_i_glide_lipo>  (329) 
-0.225305

>  <r_i_glide_hbond>  (329) 
-0.16

>  <r_i_glide_metal>  (329) 
-0

>  <r_i_glide_rewards>  (329) 
-1.43552

>  <r_i_glide_evdw>  (329) 
-23.3619

>  <r_i_glide_ecoul>  (329) 
-6.09524

>  <r_i_glide_erotb>  (329) 
0.839317

>  <r_i_glide_esite>  (329) 
-0.0852834

>  <r_i_glide_emodel>  (329) 
-35.8673

>  <r_i_glide_energy>  (329) 
-29.4571

>  <r_i_glide_einternal>  (329) 
0.819921

>  <r_i_glide_intrahb_reward>  (329) 
-0

>  <i_i_glide_confnum>  (329) 
5

>  <i_i_glide_posenum>  (329) 
4

>  <r_i_glide_eff_state_penalty>  (329) 
0

>  <ligand_id>  (329) 
100

>  <original_smiles>  (329) 
O=C(CSc1ncnc2nsn12)NCc1ccco1

>  <smiles>  (329) 
[H]c1nc(SC([H])([H])C(=O)N([H])C([H])([H])c2oc([H])c([H])c2[H])n2snc2n1

$$$$
100:0:2
     RDKit          3D

 28 30  0  0  1  0  0  0  0  0999 V2000
    1.7988   -5.4679    0.9353 O   0  0  0  0  0  0  0  0  0  0  0  0
    2.7070   -6.1587    1.3994 C   0  0  0  0  0  0  0  0  0  0  0  0
    4.0897   -5.5444    1.6375 C   0  0  0  0  0  0  0  0  0  0  0  0
    4.9847   -5.1758    0.0963 S   0  0  0  0  0  0  0  0  0  0  0  0
    4.4949   -3.5720   -0.4465 C   0  0  0  0  0  0  0  0  0  0  0  0
    4.0891   -2.6782    0.4862 N   0  0  0  0  0  0  0  0  0  0  0  0
    3.7759   -1.4505   -0.0086 C   0  0  0  0  0  0  0  0  0  0  0  0
    3.8488   -1.0569   -1.2997 N   0  0  0  0  0  0  0  0  0  0  0  0
    4.2574   -2.0176   -2.1256 C   0  0  0  0  0  0  0  0  0  0  0  0
    4.4850   -2.1147   -3.4472 N   0  0  0  0  0  0  0  0  0  0  0  0
    5.0113   -3.8446   -3.3109 S   0  0  0  0  0  0  0  0  0  0  0  0
    4.6049   -3.2845   -1.7569 N   0  0  0  0  0  0  0  0  0  0  0  0
    2.5507   -7.4536    1.7115 N   0  0  0  0  0  0  0  0  0  0  0  0
    1.3193   -8.2155    1.5523 C   0  0  0  0  0  0  0  0  0  0  0  0
    0.4801   -8.2182    2.7865 C   0  0  0  0  0  0  0  0  0  0  0  0
    0.4089   -9.0618    3.8567 C   0  0  0  0  0  0  0  0  0  0  0  0
   -0.5812   -8.5236    4.7233 C   0  0  0  0  0  0  0  0  0  0  0  0
   -1.0462   -7.3972    4.1128 C   0  0  0  0  0  0  0  0  0  0  0  0
   -0.4117   -7.1910    2.9242 O   0  0  0  0  0  0  0  0  0  0  0  0
    3.9976   -4.6419    2.2411 H   0  0  0  0  0  0  0  0  0  0  0  0
    4.7024   -6.2335    2.2200 H   0  0  0  0  0  0  0  0  0  0  0  0
    3.4249   -0.6938    0.6724 H   0  0  0  0  0  0  0  0  0  0  0  0
    3.3442   -7.9581    2.0803 H   0  0  0  0  0  0  0  0  0  0  0  0
    0.7353   -7.8368    0.7145 H   0  0  0  0  0  0  0  0  0  0  0  0
    1.5923   -9.2393    1.2962 H   0  0  0  0  0  0  0  0  0  0  0  0
    0.9901   -9.9612    3.9997 H   0  0  0  0  0  0  0  0  0  0  0  0
   -0.9257   -8.9278    5.6645 H   0  0  0  0  0  0  0  0  0  0  0  0
   -1.7980   -6.6678    4.3791 H   0  0  0  0  0  0  0  0  0  0  0  0
  1  2  2  0
  2  3  1  0
  2 13  1  0
  3  4  1  0
  3 20  1  0
  3 21  1  0
  4  5  1  0
  5 12  1  0
  5  6  2  0
  6  7  1  0
  7  8  2  0
  7 22  1  0
  8  9  1  0
  9 12  1  0
  9 10  2  0
 10 11  1  0
 11 12  1  0
 13 14  1  0
 13 23  1  0
 14 15  1  0
 14 24  1  0
 14 25  1  0
 15 19  1  0
 15 16  2  0
 16 17  1  0
 16 26  1  0
 17 18  2  0
 17 27  1  0
 18 19  1  0
 18 28  1  0
M  END
>  <i_m_ct_stereo_status>  (330) 
1

>  <s_m_source_file>  (330) 
/var/tmp/pbs.5076255.sched01/tmppj12hgr0/126t4bdxmoi.sdf

>  <i_m_source_file_index>  (330) 
16

>  <i_lp_mmshare_version>  (330) 
48012

>  <i_f3d_flags>  (330) 
0

>  <s_epik_input>  (330) 
bjFbY0hdbmMobihjMTIpc24yKVNbQ0gyXUMoPU8pW05IXVtDSDJdYzNbY0hdW2NIXVtjSF1vMw==

>  <s_epik_cmdline>  (330) 
J2VwaWtfcHl0aG9uJywgJy1waHQnLCAnMi4wJywgJy1waCcsICc3LjAnLCAnLXRuJywgJzgnLCAnLW1hJywgJzIwMCcsICctaW1hZScsICc8aW5maWxlLm1hZT4nLCAnLW9tYWUnLCAnPG91dGZpbGUubWFlPic=

>  <r_lp_tautomer_probability>  (330) 
1

>  <r_epik_Ionization_Penalty>  (330) 
7.87844e-06

>  <r_epik_Ionization_Penalty_Charging>  (330) 
0

>  <r_epik_Ionization_Penalty_Neutral>  (330) 
7.87844e-06

>  <r_epik_State_Penalty>  (330) 
-0

>  <r_epik_Charging_Adjusted_Penalty>  (330) 
0

>  <i_epik_Tot_Q>  (330) 
0

>  <i_epik_Tot_abs_Q>  (330) 
0

>  <s_lp_Force_Field>  (330) 
OPLS3e

>  <r_lp_Energy>  (330) 
18.2381

>  <b_lp_Chiralities_Consistent>  (330) 
1

>  <s_lp_Variant>  (330) 
100:0-1

>  <s_i_glide_gridfile>  (330) 
pfpi4k_grid

>  <i_i_glide_lignum>  (330) 
16

>  <i_i_glide_rotatable_bonds>  (330) 
6

>  <r_i_docking_score>  (330) 
-2.86384

>  <r_i_glide_ligand_efficiency>  (330) 
-0.150728

>  <r_i_glide_ligand_efficiency_sa>  (330) 
-0.402204

>  <r_i_glide_ligand_efficiency_ln>  (330) 
-0.726045

>  <r_i_glide_gscore>  (330) 
-2.86384

>  <r_i_glide_lipo>  (330) 
-0.114166

>  <r_i_glide_hbond>  (330) 
-0.146488

>  <r_i_glide_metal>  (330) 
-0

>  <r_i_glide_rewards>  (330) 
-1.45056

>  <r_i_glide_evdw>  (330) 
-28.154

>  <r_i_glide_ecoul>  (330) 
-3.36981

>  <r_i_glide_erotb>  (330) 
0.839317

>  <r_i_glide_esite>  (330) 
-0.0787683

>  <r_i_glide_emodel>  (330) 
-36.864

>  <r_i_glide_energy>  (330) 
-31.5238

>  <r_i_glide_einternal>  (330) 
1.76721

>  <r_i_glide_intrahb_reward>  (330) 
-0

>  <i_i_glide_confnum>  (330) 
5

>  <i_i_glide_posenum>  (330) 
29

>  <r_i_glide_eff_state_penalty>  (330) 
0

>  <ligand_id>  (330) 
100

>  <original_smiles>  (330) 
O=C(CSc1ncnc2nsn12)NCc1ccco1

>  <smiles>  (330) 
[H]c1nc(SC([H])([H])C(=O)N([H])C([H])([H])c2oc([H])c([H])c2[H])n2snc2n1

$$$$
101:0:0
     RDKit          3D

 30 32  0  0  1  0  0  0  0  0999 V2000
    2.8073   -5.4554    0.1071 N   0  0  0  0  0  0  0  0  0  0  0  0
    3.3753   -4.5271    0.8807 C   0  0  0  0  0  0  0  0  0  0  0  0
    3.1845   -4.5218    2.0960 O   0  0  0  0  0  0  0  0  0  0  0  0
    4.2718   -3.4590    0.2120 C   0  0  2  0  0  0  0  0  0  0  0  0
    5.7271   -3.5722    0.7546 C   0  0  0  0  0  0  0  0  0  0  0  0
    6.6241   -2.4911    0.1017 C   0  0  1  0  0  0  0  0  0  0  0  0
    6.6356   -2.6963   -1.4283 C   0  0  0  0  0  0  0  0  0  0  0  0
    5.2043   -2.5434   -1.9728 C   0  0  2  0  0  0  0  0  0  0  0  0
    4.6482   -1.1471   -1.6338 C   0  0  0  0  0  0  0  0  0  0  0  0
    4.6379   -0.9637   -0.1011 C   0  0  2  0  0  0  0  0  0  0  0  0
    6.0678   -1.0985    0.4636 C   0  0  0  0  0  0  0  0  0  0  0  0
    3.7369   -2.0395    0.5468 C   0  0  0  0  0  0  0  0  0  0  0  0
    4.3057   -3.6182   -1.3366 C   0  0  0  0  0  0  0  0  0  0  0  0
    2.2674   -6.1930    0.5370 H   0  0  0  0  0  0  0  0  0  0  0  0
    2.9936   -5.4757   -0.8921 H   0  0  0  0  0  0  0  0  0  0  0  0
    5.7490   -3.4535    1.8424 H   0  0  0  0  0  0  0  0  0  0  0  0
    6.1380   -4.5633    0.5531 H   0  0  0  0  0  0  0  0  0  0  0  0
    7.6389   -2.5860    0.4869 H   0  0  0  0  0  0  0  0  0  0  0  0
    7.3015   -1.9927   -1.9178 H   0  0  0  0  0  0  0  0  0  0  0  0
    7.0184   -3.6882   -1.6646 H   0  0  0  0  0  0  0  0  0  0  0  0
    5.2099   -2.6822   -3.0527 H   0  0  0  0  0  0  0  0  0  0  0  0
    5.2525   -0.3744   -2.1077 H   0  0  0  0  0  0  0  0  0  0  0  0
    3.6362   -1.0381   -2.0302 H   0  0  0  0  0  0  0  0  0  0  0  0
    4.2441    0.0222    0.1385 H   0  0  0  0  0  0  0  0  0  0  0  0
    6.0572   -0.9644    1.5464 H   0  0  0  0  0  0  0  0  0  0  0  0
    6.7065   -0.3070    0.0823 H   0  0  0  0  0  0  0  0  0  0  0  0
    2.7109   -1.9243    0.1910 H   0  0  0  0  0  0  0  0  0  0  0  0
    3.7015   -1.8802    1.6275 H   0  0  0  0  0  0  0  0  0  0  0  0
    4.6829   -4.6027   -1.6186 H   0  0  0  0  0  0  0  0  0  0  0  0
    3.3001   -3.5320   -1.7526 H   0  0  0  0  0  0  0  0  0  0  0  0
  1  2  1  0
  1 14  1  0
  1 15  1  0
  2  3  2  0
  4  2  1  1
  4 12  1  0
  4 13  1  0
  4  5  1  0
  5  6  1  0
  5 16  1  0
  5 17  1  0
  6 11  1  0
  6  7  1  0
  6 18  1  1
  7  8  1  0
  7 19  1  0
  7 20  1  0
  8  9  1  0
  8 13  1  0
  8 21  1  6
  9 10  1  0
  9 22  1  0
  9 23  1  0
 10 11  1  0
 10 12  1  0
 10 24  1  6
 11 25  1  0
 11 26  1  0
 12 27  1  0
 12 28  1  0
 13 29  1  0
 13 30  1  0
M  END
>  <i_m_ct_stereo_status>  (331) 
1

>  <s_m_source_file>  (331) 
/var/tmp/pbs.5076255.sched01/tmppj12hgr0/126t4bdxmoi.sdf

>  <i_m_source_file_index>  (331) 
17

>  <i_lp_mmshare_version>  (331) 
48012

>  <i_f3d_flags>  (331) 
0

>  <s_epik_input>  (331) 
W05IMl1DKD1PKUMxMltDSDJdW0NASF0zW0NIMl1bQ0BASF0oW0NIMl0yKVtDSDJdW0NASF0oW0NIMl0zKVtDSDJdMQ==

>  <s_epik_cmdline>  (331) 
J2VwaWtfcHl0aG9uJywgJy1waHQnLCAnMi4wJywgJy1waCcsICc3LjAnLCAnLXRuJywgJzgnLCAnLW1hJywgJzIwMCcsICctaW1hZScsICc8aW5maWxlLm1hZT4nLCAnLW9tYWUnLCAnPG91dGZpbGUubWFlPic=

>  <r_lp_tautomer_probability>  (331) 
1

>  <r_epik_Ionization_Penalty>  (331) 
8.15034e-08

>  <r_epik_Ionization_Penalty_Charging>  (331) 
0

>  <r_epik_Ionization_Penalty_Neutral>  (331) 
8.15034e-08

>  <r_epik_State_Penalty>  (331) 
-0

>  <r_epik_Charging_Adjusted_Penalty>  (331) 
0

>  <i_epik_Tot_Q>  (331) 
0

>  <i_epik_Tot_abs_Q>  (331) 
0

>  <s_lp_Force_Field>  (331) 
OPLS3e

>  <r_lp_Energy>  (331) 
1.98625

>  <b_lp_Chiralities_Consistent>  (331) 
1

>  <s_lp_Variant>  (331) 
101:0-1

>  <s_i_glide_gridfile>  (331) 
pfpi4k_grid

>  <i_i_glide_lignum>  (331) 
17

>  <i_i_glide_rotatable_bonds>  (331) 
1

>  <r_i_docking_score>  (331) 
-4.20705

>  <r_i_glide_ligand_efficiency>  (331) 
-0.323619

>  <r_i_glide_ligand_efficiency_sa>  (331) 
-0.760937

>  <r_i_glide_ligand_efficiency_ln>  (331) 
-1.18011

>  <r_i_glide_gscore>  (331) 
-4.20705

>  <r_i_glide_lipo>  (331) 
-0.282903

>  <r_i_glide_hbond>  (331) 
-0.32

>  <r_i_glide_metal>  (331) 
-0

>  <r_i_glide_rewards>  (331) 
-2.18687

>  <r_i_glide_evdw>  (331) 
-18

>  <r_i_glide_ecoul>  (331) 
-3.10635

>  <r_i_glide_erotb>  (331) 
0

>  <r_i_glide_esite>  (331) 
-0.0513181

>  <r_i_glide_emodel>  (331) 
-27.3586

>  <r_i_glide_energy>  (331) 
-21.1064

>  <r_i_glide_einternal>  (331) 
0.0900279

>  <r_i_glide_intrahb_reward>  (331) 
-0

>  <i_i_glide_confnum>  (331) 
2

>  <i_i_glide_posenum>  (331) 
1

>  <r_i_glide_eff_state_penalty>  (331) 
0

>  <ligand_id>  (331) 
101

>  <original_smiles>  (331) 
NC(=O)C12CC3CC(CC(C3)C1)C2

>  <smiles>  (331) 
[H]N([H])C(=O)C12C([H])([H])C3([H])C([H])([H])C([H])(C([H])([H])C([H])(C3([H])[H])C1([H])[H])C2([H])[H]

$$$$
101:0:1
     RDKit          3D

 30 32  0  0  1  0  0  0  0  0999 V2000
    1.7817   -0.7385    1.6820 N   0  0  0  0  0  0  0  0  0  0  0  0
    2.9183   -1.2081    2.1868 C   0  0  0  0  0  0  0  0  0  0  0  0
    3.1645   -1.0968    3.3884 O   0  0  0  0  0  0  0  0  0  0  0  0
    3.9174   -1.8876    1.2203 C   0  0  2  0  0  0  0  0  0  0  0  0
    5.1315   -2.4906    1.9957 C   0  0  0  0  0  0  0  0  0  0  0  0
    6.1144   -3.1566    1.0084 C   0  0  1  0  0  0  0  0  0  0  0  0
    5.3881   -4.2913    0.2586 C   0  0  0  0  0  0  0  0  0  0  0  0
    4.2104   -3.6994   -0.5369 C   0  0  2  0  0  0  0  0  0  0  0  0
    4.7286   -2.6512   -1.5404 C   0  0  0  0  0  0  0  0  0  0  0  0
    5.4449   -1.5179   -0.7737 C   0  0  2  0  0  0  0  0  0  0  0  0
    6.6351   -2.0985    0.0180 C   0  0  0  0  0  0  0  0  0  0  0  0
    4.4616   -0.8476    0.2072 C   0  0  0  0  0  0  0  0  0  0  0  0
    3.2154   -3.0369    0.4388 C   0  0  0  0  0  0  0  0  0  0  0  0
    1.1305   -0.2818    2.2989 H   0  0  0  0  0  0  0  0  0  0  0  0
    1.5490   -0.8311    0.6833 H   0  0  0  0  0  0  0  0  0  0  0  0
    5.6597   -1.7159    2.5570 H   0  0  0  0  0  0  0  0  0  0  0  0
    4.7950   -3.2289    2.7260 H   0  0  0  0  0  0  0  0  0  0  0  0
    6.9529   -3.5735    1.5676 H   0  0  0  0  0  0  0  0  0  0  0  0
    6.0727   -4.8089   -0.4101 H   0  0  0  0  0  0  0  0  0  0  0  0
    5.0217   -5.0325    0.9672 H   0  0  0  0  0  0  0  0  0  0  0  0
    3.7072   -4.4957   -1.0807 H   0  0  0  0  0  0  0  0  0  0  0  0
    5.4093   -3.1224   -2.2531 H   0  0  0  0  0  0  0  0  0  0  0  0
    3.8997   -2.2469   -2.1258 H   0  0  0  0  0  0  0  0  0  0  0  0
    5.7976   -0.7751   -1.4848 H   0  0  0  0  0  0  0  0  0  0  0  0
    7.1435   -1.3004    0.5582 H   0  0  0  0  0  0  0  0  0  0  0  0
    7.3683   -2.5417   -0.6557 H   0  0  0  0  0  0  0  0  0  0  0  0
    3.6406   -0.4122   -0.3577 H   0  0  0  0  0  0  0  0  0  0  0  0
    4.9519   -0.0191    0.7194 H   0  0  0  0  0  0  0  0  0  0  0  0
    2.8144   -3.7774    1.1311 H   0  0  0  0  0  0  0  0  0  0  0  0
    2.3663   -2.6613   -0.1355 H   0  0  0  0  0  0  0  0  0  0  0  0
  1  2  1  0
  1 14  1  0
  1 15  1  0
  2  3  2  0
  4  2  1  1
  4 12  1  0
  4 13  1  0
  4  5  1  0
  5  6  1  0
  5 16  1  0
  5 17  1  0
  6 11  1  0
  6  7  1  0
  6 18  1  1
  7  8  1  0
  7 19  1  0
  7 20  1  0
  8  9  1  0
  8 13  1  0
  8 21  1  6
  9 10  1  0
  9 22  1  0
  9 23  1  0
 10 11  1  0
 10 12  1  0
 10 24  1  6
 11 25  1  0
 11 26  1  0
 12 27  1  0
 12 28  1  0
 13 29  1  0
 13 30  1  0
M  END
>  <i_m_ct_stereo_status>  (332) 
1

>  <s_m_source_file>  (332) 
/var/tmp/pbs.5076255.sched01/tmppj12hgr0/126t4bdxmoi.sdf

>  <i_m_source_file_index>  (332) 
17

>  <i_lp_mmshare_version>  (332) 
48012

>  <i_f3d_flags>  (332) 
0

>  <s_epik_input>  (332) 
W05IMl1DKD1PKUMxMltDSDJdW0NASF0zW0NIMl1bQ0BASF0oW0NIMl0yKVtDSDJdW0NASF0oW0NIMl0zKVtDSDJdMQ==

>  <s_epik_cmdline>  (332) 
J2VwaWtfcHl0aG9uJywgJy1waHQnLCAnMi4wJywgJy1waCcsICc3LjAnLCAnLXRuJywgJzgnLCAnLW1hJywgJzIwMCcsICctaW1hZScsICc8aW5maWxlLm1hZT4nLCAnLW9tYWUnLCAnPG91dGZpbGUubWFlPic=

>  <r_lp_tautomer_probability>  (332) 
1

>  <r_epik_Ionization_Penalty>  (332) 
8.15034e-08

>  <r_epik_Ionization_Penalty_Charging>  (332) 
0

>  <r_epik_Ionization_Penalty_Neutral>  (332) 
8.15034e-08

>  <r_epik_State_Penalty>  (332) 
-0

>  <r_epik_Charging_Adjusted_Penalty>  (332) 
0

>  <i_epik_Tot_Q>  (332) 
0

>  <i_epik_Tot_abs_Q>  (332) 
0

>  <s_lp_Force_Field>  (332) 
OPLS3e

>  <r_lp_Energy>  (332) 
1.98625

>  <b_lp_Chiralities_Consistent>  (332) 
1

>  <s_lp_Variant>  (332) 
101:0-1

>  <s_i_glide_gridfile>  (332) 
pfpi4k_grid

>  <i_i_glide_lignum>  (332) 
17

>  <i_i_glide_rotatable_bonds>  (332) 
1

>  <r_i_docking_score>  (332) 
-4.13134

>  <r_i_glide_ligand_efficiency>  (332) 
-0.317796

>  <r_i_glide_ligand_efficiency_sa>  (332) 
-0.747244

>  <r_i_glide_ligand_efficiency_ln>  (332) 
-1.15888

>  <r_i_glide_gscore>  (332) 
-4.13134

>  <r_i_glide_lipo>  (332) 
-0.241982

>  <r_i_glide_hbond>  (332) 
-0.16

>  <r_i_glide_metal>  (332) 
-0

>  <r_i_glide_rewards>  (332) 
-2.18687

>  <r_i_glide_evdw>  (332) 
-15.0105

>  <r_i_glide_ecoul>  (332) 
-4.54003

>  <r_i_glide_erotb>  (332) 
0

>  <r_i_glide_esite>  (332) 
-0.110956

>  <r_i_glide_emodel>  (332) 
-25.7287

>  <r_i_glide_energy>  (332) 
-19.5506

>  <r_i_glide_einternal>  (332) 
0.124664

>  <r_i_glide_intrahb_reward>  (332) 
-0

>  <i_i_glide_confnum>  (332) 
2

>  <i_i_glide_posenum>  (332) 
8

>  <r_i_glide_eff_state_penalty>  (332) 
0

>  <ligand_id>  (332) 
101

>  <original_smiles>  (332) 
NC(=O)C12CC3CC(CC(C3)C1)C2

>  <smiles>  (332) 
[H]N([H])C(=O)C12C([H])([H])C3([H])C([H])([H])C([H])(C([H])([H])C([H])(C3([H])[H])C1([H])[H])C2([H])[H]

$$$$
101:0:2
     RDKit          3D

 30 32  0  0  1  0  0  0  0  0999 V2000
    2.5975   -0.1811    1.2790 N   0  0  0  0  0  0  0  0  0  0  0  0
    3.8409   -0.6444    1.3968 C   0  0  0  0  0  0  0  0  0  0  0  0
    4.5868   -0.2362    2.2841 O   0  0  0  0  0  0  0  0  0  0  0  0
    4.3056   -1.7153    0.3879 C   0  0  2  0  0  0  0  0  0  0  0  0
    5.6852   -2.3101    0.8087 C   0  0  0  0  0  0  0  0  0  0  0  0
    6.1379   -3.3776   -0.2105 C   0  0  1  0  0  0  0  0  0  0  0  0
    5.0929   -4.5090   -0.2514 C   0  0  0  0  0  0  0  0  0  0  0  0
    3.7403   -3.9262   -0.6948 C   0  0  2  0  0  0  0  0  0  0  0  0
    3.8782   -3.2844   -2.0927 C   0  0  0  0  0  0  0  0  0  0  0  0
    4.9192   -2.1525   -2.0366 C   0  0  2  0  0  0  0  0  0  0  0  0
    6.2820   -2.7245   -1.5981 C   0  0  0  0  0  0  0  0  0  0  0  0
    4.4546   -1.0851   -1.0241 C   0  0  0  0  0  0  0  0  0  0  0  0
    3.2726   -2.8713    0.3209 C   0  0  0  0  0  0  0  0  0  0  0  0
    2.2587    0.5129    1.9248 H   0  0  0  0  0  0  0  0  0  0  0  0
    1.9804   -0.5373    0.5487 H   0  0  0  0  0  0  0  0  0  0  0  0
    6.4473   -1.5297    0.8756 H   0  0  0  0  0  0  0  0  0  0  0  0
    5.6201   -2.7606    1.8019 H   0  0  0  0  0  0  0  0  0  0  0  0
    7.0984   -3.7861    0.1023 H   0  0  0  0  0  0  0  0  0  0  0  0
    5.4008   -5.2957   -0.9386 H   0  0  0  0  0  0  0  0  0  0  0  0
    4.9962   -4.9694    0.7317 H   0  0  0  0  0  0  0  0  0  0  0  0
    3.0018   -4.7252   -0.7235 H   0  0  0  0  0  0  0  0  0  0  0  0
    4.1914   -4.0362   -2.8191 H   0  0  0  0  0  0  0  0  0  0  0  0
    2.9121   -2.9030   -2.4309 H   0  0  0  0  0  0  0  0  0  0  0  0
    5.0115   -1.6969   -3.0217 H   0  0  0  0  0  0  0  0  0  0  0  0
    7.0226   -1.9305   -1.5590 H   0  0  0  0  0  0  0  0  0  0  0  0
    6.6419   -3.4529   -2.3244 H   0  0  0  0  0  0  0  0  0  0  0  0
    3.5067   -0.6622   -1.3646 H   0  0  0  0  0  0  0  0  0  0  0  0
    5.1682   -0.2616   -1.0011 H   0  0  0  0  0  0  0  0  0  0  0  0
    3.1381   -3.3257    1.3020 H   0  0  0  0  0  0  0  0  0  0  0  0
    2.2886   -2.5181    0.0111 H   0  0  0  0  0  0  0  0  0  0  0  0
  1  2  1  0
  1 14  1  0
  1 15  1  0
  2  3  2  0
  4  2  1  1
  4 12  1  0
  4 13  1  0
  4  5  1  0
  5  6  1  0
  5 16  1  0
  5 17  1  0
  6 11  1  0
  6  7  1  0
  6 18  1  1
  7  8  1  0
  7 19  1  0
  7 20  1  0
  8  9  1  0
  8 13  1  0
  8 21  1  6
  9 10  1  0
  9 22  1  0
  9 23  1  0
 10 11  1  0
 10 12  1  0
 10 24  1  6
 11 25  1  0
 11 26  1  0
 12 27  1  0
 12 28  1  0
 13 29  1  0
 13 30  1  0
M  END
>  <i_m_ct_stereo_status>  (333) 
1

>  <s_m_source_file>  (333) 
/var/tmp/pbs.5076255.sched01/tmppj12hgr0/126t4bdxmoi.sdf

>  <i_m_source_file_index>  (333) 
17

>  <i_lp_mmshare_version>  (333) 
48012

>  <i_f3d_flags>  (333) 
0

>  <s_epik_input>  (333) 
W05IMl1DKD1PKUMxMltDSDJdW0NASF0zW0NIMl1bQ0BASF0oW0NIMl0yKVtDSDJdW0NASF0oW0NIMl0zKVtDSDJdMQ==

>  <s_epik_cmdline>  (333) 
J2VwaWtfcHl0aG9uJywgJy1waHQnLCAnMi4wJywgJy1waCcsICc3LjAnLCAnLXRuJywgJzgnLCAnLW1hJywgJzIwMCcsICctaW1hZScsICc8aW5maWxlLm1hZT4nLCAnLW9tYWUnLCAnPG91dGZpbGUubWFlPic=

>  <r_lp_tautomer_probability>  (333) 
1

>  <r_epik_Ionization_Penalty>  (333) 
8.15034e-08

>  <r_epik_Ionization_Penalty_Charging>  (333) 
0

>  <r_epik_Ionization_Penalty_Neutral>  (333) 
8.15034e-08

>  <r_epik_State_Penalty>  (333) 
-0

>  <r_epik_Charging_Adjusted_Penalty>  (333) 
0

>  <i_epik_Tot_Q>  (333) 
0

>  <i_epik_Tot_abs_Q>  (333) 
0

>  <s_lp_Force_Field>  (333) 
OPLS3e

>  <r_lp_Energy>  (333) 
1.98625

>  <b_lp_Chiralities_Consistent>  (333) 
1

>  <s_lp_Variant>  (333) 
101:0-1

>  <s_i_glide_gridfile>  (333) 
pfpi4k_grid

>  <i_i_glide_lignum>  (333) 
17

>  <i_i_glide_rotatable_bonds>  (333) 
1

>  <r_i_docking_score>  (333) 
-4.09177

>  <r_i_glide_ligand_efficiency>  (333) 
-0.314751

>  <r_i_glide_ligand_efficiency_sa>  (333) 
-0.740085

>  <r_i_glide_ligand_efficiency_ln>  (333) 
-1.14778

>  <r_i_glide_gscore>  (333) 
-4.09177

>  <r_i_glide_lipo>  (333) 
-0.199562

>  <r_i_glide_hbond>  (333) 
-0.16

>  <r_i_glide_metal>  (333) 
-0

>  <r_i_glide_rewards>  (333) 
-2.21119

>  <r_i_glide_evdw>  (333) 
-18.3631

>  <r_i_glide_ecoul>  (333) 
-3.63478

>  <r_i_glide_erotb>  (333) 
0

>  <r_i_glide_esite>  (333) 
-0.0576401

>  <r_i_glide_emodel>  (333) 
-28.1127

>  <r_i_glide_energy>  (333) 
-21.9979

>  <r_i_glide_einternal>  (333) 
0.124184

>  <r_i_glide_intrahb_reward>  (333) 
-0

>  <i_i_glide_confnum>  (333) 
2

>  <i_i_glide_posenum>  (333) 
23

>  <r_i_glide_eff_state_penalty>  (333) 
0

>  <ligand_id>  (333) 
101

>  <original_smiles>  (333) 
NC(=O)C12CC3CC(CC(C3)C1)C2

>  <smiles>  (333) 
[H]N([H])C(=O)C12C([H])([H])C3([H])C([H])([H])C([H])(C([H])([H])C([H])(C3([H])[H])C1([H])[H])C2([H])[H]

$$$$
106:0:0
     RDKit          3D

 41 45  0  0  1  0  0  0  0  0999 V2000
    9.0173   -3.6660   -0.0399 O   0  0  0  0  0  0  0  0  0  0  0  0
    7.7890   -3.6958    0.0097 C   0  0  0  0  0  0  0  0  0  0  0  0
    6.9324   -2.9513   -0.7928 O   0  0  0  0  0  0  0  0  0  0  0  0
    5.5592   -3.0675   -0.3772 C   0  0  2  0  0  0  0  0  0  0  0  0
    5.6379   -4.1734    0.6802 C   0  0  0  0  0  0  0  0  0  0  0  0
    4.5887   -4.8390    1.3619 C   0  0  0  0  0  0  0  0  0  0  0  0
    4.9036   -5.7700    2.3677 C   0  0  0  0  0  0  0  0  0  0  0  0
    4.1569   -6.5623    3.2850 C   0  0  0  0  0  0  0  0  0  0  0  0
    5.0867   -7.2917    3.9837 C   0  0  0  0  0  0  0  0  0  0  0  0
    6.3715   -7.0081    3.6046 O   0  0  0  0  0  0  0  0  0  0  0  0
    6.2760   -6.0666    2.6083 C   0  0  0  0  0  0  0  0  0  0  0  0
    7.3294   -5.4482    1.8975 C   0  0  0  0  0  0  0  0  0  0  0  0
    6.9621   -4.5002    0.9302 C   0  0  0  0  0  0  0  0  0  0  0  0
    4.7152   -3.4804   -1.6021 C   0  0  1  0  0  0  0  0  0  0  0  0
    3.4743   -4.0228   -1.2025 O   0  0  0  0  0  0  0  0  0  0  0  0
    4.4208   -2.2860   -2.4797 C   0  0  0  0  0  0  0  0  0  0  0  0
    4.6045   -1.0240   -2.0673 C   0  0  0  0  0  0  0  0  0  0  0  0
    5.0334   -0.6827   -0.8097 O   0  0  0  0  0  0  0  0  0  0  0  0
    5.0949   -1.6802    0.2082 C   0  0  2  0  0  0  0  0  0  0  0  0
    6.0901   -1.1790    1.2651 C   0  0  0  0  0  0  0  0  0  0  0  0
    5.7457   -0.7488    2.4763 C   0  0  0  0  0  0  0  0  0  0  0  0
    4.3195   -0.6606    2.9635 C   0  0  1  0  0  0  0  0  0  0  0  0
    4.1401    0.5633    3.6334 O   0  0  0  0  0  0  0  0  0  0  0  0
    3.2837   -0.6882    1.8081 C   0  0  0  0  0  0  0  0  0  0  0  0
    3.6629   -1.7869    0.8336 C   0  0  0  0  0  0  0  0  0  0  0  0
    3.5440   -4.6730    1.1531 H   0  0  0  0  0  0  0  0  0  0  0  0
    3.0789   -6.5668    3.3919 H   0  0  0  0  0  0  0  0  0  0  0  0
    4.9838   -8.0427    4.7554 H   0  0  0  0  0  0  0  0  0  0  0  0
    8.3788   -5.6805    2.0676 H   0  0  0  0  0  0  0  0  0  0  0  0
    5.2671   -4.2312   -2.1754 H   0  0  0  0  0  0  0  0  0  0  0  0
    3.3043   -4.7960   -1.7414 H   0  0  0  0  0  0  0  0  0  0  0  0
    4.0220   -2.4830   -3.4625 H   0  0  0  0  0  0  0  0  0  0  0  0
    4.3880   -0.1481   -2.6782 H   0  0  0  0  0  0  0  0  0  0  0  0
    7.1507   -1.1659    1.0169 H   0  0  0  0  0  0  0  0  0  0  0  0
    6.5198   -0.4881    3.1846 H   0  0  0  0  0  0  0  0  0  0  0  0
    4.1413   -1.4649    3.6923 H   0  0  0  0  0  0  0  0  0  0  0  0
    4.2057    1.2490    2.9765 H   0  0  0  0  0  0  0  0  0  0  0  0
    2.2873   -0.9136    2.2171 H   0  0  0  0  0  0  0  0  0  0  0  0
    3.2273    0.2727    1.2782 H   0  0  0  0  0  0  0  0  0  0  0  0
    2.8725   -1.8647    0.0818 H   0  0  0  0  0  0  0  0  0  0  0  0
    3.5510   -2.6493    1.4863 H   0  0  0  0  0  0  0  0  0  0  0  0
  1  2  2  0
  2 13  1  0
  2  3  1  0
  4  3  1  6
  4 19  1  0
  4  5  1  0
  4 14  1  0
  5 13  2  0
  5  6  1  0
  6  7  2  0
  6 26  1  0
  7 11  1  0
  7  8  1  0
  8  9  2  0
  8 27  1  0
  9 10  1  0
  9 28  1  0
 10 11  1  0
 11 12  2  0
 12 13  1  0
 12 29  1  0
 14 15  1  0
 14 16  1  0
 14 30  1  6
 15 31  1  0
 16 17  2  0
 16 32  1  0
 17 18  1  0
 17 33  1  0
 19 18  1  6
 19 25  1  0
 19 20  1  0
 20 21  2  0
 20 34  1  0
 21 22  1  0
 21 35  1  0
 22 23  1  0
 22 24  1  0
 22 36  1  1
 23 37  1  0
 24 25  1  0
 24 38  1  0
 24 39  1  0
 25 40  1  0
 25 41  1  0
M  END
>  <i_m_ct_stereo_status>  (334) 
1

>  <s_m_source_file>  (334) 
/var/tmp/pbs.5076255.sched01/tmppj12hgr0/126t4bdxmoi.sdf

>  <i_m_source_file_index>  (334) 
25

>  <i_lp_mmshare_version>  (334) 
48012

>  <i_f3d_flags>  (334) 
0

>  <s_epik_input>  (334) 
bzFbY0hdW2NIXWMoW2NIXTIpYzFbY0hdYyhDKD1PKU8zKWMyW0NAQF0zNFtDQF01KE9bQ0hdPVtDSF1bQ0BASF00W09IXSlbQ0hdPVtDSF1bQ0BASF0oW09IXSlbQ0gyXVtDSDJdNQ==

>  <s_epik_cmdline>  (334) 
J2VwaWtfcHl0aG9uJywgJy1waHQnLCAnMi4wJywgJy1waCcsICc3LjAnLCAnLXRuJywgJzgnLCAnLW1hJywgJzIwMCcsICctaW1hZScsICc8aW5maWxlLm1hZT4nLCAnLW9tYWUnLCAnPG91dGZpbGUubWFlPic=

>  <r_epik_Ionization_Penalty>  (334) 
0.00314224

>  <r_epik_Ionization_Penalty_Charging>  (334) 
0

>  <r_epik_Ionization_Penalty_Neutral>  (334) 
0.00314224

>  <r_epik_State_Penalty>  (334) 
0.00221309

>  <r_epik_Charging_Adjusted_Penalty>  (334) 
0.00221309

>  <i_epik_Tot_Q>  (334) 
0

>  <i_epik_Tot_abs_Q>  (334) 
0

>  <s_epik_Chemistry_Notes>  (334) 
This compound has an ester and may undergo hydrolysis at high or low pH.

>  <s_lp_Force_Field>  (334) 
OPLS3e

>  <r_lp_Energy>  (334) 
20.4452

>  <b_lp_Chiralities_Consistent>  (334) 
1

>  <s_lp_Variant>  (334) 
106:0-1

>  <s_i_glide_gridfile>  (334) 
pfpi4k_grid

>  <i_i_glide_lignum>  (334) 
25

>  <i_i_glide_rotatable_bonds>  (334) 
2

>  <r_i_docking_score>  (334) 
-5.06455

>  <r_i_glide_ligand_efficiency>  (334) 
-0.202582

>  <r_i_glide_ligand_efficiency_sa>  (334) 
-0.592354

>  <r_i_glide_ligand_efficiency_ln>  (334) 
-1.20045

>  <r_i_glide_gscore>  (334) 
-5.06455

>  <r_i_glide_lipo>  (334) 
-0.749566

>  <r_i_glide_hbond>  (334) 
-0.628635

>  <r_i_glide_metal>  (334) 
-0

>  <r_i_glide_rewards>  (334) 
-1.33183

>  <r_i_glide_evdw>  (334) 
-24.4228

>  <r_i_glide_ecoul>  (334) 
-7.55586

>  <r_i_glide_erotb>  (334) 
0

>  <r_i_glide_esite>  (334) 
0

>  <r_i_glide_emodel>  (334) 
-41.0833

>  <r_i_glide_energy>  (334) 
-31.9787

>  <r_i_glide_einternal>  (334) 
0.714921

>  <r_i_glide_intrahb_reward>  (334) 
-0

>  <i_i_glide_confnum>  (334) 
4

>  <i_i_glide_posenum>  (334) 
1

>  <r_i_glide_eff_state_penalty>  (334) 
0

>  <ligand_id>  (334) 
106

>  <original_smiles>  (334) 
O=C1OC2(c3cc4ccoc4cc31)C(O)C=COC21C=CC(O)CC1

>  <smiles>  (334) 
[H]OC1([H])C([H])=C([H])C2(OC([H])=C([H])C([H])(O[H])C23OC(=O)c2c3c([H])c3c([H])c([H])oc3c2[H])C([H])([H])C1([H])[H]

$$$$
106:0:1
     RDKit          3D

 41 45  0  0  1  0  0  0  0  0999 V2000
    1.6681   -1.8522    1.8598 O   0  0  0  0  0  0  0  0  0  0  0  0
    2.7178   -2.2637    1.3736 C   0  0  0  0  0  0  0  0  0  0  0  0
    3.6650   -1.5171    0.7163 O   0  0  0  0  0  0  0  0  0  0  0  0
    4.7351   -2.3283    0.2108 C   0  0  2  0  0  0  0  0  0  0  0  0
    4.4036   -3.7113    0.7421 C   0  0  0  0  0  0  0  0  0  0  0  0
    5.1564   -4.8972    0.6473 C   0  0  0  0  0  0  0  0  0  0  0  0
    4.6484   -6.0856    1.2234 C   0  0  0  0  0  0  0  0  0  0  0  0
    5.0923   -7.4361    1.3593 C   0  0  0  0  0  0  0  0  0  0  0  0
    4.0924   -8.0837    2.0439 C   0  0  0  0  0  0  0  0  0  0  0  0
    3.0488   -7.2629    2.3658 O   0  0  0  0  0  0  0  0  0  0  0  0
    3.3748   -6.0123    1.8684 C   0  0  0  0  0  0  0  0  0  0  0  0
    2.6167   -4.8226    1.9709 C   0  0  0  0  0  0  0  0  0  0  0  0
    3.1878   -3.6650    1.3952 C   0  0  0  0  0  0  0  0  0  0  0  0
    6.0858   -1.8121    0.7318 C   0  0  1  0  0  0  0  0  0  0  0  0
    6.2250   -2.1427    2.0821 O   0  0  0  0  0  0  0  0  0  0  0  0
    7.2098   -2.3986   -0.1002 C   0  0  0  0  0  0  0  0  0  0  0  0
    6.9971   -3.0161   -1.2794 C   0  0  0  0  0  0  0  0  0  0  0  0
    5.7481   -3.1300   -1.8629 O   0  0  0  0  0  0  0  0  0  0  0  0
    4.7018   -2.2848   -1.3385 C   0  0  2  0  0  0  0  0  0  0  0  0
    4.9716   -0.8805   -1.8551 C   0  0  0  0  0  0  0  0  0  0  0  0
    4.2638   -0.2639   -2.8101 C   0  0  0  0  0  0  0  0  0  0  0  0
    3.1221   -0.8990   -3.5381 C   0  0  1  0  0  0  0  0  0  0  0  0
    3.2581   -0.6289   -4.9039 O   0  0  0  0  0  0  0  0  0  0  0  0
    3.0524   -2.4274   -3.3391 C   0  0  0  0  0  0  0  0  0  0  0  0
    3.3256   -2.8077   -1.8941 C   0  0  0  0  0  0  0  0  0  0  0  0
    6.1209   -4.9350    0.1574 H   0  0  0  0  0  0  0  0  0  0  0  0
    6.0178   -7.8425    0.9952 H   0  0  0  0  0  0  0  0  0  0  0  0
    3.9809   -9.0948    2.3692 H   0  0  0  0  0  0  0  0  0  0  0  0
    1.6655   -4.7761    2.4760 H   0  0  0  0  0  0  0  0  0  0  0  0
    6.1402   -0.7267    0.6699 H   0  0  0  0  0  0  0  0  0  0  0  0
    6.0291   -3.0650    2.1799 H   0  0  0  0  0  0  0  0  0  0  0  0
    8.2080   -2.3366    0.3016 H   0  0  0  0  0  0  0  0  0  0  0  0
    7.7699   -3.4725   -1.8845 H   0  0  0  0  0  0  0  0  0  0  0  0
    5.7963   -0.3348   -1.4455 H   0  0  0  0  0  0  0  0  0  0  0  0
    4.5203    0.7545   -3.0829 H   0  0  0  0  0  0  0  0  0  0  0  0
    2.2280   -0.3966   -3.1696 H   0  0  0  0  0  0  0  0  0  0  0  0
    2.5233   -1.0125   -5.3798 H   0  0  0  0  0  0  0  0  0  0  0  0
    2.0541   -2.7838   -3.6395 H   0  0  0  0  0  0  0  0  0  0  0  0
    3.7696   -2.9292   -3.9813 H   0  0  0  0  0  0  0  0  0  0  0  0
    3.2102   -3.8710   -1.7625 H   0  0  0  0  0  0  0  0  0  0  0  0
    2.5104   -2.3497   -1.3343 H   0  0  0  0  0  0  0  0  0  0  0  0
  1  2  2  0
  2 13  1  0
  2  3  1  0
  4  3  1  1
  4 19  1  0
  4  5  1  0
  4 14  1  0
  5 13  2  0
  5  6  1  0
  6  7  2  0
  6 26  1  0
  7 11  1  0
  7  8  1  0
  8  9  2  0
  8 27  1  0
  9 10  1  0
  9 28  1  0
 10 11  1  0
 11 12  2  0
 12 13  1  0
 12 29  1  0
 14 15  1  0
 14 16  1  0
 14 30  1  1
 15 31  1  0
 16 17  2  0
 16 32  1  0
 17 18  1  0
 17 33  1  0
 19 18  1  6
 19 25  1  0
 19 20  1  0
 20 21  2  0
 20 34  1  0
 21 22  1  0
 21 35  1  0
 22 23  1  0
 22 24  1  0
 22 36  1  1
 23 37  1  0
 24 25  1  0
 24 38  1  0
 24 39  1  0
 25 40  1  0
 25 41  1  0
M  END
>  <i_m_ct_stereo_status>  (335) 
1

>  <s_m_source_file>  (335) 
/var/tmp/pbs.5076255.sched01/tmppj12hgr0/126t4bdxmoi.sdf

>  <i_m_source_file_index>  (335) 
25

>  <i_lp_mmshare_version>  (335) 
48012

>  <i_f3d_flags>  (335) 
0

>  <s_epik_input>  (335) 
bzFbY0hdW2NIXWMoW2NIXTIpYzFbY0hdYyhDKD1PKU8zKWMyW0NAQF0zNFtDQF01KE9bQ0hdPVtDSF1bQ0BASF00W09IXSlbQ0hdPVtDSF1bQ0BASF0oW09IXSlbQ0gyXVtDSDJdNQ==

>  <s_epik_cmdline>  (335) 
J2VwaWtfcHl0aG9uJywgJy1waHQnLCAnMi4wJywgJy1waCcsICc3LjAnLCAnLXRuJywgJzgnLCAnLW1hJywgJzIwMCcsICctaW1hZScsICc8aW5maWxlLm1hZT4nLCAnLW9tYWUnLCAnPG91dGZpbGUubWFlPic=

>  <r_epik_Ionization_Penalty>  (335) 
0.00314224

>  <r_epik_Ionization_Penalty_Charging>  (335) 
0

>  <r_epik_Ionization_Penalty_Neutral>  (335) 
0.00314224

>  <r_epik_State_Penalty>  (335) 
0.00221309

>  <r_epik_Charging_Adjusted_Penalty>  (335) 
0.00221309

>  <i_epik_Tot_Q>  (335) 
0

>  <i_epik_Tot_abs_Q>  (335) 
0

>  <s_epik_Chemistry_Notes>  (335) 
This compound has an ester and may undergo hydrolysis at high or low pH.

>  <s_lp_Force_Field>  (335) 
OPLS3e

>  <r_lp_Energy>  (335) 
20.4452

>  <b_lp_Chiralities_Consistent>  (335) 
1

>  <s_lp_Variant>  (335) 
106:0-1

>  <s_i_glide_gridfile>  (335) 
pfpi4k_grid

>  <i_i_glide_lignum>  (335) 
25

>  <i_i_glide_rotatable_bonds>  (335) 
2

>  <r_i_docking_score>  (335) 
-4.29578

>  <r_i_glide_ligand_efficiency>  (335) 
-0.171831

>  <r_i_glide_ligand_efficiency_sa>  (335) 
-0.502438

>  <r_i_glide_ligand_efficiency_ln>  (335) 
-1.01823

>  <r_i_glide_gscore>  (335) 
-4.29578

>  <r_i_glide_lipo>  (335) 
-0.927062

>  <r_i_glide_hbond>  (335) 
-0.382034

>  <r_i_glide_metal>  (335) 
-0

>  <r_i_glide_rewards>  (335) 
-1.08868

>  <r_i_glide_evdw>  (335) 
-27.4174

>  <r_i_glide_ecoul>  (335) 
-3.29659

>  <r_i_glide_erotb>  (335) 
0

>  <r_i_glide_esite>  (335) 
-0.0326493

>  <r_i_glide_emodel>  (335) 
-38.5576

>  <r_i_glide_energy>  (335) 
-30.7139

>  <r_i_glide_einternal>  (335) 
0.474862

>  <r_i_glide_intrahb_reward>  (335) 
-0

>  <i_i_glide_confnum>  (335) 
3

>  <i_i_glide_posenum>  (335) 
3

>  <r_i_glide_eff_state_penalty>  (335) 
0

>  <ligand_id>  (335) 
106

>  <original_smiles>  (335) 
O=C1OC2(c3cc4ccoc4cc31)C(O)C=COC21C=CC(O)CC1

>  <smiles>  (335) 
[H]OC1([H])C([H])=C([H])C2(OC([H])=C([H])C([H])(O[H])C23OC(=O)c2c3c([H])c3c([H])c([H])oc3c2[H])C([H])([H])C1([H])[H]

$$$$
106:0:2
     RDKit          3D

 41 45  0  0  1  0  0  0  0  0999 V2000
    8.1745   -1.8609    0.0603 O   0  0  0  0  0  0  0  0  0  0  0  0
    6.9753   -1.8251    0.3213 C   0  0  0  0  0  0  0  0  0  0  0  0
    6.4209   -1.4628    1.5268 O   0  0  0  0  0  0  0  0  0  0  0  0
    4.9951   -1.6421    1.5670 C   0  0  2  0  0  0  0  0  0  0  0  0
    4.6879   -1.9968    0.1170 C   0  0  0  0  0  0  0  0  0  0  0  0
    3.4350   -2.1788   -0.5067 C   0  0  0  0  0  0  0  0  0  0  0  0
    3.3829   -2.5862   -1.8485 C   0  0  0  0  0  0  0  0  0  0  0  0
    2.3500   -2.9138   -2.7632 C   0  0  0  0  0  0  0  0  0  0  0  0
    2.9934   -3.1845   -3.9351 C   0  0  0  0  0  0  0  0  0  0  0  0
    4.3515   -3.0948   -3.8440 O   0  0  0  0  0  0  0  0  0  0  0  0
    4.6149   -2.7335   -2.5482 C   0  0  0  0  0  0  0  0  0  0  0  0
    5.8756   -2.5207   -1.9437 C   0  0  0  0  0  0  0  0  0  0  0  0
    5.8703   -2.1430   -0.5845 C   0  0  0  0  0  0  0  0  0  0  0  0
    4.3486   -0.3083    2.0037 C   0  0  1  0  0  0  0  0  0  0  0  0
    2.9962   -0.1916    1.6132 O   0  0  0  0  0  0  0  0  0  0  0  0
    4.4203   -0.1599    3.5037 C   0  0  0  0  0  0  0  0  0  0  0  0
    4.7563   -1.1701    4.3316 C   0  0  0  0  0  0  0  0  0  0  0  0
    4.9950   -2.4592    3.9226 O   0  0  0  0  0  0  0  0  0  0  0  0
    4.6838   -2.8100    2.5629 C   0  0  2  0  0  0  0  0  0  0  0  0
    5.5281   -4.0360    2.2229 C   0  0  0  0  0  0  0  0  0  0  0  0
    5.0670   -5.2781    2.0836 C   0  0  0  0  0  0  0  0  0  0  0  0
    3.6155   -5.6427    2.2928 C   0  0  1  0  0  0  0  0  0  0  0  0
    3.5306   -6.8253    3.0476 O   0  0  0  0  0  0  0  0  0  0  0  0
    2.8285   -4.5480    3.0497 C   0  0  0  0  0  0  0  0  0  0  0  0
    3.1723   -3.1742    2.5133 C   0  0  0  0  0  0  0  0  0  0  0  0
    2.4873   -2.0456   -0.0062 H   0  0  0  0  0  0  0  0  0  0  0  0
    1.2915   -2.9223   -2.5682 H   0  0  0  0  0  0  0  0  0  0  0  0
    2.6023   -3.3925   -4.9114 H   0  0  0  0  0  0  0  0  0  0  0  0
    6.7972   -2.6407   -2.4997 H   0  0  0  0  0  0  0  0  0  0  0  0
    4.8657    0.5126    1.5099 H   0  0  0  0  0  0  0  0  0  0  0  0
    2.9243   -0.4925    0.7111 H   0  0  0  0  0  0  0  0  0  0  0  0
    4.1990    0.8165    3.9025 H   0  0  0  0  0  0  0  0  0  0  0  0
    4.8251   -1.0662    5.4050 H   0  0  0  0  0  0  0  0  0  0  0  0
    6.5868   -3.8779    2.0849 H   0  0  0  0  0  0  0  0  0  0  0  0
    5.7497   -6.0637    1.7854 H   0  0  0  0  0  0  0  0  0  0  0  0
    3.1816   -5.8453    1.3083 H   0  0  0  0  0  0  0  0  0  0  0  0
    3.9857   -7.5241    2.5997 H   0  0  0  0  0  0  0  0  0  0  0  0
    1.7537   -4.7178    2.9201 H   0  0  0  0  0  0  0  0  0  0  0  0
    3.0455   -4.5718    4.1175 H   0  0  0  0  0  0  0  0  0  0  0  0
    2.5520   -2.4100    2.9761 H   0  0  0  0  0  0  0  0  0  0  0  0
    2.8218   -3.2745    1.5067 H   0  0  0  0  0  0  0  0  0  0  0  0
  1  2  2  0
  2 13  1  0
  2  3  1  0
  4  3  1  6
  4 19  1  0
  4  5  1  0
  4 14  1  0
  5 13  2  0
  5  6  1  0
  6  7  2  0
  6 26  1  0
  7 11  1  0
  7  8  1  0
  8  9  2  0
  8 27  1  0
  9 10  1  0
  9 28  1  0
 10 11  1  0
 11 12  2  0
 12 13  1  0
 12 29  1  0
 14 15  1  0
 14 16  1  0
 14 30  1  6
 15 31  1  0
 16 17  2  0
 16 32  1  0
 17 18  1  0
 17 33  1  0
 19 18  1  1
 19 25  1  0
 19 20  1  0
 20 21  2  0
 20 34  1  0
 21 22  1  0
 21 35  1  0
 22 23  1  0
 22 24  1  0
 22 36  1  6
 23 37  1  0
 24 25  1  0
 24 38  1  0
 24 39  1  0
 25 40  1  0
 25 41  1  0
M  END
>  <i_m_ct_stereo_status>  (336) 
1

>  <s_m_source_file>  (336) 
/var/tmp/pbs.5076255.sched01/tmppj12hgr0/126t4bdxmoi.sdf

>  <i_m_source_file_index>  (336) 
25

>  <i_lp_mmshare_version>  (336) 
48012

>  <i_f3d_flags>  (336) 
0

>  <s_epik_input>  (336) 
bzFbY0hdW2NIXWMoW2NIXTIpYzFbY0hdYyhDKD1PKU8zKWMyW0NAQF0zNFtDQF01KE9bQ0hdPVtDSF1bQ0BASF00W09IXSlbQ0hdPVtDSF1bQ0BASF0oW09IXSlbQ0gyXVtDSDJdNQ==

>  <s_epik_cmdline>  (336) 
J2VwaWtfcHl0aG9uJywgJy1waHQnLCAnMi4wJywgJy1waCcsICc3LjAnLCAnLXRuJywgJzgnLCAnLW1hJywgJzIwMCcsICctaW1hZScsICc8aW5maWxlLm1hZT4nLCAnLW9tYWUnLCAnPG91dGZpbGUubWFlPic=

>  <r_epik_Ionization_Penalty>  (336) 
0.00314224

>  <r_epik_Ionization_Penalty_Charging>  (336) 
0

>  <r_epik_Ionization_Penalty_Neutral>  (336) 
0.00314224

>  <r_epik_State_Penalty>  (336) 
0.00221309

>  <r_epik_Charging_Adjusted_Penalty>  (336) 
0.00221309

>  <i_epik_Tot_Q>  (336) 
0

>  <i_epik_Tot_abs_Q>  (336) 
0

>  <s_epik_Chemistry_Notes>  (336) 
This compound has an ester and may undergo hydrolysis at high or low pH.

>  <s_lp_Force_Field>  (336) 
OPLS3e

>  <r_lp_Energy>  (336) 
20.4452

>  <b_lp_Chiralities_Consistent>  (336) 
1

>  <s_lp_Variant>  (336) 
106:0-1

>  <s_i_glide_gridfile>  (336) 
pfpi4k_grid

>  <i_i_glide_lignum>  (336) 
25

>  <i_i_glide_rotatable_bonds>  (336) 
2

>  <r_i_docking_score>  (336) 
-3.54115

>  <r_i_glide_ligand_efficiency>  (336) 
-0.141646

>  <r_i_glide_ligand_efficiency_sa>  (336) 
-0.414176

>  <r_i_glide_ligand_efficiency_ln>  (336) 
-0.839359

>  <r_i_glide_gscore>  (336) 
-3.54115

>  <r_i_glide_lipo>  (336) 
-0.57074

>  <r_i_glide_hbond>  (336) 
-0.0968478

>  <r_i_glide_metal>  (336) 
-0

>  <r_i_glide_rewards>  (336) 
-1.08868

>  <r_i_glide_evdw>  (336) 
-28.5602

>  <r_i_glide_ecoul>  (336) 
-2.32353

>  <r_i_glide_erotb>  (336) 
0

>  <r_i_glide_esite>  (336) 
-0.00834348

>  <r_i_glide_emodel>  (336) 
-36.9993

>  <r_i_glide_energy>  (336) 
-30.8837

>  <r_i_glide_einternal>  (336) 
0.806525

>  <r_i_glide_intrahb_reward>  (336) 
-0

>  <i_i_glide_confnum>  (336) 
1

>  <i_i_glide_posenum>  (336) 
18

>  <r_i_glide_eff_state_penalty>  (336) 
0

>  <ligand_id>  (336) 
106

>  <original_smiles>  (336) 
O=C1OC2(c3cc4ccoc4cc31)C(O)C=COC21C=CC(O)CC1

>  <smiles>  (336) 
[H]OC1([H])C([H])=C([H])C2(OC([H])=C([H])C([H])(O[H])C23OC(=O)c2c3c([H])c3c([H])c([H])oc3c2[H])C([H])([H])C1([H])[H]

$$$$
107:0:0
     RDKit          3D

 54 57  0  0  1  0  0  0  0  0999 V2000
   -0.1729   -9.4694    2.6994 C   0  0  0  0  0  0  0  0  0  0  0  0
    0.9955   -9.1143    2.6840 C   0  0  0  0  0  0  0  0  0  0  0  0
    2.4166   -8.7034    2.6493 C   0  0  1  0  0  0  0  0  0  0  0  0
    3.0838   -9.2502    3.7704 O   0  0  0  0  0  0  0  0  0  0  0  0
    3.1720   -9.2360    1.4212 C   0  0  0  0  0  0  0  0  0  0  0  0
    4.3800   -8.3124    1.2052 C   0  0  0  0  0  0  0  0  0  0  0  0
    4.1734   -7.1067    2.1425 C   0  0  1  0  0  0  0  0  0  0  0  0
    4.6211   -5.7345    1.5860 C   0  0  1  0  0  0  0  0  0  0  0  0
    6.0862   -5.6793    1.1402 C   0  0  0  0  0  0  0  0  0  0  0  0
    6.4748   -4.2249    0.8455 C   0  0  0  0  0  0  0  0  0  0  0  0
    5.4784   -3.5468   -0.0890 C   0  0  0  0  0  0  0  0  0  0  0  0
    4.2058   -3.9904   -0.2616 C   0  0  0  0  0  0  0  0  0  0  0  0
    3.2502   -3.3313   -1.2595 C   0  0  0  0  0  0  0  0  0  0  0  0
    3.9875   -2.6821   -2.4551 C   0  0  0  0  0  0  0  0  0  0  0  0
    4.6135   -3.7602   -3.3826 C   0  0  0  0  0  0  0  0  0  0  0  0
    2.9983   -1.8484   -3.2846 C   0  0  0  0  0  0  0  0  0  0  0  0
    5.0499   -1.7247   -1.8842 C   0  0  0  0  0  0  0  0  0  0  0  0
    5.9710   -2.3829   -0.8597 C   0  0  0  0  0  0  0  0  0  0  0  0
    7.0877   -1.8916   -0.6943 O   0  0  0  0  0  0  0  0  0  0  0  0
    3.6815   -5.2337    0.4707 C   0  0  2  0  0  0  0  0  0  0  0  0
    2.2813   -5.0834    1.0802 C   0  0  0  0  0  0  0  0  0  0  0  0
    1.7640   -6.4545    1.5537 C   0  0  0  0  0  0  0  0  0  0  0  0
    2.6847   -7.1636    2.5982 C   0  0  1  0  0  0  0  0  0  0  0  0
    2.4786   -6.4862    3.9759 C   0  0  0  0  0  0  0  0  0  0  0  0
   -1.1860   -9.8020    2.7272 H   0  0  0  0  0  0  0  0  0  0  0  0
    3.4616  -10.0814    3.5134 H   0  0  0  0  0  0  0  0  0  0  0  0
    3.4874  -10.2697    1.5394 H   0  0  0  0  0  0  0  0  0  0  0  0
    2.5356   -9.2090    0.5362 H   0  0  0  0  0  0  0  0  0  0  0  0
    5.3125   -8.8197    1.4611 H   0  0  0  0  0  0  0  0  0  0  0  0
    4.4477   -8.0246    0.1561 H   0  0  0  0  0  0  0  0  0  0  0  0
    4.7834   -7.3041    3.0268 H   0  0  0  0  0  0  0  0  0  0  0  0
    4.5341   -5.0355    2.4175 H   0  0  0  0  0  0  0  0  0  0  0  0
    6.7393   -6.1052    1.9058 H   0  0  0  0  0  0  0  0  0  0  0  0
    6.2171   -6.2735    0.2345 H   0  0  0  0  0  0  0  0  0  0  0  0
    6.4920   -3.6508    1.7726 H   0  0  0  0  0  0  0  0  0  0  0  0
    7.4814   -4.2069    0.4263 H   0  0  0  0  0  0  0  0  0  0  0  0
    2.5212   -4.0513   -1.6300 H   0  0  0  0  0  0  0  0  0  0  0  0
    2.6929   -2.5679   -0.7111 H   0  0  0  0  0  0  0  0  0  0  0  0
    5.1437   -3.3302   -4.2294 H   0  0  0  0  0  0  0  0  0  0  0  0
    3.8402   -4.3908   -3.8212 H   0  0  0  0  0  0  0  0  0  0  0  0
    5.3076   -4.4112   -2.8480 H   0  0  0  0  0  0  0  0  0  0  0  0
    3.4792   -1.3528   -4.1305 H   0  0  0  0  0  0  0  0  0  0  0  0
    2.5531   -1.0699   -2.6631 H   0  0  0  0  0  0  0  0  0  0  0  0
    2.1836   -2.4630   -3.6740 H   0  0  0  0  0  0  0  0  0  0  0  0
    5.6459   -1.3282   -2.7010 H   0  0  0  0  0  0  0  0  0  0  0  0
    4.5642   -0.8760   -1.3954 H   0  0  0  0  0  0  0  0  0  0  0  0
    3.6111   -5.9900   -0.3137 H   0  0  0  0  0  0  0  0  0  0  0  0
    2.2791   -4.3589    1.8972 H   0  0  0  0  0  0  0  0  0  0  0  0
    1.5998   -4.7075    0.3230 H   0  0  0  0  0  0  0  0  0  0  0  0
    0.7555   -6.3497    1.9583 H   0  0  0  0  0  0  0  0  0  0  0  0
    1.6555   -7.0765    0.6651 H   0  0  0  0  0  0  0  0  0  0  0  0
    2.6782   -5.4161    3.9322 H   0  0  0  0  0  0  0  0  0  0  0  0
    3.1452   -6.8943    4.7350 H   0  0  0  0  0  0  0  0  0  0  0  0
    1.4592   -6.6179    4.3381 H   0  0  0  0  0  0  0  0  0  0  0  0
  1  2  3  0
  1 25  1  0
  3  2  1  6
  3 23  1  0
  3  4  1  0
  3  5  1  0
  4 26  1  0
  5  6  1  0
  5 27  1  0
  5 28  1  0
  6  7  1  0
  6 29  1  0
  6 30  1  0
  7 23  1  0
  7  8  1  0
  7 31  1  1
  8 20  1  0
  8  9  1  0
  8 32  1  1
  9 10  1  0
  9 33  1  0
  9 34  1  0
 10 11  1  0
 10 35  1  0
 10 36  1  0
 11 18  1  0
 11 12  2  0
 12 13  1  0
 12 20  1  0
 13 14  1  0
 13 37  1  0
 13 38  1  0
 14 15  1  0
 14 16  1  0
 14 17  1  0
 15 39  1  0
 15 40  1  0
 15 41  1  0
 16 42  1  0
 16 43  1  0
 16 44  1  0
 17 18  1  0
 17 45  1  0
 17 46  1  0
 18 19  2  0
 20 21  1  0
 20 47  1  6
 21 22  1  0
 21 48  1  0
 21 49  1  0
 22 23  1  0
 22 50  1  0
 22 51  1  0
 23 24  1  1
 24 52  1  0
 24 53  1  0
 24 54  1  0
M  END
>  <i_m_ct_stereo_status>  (337) 
1

>  <s_m_source_file>  (337) 
/var/tmp/pbs.5076255.sched01/tmppj12hgr0/126t4bdxmoi.sdf

>  <i_m_source_file_index>  (337) 
26

>  <i_lp_mmshare_version>  (337) 
48012

>  <i_f3d_flags>  (337) 
0

>  <s_epik_input>  (337) 
W0NIXSNDW0NAQF0xKFtPSF0pW0NIMl1bQ0gyXVtDQEhdKFtDQF0xMltDSDNdKVtDQEBIXTNbQ0BASF0oW0NIMl1bQ0gyXTIpQzQ9QyhbQ0gyXVtDSDJdMylDKD1PKVtDSDJdQyhbQ0gyXTQpKFtDSDNdKVtDSDNd

>  <s_epik_cmdline>  (337) 
J2VwaWtfcHl0aG9uJywgJy1waHQnLCAnMi4wJywgJy1waCcsICc3LjAnLCAnLXRuJywgJzgnLCAnLW1hJywgJzIwMCcsICctaW1hZScsICc8aW5maWxlLm1hZT4nLCAnLW9tYWUnLCAnPG91dGZpbGUubWFlPic=

>  <r_lp_tautomer_probability>  (337) 
1

>  <r_epik_Ionization_Penalty>  (337) 
2.31595e-07

>  <r_epik_Ionization_Penalty_Charging>  (337) 
0

>  <r_epik_Ionization_Penalty_Neutral>  (337) 
2.31595e-07

>  <r_epik_State_Penalty>  (337) 
-0

>  <r_epik_Charging_Adjusted_Penalty>  (337) 
0

>  <i_epik_Tot_Q>  (337) 
0

>  <i_epik_Tot_abs_Q>  (337) 
0

>  <s_lp_Force_Field>  (337) 
OPLS3e

>  <r_lp_Energy>  (337) 
45.1074

>  <b_lp_Chiralities_Consistent>  (337) 
1

>  <s_lp_Variant>  (337) 
107:0-1

>  <s_i_glide_gridfile>  (337) 
pfpi4k_grid

>  <i_i_glide_lignum>  (337) 
26

>  <i_i_glide_rotatable_bonds>  (337) 
2

>  <r_i_docking_score>  (337) 
-3.63004

>  <r_i_glide_ligand_efficiency>  (337) 
-0.151252

>  <r_i_glide_ligand_efficiency_sa>  (337) 
-0.436285

>  <r_i_glide_ligand_efficiency_ln>  (337) 
-0.868835

>  <r_i_glide_gscore>  (337) 
-3.63004

>  <r_i_glide_lipo>  (337) 
-0.529145

>  <r_i_glide_hbond>  (337) 
-0.16

>  <r_i_glide_metal>  (337) 
-0

>  <r_i_glide_rewards>  (337) 
-1.18314

>  <r_i_glide_evdw>  (337) 
-29.6337

>  <r_i_glide_ecoul>  (337) 
-2.84151

>  <r_i_glide_erotb>  (337) 
0.175966

>  <r_i_glide_esite>  (337) 
-0.0258058

>  <r_i_glide_emodel>  (337) 
-39.1008

>  <r_i_glide_energy>  (337) 
-32.4752

>  <r_i_glide_einternal>  (337) 
1.45547

>  <r_i_glide_intrahb_reward>  (337) 
-0

>  <i_i_glide_confnum>  (337) 
1

>  <i_i_glide_posenum>  (337) 
7

>  <r_i_glide_eff_state_penalty>  (337) 
0

>  <ligand_id>  (337) 
107

>  <original_smiles>  (337) 
C#CC1(O)CCC2C3CCC4=C(CC(C)(C)CC4=O)C3CCC21C

>  <smiles>  (337) 
[H]C#CC1(O[H])C([H])([H])C([H])([H])C2([H])C3([H])C([H])([H])C([H])([H])C4=C(C([H])([H])C(C([H])([H])[H])(C([H])([H])[H])C([H])([H])C4=O)C3([H])C([H])([H])C([H])([H])C12C([H])([H])[H]

$$$$
107:0:1
     RDKit          3D

 54 57  0  0  1  0  0  0  0  0999 V2000
    1.3044   -9.8456    4.1856 C   0  0  0  0  0  0  0  0  0  0  0  0
    2.3158   -9.5488    3.5681 C   0  0  0  0  0  0  0  0  0  0  0  0
    3.5251   -9.1959    2.7904 C   0  0  1  0  0  0  0  0  0  0  0  0
    4.4365  -10.2793    2.8268 O   0  0  0  0  0  0  0  0  0  0  0  0
    3.2305   -8.9596    1.2992 C   0  0  0  0  0  0  0  0  0  0  0  0
    4.3707   -8.0797    0.7664 C   0  0  0  0  0  0  0  0  0  0  0  0
    5.1635   -7.5881    1.9890 C   0  0  1  0  0  0  0  0  0  0  0  0
    5.6932   -6.1339    1.9114 C   0  0  1  0  0  0  0  0  0  0  0  0
    6.5770   -5.8506    0.6954 C   0  0  0  0  0  0  0  0  0  0  0  0
    7.2473   -4.4778    0.8486 C   0  0  0  0  0  0  0  0  0  0  0  0
    6.2319   -3.3894    1.1846 C   0  0  0  0  0  0  0  0  0  0  0  0
    5.0203   -3.6570    1.7267 C   0  0  0  0  0  0  0  0  0  0  0  0
    3.9923   -2.5553    1.9893 C   0  0  0  0  0  0  0  0  0  0  0  0
    4.1408   -1.3583    1.0244 C   0  0  0  0  0  0  0  0  0  0  0  0
    3.7180   -1.7663   -0.4137 C   0  0  0  0  0  0  0  0  0  0  0  0
    3.2399   -0.2043    1.5062 C   0  0  0  0  0  0  0  0  0  0  0  0
    5.6053   -0.8775    1.0678 C   0  0  0  0  0  0  0  0  0  0  0  0
    6.6145   -2.0005    0.8317 C   0  0  0  0  0  0  0  0  0  0  0  0
    7.7193   -1.7005    0.3761 O   0  0  0  0  0  0  0  0  0  0  0  0
    4.5581   -5.0926    2.0271 C   0  0  2  0  0  0  0  0  0  0  0  0
    3.8874   -5.2937    3.3964 C   0  0  0  0  0  0  0  0  0  0  0  0
    3.2583   -6.7026    3.4545 C   0  0  0  0  0  0  0  0  0  0  0  0
    4.2636   -7.8807    3.2226 C   0  0  1  0  0  0  0  0  0  0  0  0
    5.1038   -8.0705    4.5086 C   0  0  0  0  0  0  0  0  0  0  0  0
    0.4333  -10.1474    4.7251 H   0  0  0  0  0  0  0  0  0  0  0  0
    4.2137  -10.8863    2.1277 H   0  0  0  0  0  0  0  0  0  0  0  0
    3.1270   -9.8791    0.7200 H   0  0  0  0  0  0  0  0  0  0  0  0
    2.2892   -8.4199    1.1840 H   0  0  0  0  0  0  0  0  0  0  0  0
    5.0238   -8.6523    0.1063 H   0  0  0  0  0  0  0  0  0  0  0  0
    3.9647   -7.2553    0.1810 H   0  0  0  0  0  0  0  0  0  0  0  0
    6.0339   -8.2421    2.0662 H   0  0  0  0  0  0  0  0  0  0  0  0
    6.3375   -6.0082    2.7815 H   0  0  0  0  0  0  0  0  0  0  0  0
    7.3321   -6.6294    0.5770 H   0  0  0  0  0  0  0  0  0  0  0  0
    5.9632   -5.8570   -0.2083 H   0  0  0  0  0  0  0  0  0  0  0  0
    7.9753   -4.5119    1.6602 H   0  0  0  0  0  0  0  0  0  0  0  0
    7.7841   -4.2458   -0.0713 H   0  0  0  0  0  0  0  0  0  0  0  0
    2.9805   -2.9523    1.9176 H   0  0  0  0  0  0  0  0  0  0  0  0
    4.1463   -2.2210    3.0166 H   0  0  0  0  0  0  0  0  0  0  0  0
    3.8055   -0.9338   -1.1162 H   0  0  0  0  0  0  0  0  0  0  0  0
    2.6749   -2.0915   -0.4320 H   0  0  0  0  0  0  0  0  0  0  0  0
    4.3090   -2.5949   -0.8090 H   0  0  0  0  0  0  0  0  0  0  0  0
    3.3317    0.6777    0.8741 H   0  0  0  0  0  0  0  0  0  0  0  0
    3.5145    0.1056    2.5138 H   0  0  0  0  0  0  0  0  0  0  0  0
    2.1873   -0.4936    1.5180 H   0  0  0  0  0  0  0  0  0  0  0  0
    5.7626   -0.0995    0.3229 H   0  0  0  0  0  0  0  0  0  0  0  0
    5.8210   -0.4314    2.0410 H   0  0  0  0  0  0  0  0  0  0  0  0
    3.8047   -5.2934    1.2624 H   0  0  0  0  0  0  0  0  0  0  0  0
    4.6049   -5.1511    4.2072 H   0  0  0  0  0  0  0  0  0  0  0  0
    3.0977   -4.5621    3.5666 H   0  0  0  0  0  0  0  0  0  0  0  0
    2.7540   -6.8290    4.4141 H   0  0  0  0  0  0  0  0  0  0  0  0
    2.4703   -6.7348    2.7000 H   0  0  0  0  0  0  0  0  0  0  0  0
    5.6215   -7.1539    4.7908 H   0  0  0  0  0  0  0  0  0  0  0  0
    5.8718   -8.8333    4.3849 H   0  0  0  0  0  0  0  0  0  0  0  0
    4.4828   -8.3700    5.3528 H   0  0  0  0  0  0  0  0  0  0  0  0
  1  2  3  0
  1 25  1  0
  3  2  1  1
  3 23  1  0
  3  4  1  0
  3  5  1  0
  4 26  1  0
  5  6  1  0
  5 27  1  0
  5 28  1  0
  6  7  1  0
  6 29  1  0
  6 30  1  0
  7 23  1  0
  7  8  1  0
  7 31  1  1
  8 20  1  0
  8  9  1  0
  8 32  1  1
  9 10  1  0
  9 33  1  0
  9 34  1  0
 10 11  1  0
 10 35  1  0
 10 36  1  0
 11 18  1  0
 11 12  2  0
 12 13  1  0
 12 20  1  0
 13 14  1  0
 13 37  1  0
 13 38  1  0
 14 15  1  0
 14 16  1  0
 14 17  1  0
 15 39  1  0
 15 40  1  0
 15 41  1  0
 16 42  1  0
 16 43  1  0
 16 44  1  0
 17 18  1  0
 17 45  1  0
 17 46  1  0
 18 19  2  0
 20 21  1  0
 20 47  1  6
 21 22  1  0
 21 48  1  0
 21 49  1  0
 22 23  1  0
 22 50  1  0
 22 51  1  0
 23 24  1  1
 24 52  1  0
 24 53  1  0
 24 54  1  0
M  END
>  <i_m_ct_stereo_status>  (338) 
1

>  <s_m_source_file>  (338) 
/var/tmp/pbs.5076255.sched01/tmppj12hgr0/126t4bdxmoi.sdf

>  <i_m_source_file_index>  (338) 
26

>  <i_lp_mmshare_version>  (338) 
48012

>  <i_f3d_flags>  (338) 
0

>  <s_epik_input>  (338) 
W0NIXSNDW0NAQF0xKFtPSF0pW0NIMl1bQ0gyXVtDQEhdKFtDQF0xMltDSDNdKVtDQEBIXTNbQ0BASF0oW0NIMl1bQ0gyXTIpQzQ9QyhbQ0gyXVtDSDJdMylDKD1PKVtDSDJdQyhbQ0gyXTQpKFtDSDNdKVtDSDNd

>  <s_epik_cmdline>  (338) 
J2VwaWtfcHl0aG9uJywgJy1waHQnLCAnMi4wJywgJy1waCcsICc3LjAnLCAnLXRuJywgJzgnLCAnLW1hJywgJzIwMCcsICctaW1hZScsICc8aW5maWxlLm1hZT4nLCAnLW9tYWUnLCAnPG91dGZpbGUubWFlPic=

>  <r_lp_tautomer_probability>  (338) 
1

>  <r_epik_Ionization_Penalty>  (338) 
2.31595e-07

>  <r_epik_Ionization_Penalty_Charging>  (338) 
0

>  <r_epik_Ionization_Penalty_Neutral>  (338) 
2.31595e-07

>  <r_epik_State_Penalty>  (338) 
-0

>  <r_epik_Charging_Adjusted_Penalty>  (338) 
0

>  <i_epik_Tot_Q>  (338) 
0

>  <i_epik_Tot_abs_Q>  (338) 
0

>  <s_lp_Force_Field>  (338) 
OPLS3e

>  <r_lp_Energy>  (338) 
45.1074

>  <b_lp_Chiralities_Consistent>  (338) 
1

>  <s_lp_Variant>  (338) 
107:0-1

>  <s_i_glide_gridfile>  (338) 
pfpi4k_grid

>  <i_i_glide_lignum>  (338) 
26

>  <i_i_glide_rotatable_bonds>  (338) 
2

>  <r_i_docking_score>  (338) 
-3.43454

>  <r_i_glide_ligand_efficiency>  (338) 
-0.143106

>  <r_i_glide_ligand_efficiency_sa>  (338) 
-0.412789

>  <r_i_glide_ligand_efficiency_ln>  (338) 
-0.822043

>  <r_i_glide_gscore>  (338) 
-3.43454

>  <r_i_glide_lipo>  (338) 
-0.539892

>  <r_i_glide_hbond>  (338) 
-0.121435

>  <r_i_glide_metal>  (338) 
-0

>  <r_i_glide_rewards>  (338) 
-1.26504

>  <r_i_glide_evdw>  (338) 
-24.3328

>  <r_i_glide_ecoul>  (338) 
-3.11665

>  <r_i_glide_erotb>  (338) 
0.175966

>  <r_i_glide_esite>  (338) 
0

>  <r_i_glide_emodel>  (338) 
-33.6081

>  <r_i_glide_energy>  (338) 
-27.4494

>  <r_i_glide_einternal>  (338) 
1.56794

>  <r_i_glide_intrahb_reward>  (338) 
-0

>  <i_i_glide_confnum>  (338) 
1

>  <i_i_glide_posenum>  (338) 
5

>  <r_i_glide_eff_state_penalty>  (338) 
0

>  <ligand_id>  (338) 
107

>  <original_smiles>  (338) 
C#CC1(O)CCC2C3CCC4=C(CC(C)(C)CC4=O)C3CCC21C

>  <smiles>  (338) 
[H]C#CC1(O[H])C([H])([H])C([H])([H])C2([H])C3([H])C([H])([H])C([H])([H])C4=C(C([H])([H])C(C([H])([H])[H])(C([H])([H])[H])C([H])([H])C4=O)C3([H])C([H])([H])C([H])([H])C12C([H])([H])[H]

$$$$
107:0:2
     RDKit          3D

 54 57  0  0  1  0  0  0  0  0999 V2000
    0.6635   -8.8950    4.3891 C   0  0  0  0  0  0  0  0  0  0  0  0
    1.8244   -8.9594    4.0158 C   0  0  0  0  0  0  0  0  0  0  0  0
    3.2205   -9.0587    3.5351 C   0  0  1  0  0  0  0  0  0  0  0  0
    3.8450  -10.1716    4.1478 O   0  0  0  0  0  0  0  0  0  0  0  0
    3.3151   -9.3115    2.0177 C   0  0  0  0  0  0  0  0  0  0  0  0
    4.7097   -8.8295    1.5830 C   0  0  0  0  0  0  0  0  0  0  0  0
    5.3035   -8.0642    2.7853 C   0  0  1  0  0  0  0  0  0  0  0  0
    6.1494   -6.8103    2.4520 C   0  0  1  0  0  0  0  0  0  0  0  0
    7.3257   -7.0805    1.5100 C   0  0  0  0  0  0  0  0  0  0  0  0
    8.2244   -5.8457    1.4280 C   0  0  0  0  0  0  0  0  0  0  0  0
    7.4227   -4.5860    1.1200 C   0  0  0  0  0  0  0  0  0  0  0  0
    6.0909   -4.4776    1.3610 C   0  0  0  0  0  0  0  0  0  0  0  0
    5.3014   -3.2156    1.0059 C   0  0  0  0  0  0  0  0  0  0  0  0
    5.9135   -2.4428   -0.1842 C   0  0  0  0  0  0  0  0  0  0  0  0
    5.7212   -3.2382   -1.5029 C   0  0  0  0  0  0  0  0  0  0  0  0
    5.2067   -1.0792   -0.3259 C   0  0  0  0  0  0  0  0  0  0  0  0
    7.4083   -2.1991    0.1203 C   0  0  0  0  0  0  0  0  0  0  0  0
    8.1713   -3.4636    0.5050 C   0  0  0  0  0  0  0  0  0  0  0  0
    9.3945   -3.4724    0.3544 O   0  0  0  0  0  0  0  0  0  0  0  0
    5.2741   -5.6450    1.9376 C   0  0  2  0  0  0  0  0  0  0  0  0
    4.2904   -5.2742    3.0632 C   0  0  0  0  0  0  0  0  0  0  0  0
    3.3685   -6.4793    3.3488 C   0  0  0  0  0  0  0  0  0  0  0  0
    4.1166   -7.7924    3.7540 C   0  0  1  0  0  0  0  0  0  0  0  0
    4.5921   -7.6543    5.2225 C   0  0  0  0  0  0  0  0  0  0  0  0
   -0.3485   -8.8887    4.7275 H   0  0  0  0  0  0  0  0  0  0  0  0
    3.8841  -10.8783    3.5165 H   0  0  0  0  0  0  0  0  0  0  0  0
    3.1362  -10.3538    1.7386 H   0  0  0  0  0  0  0  0  0  0  0  0
    2.5665   -8.7211    1.4859 H   0  0  0  0  0  0  0  0  0  0  0  0
    5.3540   -9.6737    1.3278 H   0  0  0  0  0  0  0  0  0  0  0  0
    4.6249   -8.2068    0.6922 H   0  0  0  0  0  0  0  0  0  0  0  0
    5.9689   -8.7671    3.2893 H   0  0  0  0  0  0  0  0  0  0  0  0
    6.5938   -6.4891    3.3947 H   0  0  0  0  0  0  0  0  0  0  0  0
    7.8996   -7.9543    1.8282 H   0  0  0  0  0  0  0  0  0  0  0  0
    6.9395   -7.2811    0.5142 H   0  0  0  0  0  0  0  0  0  0  0  0
    8.7322   -5.6906    2.3816 H   0  0  0  0  0  0  0  0  0  0  0  0
    8.9879   -6.0213    0.6679 H   0  0  0  0  0  0  0  0  0  0  0  0
    4.2648   -3.4669    0.7807 H   0  0  0  0  0  0  0  0  0  0  0  0
    5.2988   -2.5805    1.8953 H   0  0  0  0  0  0  0  0  0  0  0  0
    6.1587   -2.7231   -2.3617 H   0  0  0  0  0  0  0  0  0  0  0  0
    4.6619   -3.3981   -1.7205 H   0  0  0  0  0  0  0  0  0  0  0  0
    6.1784   -4.2263   -1.4472 H   0  0  0  0  0  0  0  0  0  0  0  0
    5.6144   -0.4973   -1.1531 H   0  0  0  0  0  0  0  0  0  0  0  0
    5.3209   -0.4856    0.5825 H   0  0  0  0  0  0  0  0  0  0  0  0
    4.1361   -1.1988   -0.5078 H   0  0  0  0  0  0  0  0  0  0  0  0
    7.9131   -1.7601   -0.7334 H   0  0  0  0  0  0  0  0  0  0  0  0
    7.4992   -1.4908    0.9461 H   0  0  0  0  0  0  0  0  0  0  0  0
    4.6787   -5.9847    1.0884 H   0  0  0  0  0  0  0  0  0  0  0  0
    4.8253   -4.9696    3.9651 H   0  0  0  0  0  0  0  0  0  0  0  0
    3.6630   -4.4266    2.7875 H   0  0  0  0  0  0  0  0  0  0  0  0
    2.6507   -6.2064    4.1248 H   0  0  0  0  0  0  0  0  0  0  0  0
    2.7774   -6.6547    2.4481 H   0  0  0  0  0  0  0  0  0  0  0  0
    5.2237   -6.7779    5.3622 H   0  0  0  0  0  0  0  0  0  0  0  0
    5.1810   -8.5116    5.5460 H   0  0  0  0  0  0  0  0  0  0  0  0
    3.7515   -7.5650    5.9100 H   0  0  0  0  0  0  0  0  0  0  0  0
  1  2  3  0
  1 25  1  0
  3  2  1  1
  3 23  1  0
  3  4  1  0
  3  5  1  0
  4 26  1  0
  5  6  1  0
  5 27  1  0
  5 28  1  0
  6  7  1  0
  6 29  1  0
  6 30  1  0
  7 23  1  0
  7  8  1  0
  7 31  1  1
  8 20  1  0
  8  9  1  0
  8 32  1  1
  9 10  1  0
  9 33  1  0
  9 34  1  0
 10 11  1  0
 10 35  1  0
 10 36  1  0
 11 18  1  0
 11 12  2  0
 12 13  1  0
 12 20  1  0
 13 14  1  0
 13 37  1  0
 13 38  1  0
 14 15  1  0
 14 16  1  0
 14 17  1  0
 15 39  1  0
 15 40  1  0
 15 41  1  0
 16 42  1  0
 16 43  1  0
 16 44  1  0
 17 18  1  0
 17 45  1  0
 17 46  1  0
 18 19  2  0
 20 21  1  0
 20 47  1  6
 21 22  1  0
 21 48  1  0
 21 49  1  0
 22 23  1  0
 22 50  1  0
 22 51  1  0
 23 24  1  1
 24 52  1  0
 24 53  1  0
 24 54  1  0
M  END
>  <i_m_ct_stereo_status>  (339) 
1

>  <s_m_source_file>  (339) 
/var/tmp/pbs.5076255.sched01/tmppj12hgr0/126t4bdxmoi.sdf

>  <i_m_source_file_index>  (339) 
26

>  <i_lp_mmshare_version>  (339) 
48012

>  <i_f3d_flags>  (339) 
0

>  <s_epik_input>  (339) 
W0NIXSNDW0NAQF0xKFtPSF0pW0NIMl1bQ0gyXVtDQEhdKFtDQF0xMltDSDNdKVtDQEBIXTNbQ0BASF0oW0NIMl1bQ0gyXTIpQzQ9QyhbQ0gyXVtDSDJdMylDKD1PKVtDSDJdQyhbQ0gyXTQpKFtDSDNdKVtDSDNd

>  <s_epik_cmdline>  (339) 
J2VwaWtfcHl0aG9uJywgJy1waHQnLCAnMi4wJywgJy1waCcsICc3LjAnLCAnLXRuJywgJzgnLCAnLW1hJywgJzIwMCcsICctaW1hZScsICc8aW5maWxlLm1hZT4nLCAnLW9tYWUnLCAnPG91dGZpbGUubWFlPic=

>  <r_lp_tautomer_probability>  (339) 
1

>  <r_epik_Ionization_Penalty>  (339) 
2.31595e-07

>  <r_epik_Ionization_Penalty_Charging>  (339) 
0

>  <r_epik_Ionization_Penalty_Neutral>  (339) 
2.31595e-07

>  <r_epik_State_Penalty>  (339) 
-0

>  <r_epik_Charging_Adjusted_Penalty>  (339) 
0

>  <i_epik_Tot_Q>  (339) 
0

>  <i_epik_Tot_abs_Q>  (339) 
0

>  <s_lp_Force_Field>  (339) 
OPLS3e

>  <r_lp_Energy>  (339) 
45.1074

>  <b_lp_Chiralities_Consistent>  (339) 
1

>  <s_lp_Variant>  (339) 
107:0-1

>  <s_i_glide_gridfile>  (339) 
pfpi4k_grid

>  <i_i_glide_lignum>  (339) 
26

>  <i_i_glide_rotatable_bonds>  (339) 
2

>  <r_i_docking_score>  (339) 
-3.33763

>  <r_i_glide_ligand_efficiency>  (339) 
-0.139068

>  <r_i_glide_ligand_efficiency_sa>  (339) 
-0.401141

>  <r_i_glide_ligand_efficiency_ln>  (339) 
-0.798847

>  <r_i_glide_gscore>  (339) 
-3.33763

>  <r_i_glide_lipo>  (339) 
-0.451944

>  <r_i_glide_hbond>  (339) 
-0.120145

>  <r_i_glide_metal>  (339) 
-0

>  <r_i_glide_rewards>  (339) 
-1.47236

>  <r_i_glide_evdw>  (339) 
-24.0604

>  <r_i_glide_ecoul>  (339) 
-1.77414

>  <r_i_glide_erotb>  (339) 
0.175966

>  <r_i_glide_esite>  (339) 
0

>  <r_i_glide_emodel>  (339) 
-31.9354

>  <r_i_glide_energy>  (339) 
-25.8345

>  <r_i_glide_einternal>  (339) 
1.29879

>  <r_i_glide_intrahb_reward>  (339) 
-0

>  <i_i_glide_confnum>  (339) 
1

>  <i_i_glide_posenum>  (339) 
40

>  <r_i_glide_eff_state_penalty>  (339) 
0

>  <ligand_id>  (339) 
107

>  <original_smiles>  (339) 
C#CC1(O)CCC2C3CCC4=C(CC(C)(C)CC4=O)C3CCC21C

>  <smiles>  (339) 
[H]C#CC1(O[H])C([H])([H])C([H])([H])C2([H])C3([H])C([H])([H])C([H])([H])C4=C(C([H])([H])C(C([H])([H])[H])(C([H])([H])[H])C([H])([H])C4=O)C3([H])C([H])([H])C([H])([H])C12C([H])([H])[H]

$$$$
108:0:0
     RDKit          3D

 72 78  0  0  1  0  0  0  0  0999 V2000
    0.6000   -8.3723    2.8317 C   0  0  0  0  0  0  0  0  0  0  0  0
    1.3409   -8.2924    4.0552 O   0  0  0  0  0  0  0  0  0  0  0  0
    2.4792   -7.4089    4.1290 C   0  0  2  0  0  0  0  0  0  0  0  0
    2.0533   -5.9572    3.8791 C   0  0  0  0  0  0  0  0  0  0  0  0
    3.2328   -5.0775    3.5124 C   0  0  0  0  0  0  0  0  0  0  0  0
    3.7931   -5.2470    2.0041 C   0  0  1  0  0  0  0  0  0  0  0  0
    3.1556   -6.3998    1.3373 O   0  0  0  0  0  0  0  0  0  0  0  0
    3.6308   -7.7453    1.7789 C   0  0  1  0  0  0  0  0  0  0  0  0
    3.0587   -8.8011    1.0804 O   0  0  0  0  0  0  0  0  0  0  0  0
    5.1127   -7.9235    1.5472 C   0  0  0  0  0  0  0  0  0  0  0  0
    5.6875   -6.8016    2.4112 C   0  0  1  0  0  0  0  0  0  0  0  0
    4.9428   -7.1178    3.6403 O   0  0  0  0  0  0  0  0  0  0  0  0
    3.7436   -7.8839    3.3366 C   0  0  1  0  0  0  0  0  0  0  0  0
    4.0491   -9.3272    3.8667 C   0  0  0  0  0  0  0  0  0  0  0  0
    6.3022   -5.3104    2.3067 C   0  0  2  0  0  0  0  0  0  0  0  0
    7.8027   -5.4089    1.9512 C   0  0  0  0  0  0  0  0  0  0  0  0
    5.7038   -3.8637    2.3933 C   0  0  1  0  0  0  0  0  0  0  0  0
    6.4935   -2.8321    1.8744 O   0  0  0  0  0  0  0  0  0  0  0  0
    4.2442   -3.7899    1.7325 C   0  0  1  0  0  0  0  0  0  0  0  0
    3.8075   -3.0395    0.4139 C   0  0  1  0  0  0  0  0  0  0  0  0
    2.2639   -3.0430    0.4826 C   0  0  0  0  0  0  0  0  0  0  0  0
    4.3365   -1.5922    0.4384 C   0  0  0  0  0  0  0  0  0  0  0  0
    3.6690   -0.6985   -0.5790 C   0  0  0  0  0  0  0  0  0  0  0  0
    3.4176   -1.3153   -1.9648 C   0  0  0  0  0  0  0  0  0  0  0  0
    4.0644   -2.6990   -2.2478 C   0  0  0  0  0  0  0  0  0  0  0  0
    3.1283   -3.3827   -3.2676 C   0  0  0  0  0  0  0  0  0  0  0  0
    5.3884   -2.4109   -2.9929 C   0  0  0  0  0  0  0  0  0  0  0  0
    4.2072   -3.6411   -0.9557 C   0  0  1  0  0  0  0  0  0  0  0  0
    5.5175   -4.4255   -0.8680 C   0  0  1  0  0  0  0  0  0  0  0  0
    6.6737   -3.6593   -0.6088 O   0  0  0  0  0  0  0  0  0  0  0  0
    5.4518   -5.7116   -0.0305 C   0  0  0  0  0  0  0  0  0  0  0  0
    5.2020   -5.7145    1.5604 C   0  0  2  0  0  0  0  0  0  0  0  0
   -0.2270   -9.0893    2.9267 H   0  0  0  0  0  0  0  0  0  0  0  0
    1.1647   -8.7535    2.0409 H   0  0  0  0  0  0  0  0  0  0  0  0
    0.1987   -7.4053    2.5222 H   0  0  0  0  0  0  0  0  0  0  0  0
    2.7646   -7.4235    5.1940 H   0  0  0  0  0  0  0  0  0  0  0  0
    1.3195   -5.8432    3.0905 H   0  0  0  0  0  0  0  0  0  0  0  0
    1.5528   -5.5814    4.7809 H   0  0  0  0  0  0  0  0  0  0  0  0
    2.7211   -4.1200    3.6231 H   0  0  0  0  0  0  0  0  0  0  0  0
    3.9913   -5.0679    4.2901 H   0  0  0  0  0  0  0  0  0  0  0  0
    3.2052   -9.6172    1.5464 H   0  0  0  0  0  0  0  0  0  0  0  0
    5.4513   -8.9031    1.8581 H   0  0  0  0  0  0  0  0  0  0  0  0
    5.3524   -7.9623    0.4872 H   0  0  0  0  0  0  0  0  0  0  0  0
    3.3747  -10.0637    3.4505 H   0  0  0  0  0  0  0  0  0  0  0  0
    3.9393   -9.3880    4.9500 H   0  0  0  0  0  0  0  0  0  0  0  0
    5.0680   -9.6519    3.6971 H   0  0  0  0  0  0  0  0  0  0  0  0
    8.0541   -4.8582    1.0557 H   0  0  0  0  0  0  0  0  0  0  0  0
    8.0881   -6.4522    1.7757 H   0  0  0  0  0  0  0  0  0  0  0  0
    8.4162   -5.0595    2.7674 H   0  0  0  0  0  0  0  0  0  0  0  0
    5.5912   -3.6975    3.4672 H   0  0  0  0  0  0  0  0  0  0  0  0
    6.2183   -2.0430    2.2974 H   0  0  0  0  0  0  0  0  0  0  0  0
    3.8047   -3.0667    2.4083 H   0  0  0  0  0  0  0  0  0  0  0  0
    1.8349   -2.6946   -0.4463 H   0  0  0  0  0  0  0  0  0  0  0  0
    1.8810   -2.4037    1.2726 H   0  0  0  0  0  0  0  0  0  0  0  0
    1.8540   -4.0401    0.6224 H   0  0  0  0  0  0  0  0  0  0  0  0
    4.2078   -1.1377    1.4178 H   0  0  0  0  0  0  0  0  0  0  0  0
    5.4011   -1.5586    0.2110 H   0  0  0  0  0  0  0  0  0  0  0  0
    2.7237   -0.3708   -0.1533 H   0  0  0  0  0  0  0  0  0  0  0  0
    4.2688    0.2144   -0.6550 H   0  0  0  0  0  0  0  0  0  0  0  0
    2.3466   -1.4100   -2.0930 H   0  0  0  0  0  0  0  0  0  0  0  0
    3.6623   -0.5840   -2.7384 H   0  0  0  0  0  0  0  0  0  0  0  0
    3.5797   -4.2919   -3.6263 H   0  0  0  0  0  0  0  0  0  0  0  0
    2.9487   -2.7912   -4.1625 H   0  0  0  0  0  0  0  0  0  0  0  0
    2.1549   -3.6142   -2.8280 H   0  0  0  0  0  0  0  0  0  0  0  0
    5.8904   -3.3020   -3.3734 H   0  0  0  0  0  0  0  0  0  0  0  0
    6.0872   -1.8692   -2.3526 H   0  0  0  0  0  0  0  0  0  0  0  0
    5.1847   -1.8063   -3.8743 H   0  0  0  0  0  0  0  0  0  0  0  0
    3.4945   -4.4493   -1.1264 H   0  0  0  0  0  0  0  0  0  0  0  0
    5.6525   -4.7795   -1.8722 H   0  0  0  0  0  0  0  0  0  0  0  0
    6.6497   -3.3780    0.2995 H   0  0  0  0  0  0  0  0  0  0  0  0
    4.6901   -6.3175   -0.5247 H   0  0  0  0  0  0  0  0  0  0  0  0
    6.3871   -6.2750   -0.1754 H   0  0  0  0  0  0  0  0  0  0  0  0
  1  2  1  0
  1 33  1  0
  1 34  1  0
  1 35  1  0
  2  3  1  0
  3 13  1  0
  3  4  1  0
  3 36  1  1
  4  5  1  0
  4 37  1  0
  4 38  1  0
  6  5  1  1
  5 39  1  0
  5 40  1  0
  6 19  1  0
  6 32  1  0
  6  7  1  0
  7  8  1  0
  8 13  1  0
  8  9  1  6
  8 10  1  0
  9 41  1  0
 10 11  1  0
 10 42  1  0
 10 43  1  0
 11 32  1  0
 11 12  1  1
 11 15  1  0
 12 13  1  0
 13 14  1  6
 14 44  1  0
 14 45  1  0
 14 46  1  0
 15 32  1  0
 15 16  1  6
 15 17  1  0
 16 47  1  0
 16 48  1  0
 16 49  1  0
 17 18  1  0
 17 19  1  0
 17 50  1  1
 18 51  1  0
 19 20  1  0
 19 52  1  1
 20 28  1  0
 20 21  1  6
 20 22  1  0
 21 53  1  0
 21 54  1  0
 21 55  1  0
 22 23  1  0
 22 56  1  0
 22 57  1  0
 23 24  1  0
 23 58  1  0
 23 59  1  0
 24 25  1  0
 24 60  1  0
 24 61  1  0
 25 26  1  0
 25 27  1  0
 25 28  1  0
 26 62  1  0
 26 63  1  0
 26 64  1  0
 27 65  1  0
 27 66  1  0
 27 67  1  0
 28 29  1  0
 28 68  1  6
 29 30  1  0
 29 31  1  0
 29 69  1  6
 30 70  1  0
 32 31  1  6
 31 71  1  0
 31 72  1  0
M  END
>  <i_m_ct_stereo_status>  (340) 
1

>  <s_m_source_file>  (340) 
/var/tmp/pbs.5076255.sched01/tmppj12hgr0/126t4bdxmoi.sdf

>  <i_m_source_file_index>  (340) 
27

>  <i_lp_mmshare_version>  (340) 
48012

>  <i_f3d_flags>  (340) 
0

>  <s_epik_input>  (340) 
W0NIM11PW0NASF0oW0NIMl1bQ0gyXTEpW0NAQF0oTzIpKFtDSDNdKVtDQF0oTzMpKFtPSF0pW0NIMl1bQ0BdMihbQ0BAXTQ1QzEzNilbQ0BdNChbQ0gzXSlbQ0BASF0oW09IXSlbQ0BIXTZbQ0BdNyhbQ0gzXSlbQ0BIXShbQ0BASF0oW09IXSlbQ0gyXTUpQyhbQ0gzXSkoW0NIM10pW0NIMl1bQ0gyXVtDSDJdNw==

>  <s_epik_cmdline>  (340) 
J2VwaWtfcHl0aG9uJywgJy1waHQnLCAnMi4wJywgJy1waCcsICc3LjAnLCAnLXRuJywgJzgnLCAnLW1hJywgJzIwMCcsICctaW1hZScsICc8aW5maWxlLm1hZT4nLCAnLW9tYWUnLCAnPG91dGZpbGUubWFlPic=

>  <r_lp_tautomer_probability>  (340) 
1

>  <r_epik_Ionization_Penalty>  (340) 
3.30199e-06

>  <r_epik_Ionization_Penalty_Charging>  (340) 
0

>  <r_epik_Ionization_Penalty_Neutral>  (340) 
3.30199e-06

>  <r_epik_State_Penalty>  (340) 
-0

>  <r_epik_Charging_Adjusted_Penalty>  (340) 
0

>  <i_epik_Tot_Q>  (340) 
0

>  <i_epik_Tot_abs_Q>  (340) 
0

>  <s_lp_Force_Field>  (340) 
OPLS3e

>  <r_lp_Energy>  (340) 
214.894

>  <b_lp_Chiralities_Consistent>  (340) 
1

>  <s_lp_Variant>  (340) 
108:0-1

>  <s_i_glide_gridfile>  (340) 
pfpi4k_grid

>  <i_i_glide_lignum>  (340) 
27

>  <i_i_glide_rotatable_bonds>  (340) 
4

>  <r_i_docking_score>  (340) 
-1.8293

>  <r_i_glide_ligand_efficiency>  (340) 
-0.0571657

>  <r_i_glide_ligand_efficiency_sa>  (340) 
-0.18149

>  <r_i_glide_ligand_efficiency_ln>  (340) 
-0.409631

>  <r_i_glide_gscore>  (340) 
-1.8293

>  <r_i_glide_lipo>  (340) 
-0.4687

>  <r_i_glide_hbond>  (340) 
0

>  <r_i_glide_metal>  (340) 
-0

>  <r_i_glide_rewards>  (340) 
-0.866277

>  <r_i_glide_evdw>  (340) 
-7.8515

>  <r_i_glide_ecoul>  (340) 
-2.67236

>  <r_i_glide_erotb>  (340) 
0

>  <r_i_glide_esite>  (340) 
0

>  <r_i_glide_emodel>  (340) 
-3.43024

>  <r_i_glide_energy>  (340) 
-10.5239

>  <r_i_glide_einternal>  (340) 
13.993

>  <r_i_glide_intrahb_reward>  (340) 
-0.5

>  <i_i_glide_confnum>  (340) 
1

>  <i_i_glide_posenum>  (340) 
35

>  <r_i_glide_eff_state_penalty>  (340) 
0

>  <ligand_id>  (340) 
108

>  <original_smiles>  (340) 
COC1CCC23OC4(O)CC5(OC14C)C1(C)C(O)C2C2(C)CCCC(C)(C)C2C(O)CC351

>  <smiles>  (340) 
[H]OC1([H])C([H])([H])C23C45OC6(O[H])C([H])([H])C2(OC6(C([H])([H])[H])C([H])(OC([H])([H])[H])C([H])([H])C4([H])[H])C3(C([H])([H])[H])C([H])(O[H])C5([H])C2(C([H])([H])[H])C([H])([H])C([H])([H])C([H])([H])C(C([H])([H])[H])(C([H])([H])[H])C12[H]

$$$$
110:0:0
     RDKit          3D

 44 48  0  0  1  0  0  0  0  0999 V2000
   -1.3938   -8.6647    3.6958 N   0  0  0  0  0  0  0  0  0  0  0  0
   -0.2353   -8.9189    3.2613 C   0  0  0  0  0  0  0  0  0  0  0  0
    0.3932  -10.2473    3.5493 C   0  0  0  0  0  0  0  0  0  0  0  0
    1.6300  -10.4937    3.0638 C   0  0  0  0  0  0  0  0  0  0  0  0
    2.2852   -9.5265    2.3195 N   0  0  0  0  0  0  0  0  0  0  0  0
    3.5809   -9.5794    1.8403 N   0  0  0  0  0  0  0  0  0  0  0  0
    3.8191   -8.3399    1.2872 C   0  0  0  0  0  0  0  0  0  0  0  0
    2.7409   -7.5346    1.4223 C   0  0  0  0  0  0  0  0  0  0  0  0
    2.5728   -6.1721    0.9258 C   0  0  0  0  0  0  0  0  0  0  0  0
    1.4940   -5.5777    0.8806 O   0  0  0  0  0  0  0  0  0  0  0  0
    3.7061   -5.6217    0.4777 N   0  0  0  0  0  0  0  0  0  0  0  0
    3.8286   -4.2954   -0.1323 C   0  0  2  0  0  0  0  0  0  0  0  0
    5.1988   -4.1635   -0.8406 C   0  0  2  0  0  0  0  0  0  0  0  0
    6.3470   -4.2890    0.1899 C   0  0  0  0  0  0  0  0  0  0  0  0
    6.2097   -3.1702    1.2414 C   0  0  1  0  0  0  0  0  0  0  0  0
    6.3135   -1.7992    0.5386 C   0  0  0  0  0  0  0  0  0  0  0  0
    5.1718   -1.6677   -0.4918 C   0  0  1  0  0  0  0  0  0  0  0  0
    5.2945   -2.7910   -1.5449 C   0  0  0  0  0  0  0  0  0  0  0  0
    3.8149   -1.7903    0.2299 C   0  0  0  0  0  0  0  0  0  0  0  0
    3.7110   -3.1659    0.9250 C   0  0  2  0  0  0  0  0  0  0  0  0
    4.8493   -3.3044    1.9615 C   0  0  0  0  0  0  0  0  0  0  0  0
    1.7175   -8.2775    2.1151 C   0  0  0  0  0  0  0  0  0  0  0  0
    0.5205   -7.9439    2.5036 N   0  0  0  0  0  0  0  0  0  0  0  0
   -1.7755   -9.4480    4.2164 H   0  0  0  0  0  0  0  0  0  0  0  0
   -0.1677  -10.9623    4.1397 H   0  0  0  0  0  0  0  0  0  0  0  0
    2.1702  -11.4183    3.1997 H   0  0  0  0  0  0  0  0  0  0  0  0
    4.7678   -8.1659    0.8028 H   0  0  0  0  0  0  0  0  0  0  0  0
    4.5564   -6.1576    0.5775 H   0  0  0  0  0  0  0  0  0  0  0  0
    3.0329   -4.1852   -0.8767 H   0  0  0  0  0  0  0  0  0  0  0  0
    5.2886   -4.9519   -1.5872 H   0  0  0  0  0  0  0  0  0  0  0  0
    6.3340   -5.2645    0.6753 H   0  0  0  0  0  0  0  0  0  0  0  0
    7.3138   -4.2206   -0.3093 H   0  0  0  0  0  0  0  0  0  0  0  0
    7.0111   -3.2684    1.9686 H   0  0  0  0  0  0  0  0  0  0  0  0
    6.2654   -0.9898    1.2686 H   0  0  0  0  0  0  0  0  0  0  0  0
    7.2800   -1.7119    0.0433 H   0  0  0  0  0  0  0  0  0  0  0  0
    5.2317   -0.6967   -0.9842 H   0  0  0  0  0  0  0  0  0  0  0  0
    6.2408   -2.7082   -2.0794 H   0  0  0  0  0  0  0  0  0  0  0  0
    4.5083   -2.6969   -2.2940 H   0  0  0  0  0  0  0  0  0  0  0  0
    3.6929   -0.9876    0.9566 H   0  0  0  0  0  0  0  0  0  0  0  0
    3.0100   -1.6708   -0.4933 H   0  0  0  0  0  0  0  0  0  0  0  0
    2.7458   -3.2288    1.4299 H   0  0  0  0  0  0  0  0  0  0  0  0
    4.7903   -4.2709    2.4633 H   0  0  0  0  0  0  0  0  0  0  0  0
    4.7451   -2.5545    2.7459 H   0  0  0  0  0  0  0  0  0  0  0  0
    3.8977  -10.4265    1.3667 H   0  0  0  0  0  0  0  0  0  0  0  0
  1  2  2  3
  1 24  1  0
  2 23  1  0
  2  3  1  0
  3  4  2  0
  3 25  1  0
  4  5  1  0
  4 26  1  0
  5 22  1  0
  5  6  1  0
  6  7  1  0
  6 44  1  0
  7  8  2  0
  7 27  1  0
  8  9  1  0
  8 22  1  0
  9 10  2  0
  9 11  1  0
 11 12  1  0
 11 28  1  0
 12 20  1  0
 12 13  1  0
 12 29  1  6
 13 18  1  0
 13 14  1  0
 13 30  1  6
 14 15  1  0
 14 31  1  0
 14 32  1  0
 15 21  1  0
 15 16  1  0
 15 33  1  1
 16 17  1  0
 16 34  1  0
 16 35  1  0
 17 18  1  0
 17 19  1  0
 17 36  1  6
 18 37  1  0
 18 38  1  0
 19 20  1  0
 19 39  1  0
 19 40  1  0
 20 21  1  0
 20 41  1  1
 21 42  1  0
 21 43  1  0
 22 23  2  0
M  END
>  <i_m_ct_stereo_status>  (341) 
1

>  <s_m_source_file>  (341) 
/var/tmp/pbs.5076255.sched01/tmppj12hgr0/126t4bdxmoi.sdf

>  <i_m_source_file_index>  (341) 
29

>  <i_lp_mmshare_version>  (341) 
48012

>  <i_f3d_flags>  (341) 
0

>  <s_epik_input>  (341) 
W2NIXTFbY0hdL2MoPU5cW0hdKW5jKG4xMiljKFtjSF1bbkhdMilDKD1PKVtOSF1bQ0BIXShbQ0BIXTM0KVtDQEBIXTVbQ0gyXVtDQEhdKFtDSDJdNClbQ0gyXVtDQEhdKFtDSDJdMylbQ0gyXTU=

>  <s_epik_cmdline>  (341) 
J2VwaWtfcHl0aG9uJywgJy1waHQnLCAnMi4wJywgJy1waCcsICc3LjAnLCAnLXRuJywgJzgnLCAnLW1hJywgJzIwMCcsICctaW1hZScsICc8aW5maWxlLm1hZT4nLCAnLW9tYWUnLCAnPG91dGZpbGUubWFlPic=

>  <r_lp_tautomer_probability>  (341) 
1

>  <r_epik_Ionization_Penalty>  (341) 
17.7523

>  <r_epik_Ionization_Penalty_Charging>  (341) 
17.7523

>  <r_epik_Ionization_Penalty_Neutral>  (341) 
9.52446e-08

>  <r_epik_State_Penalty>  (341) 
-0

>  <r_epik_Charging_Adjusted_Penalty>  (341) 
17.7523

>  <i_epik_Tot_Q>  (341) 
0

>  <i_epik_Tot_abs_Q>  (341) 
0

>  <s_lp_Force_Field>  (341) 
OPLS3e

>  <r_lp_Energy>  (341) 
26.3248

>  <b_lp_Chiralities_Consistent>  (341) 
1

>  <s_lp_Variant>  (341) 
110:0-1

>  <s_i_glide_gridfile>  (341) 
pfpi4k_grid

>  <i_i_glide_lignum>  (341) 
29

>  <i_i_glide_rotatable_bonds>  (341) 
3

>  <r_i_docking_score>  (341) 
-4.41446

>  <r_i_glide_ligand_efficiency>  (341) 
-0.191933

>  <r_i_glide_ligand_efficiency_sa>  (341) 
-0.545832

>  <r_i_glide_ligand_efficiency_ln>  (341) 
-1.06746

>  <r_i_glide_gscore>  (341) 
-4.41446

>  <r_i_glide_lipo>  (341) 
-0.438404

>  <r_i_glide_hbond>  (341) 
-0.42651

>  <r_i_glide_metal>  (341) 
-0

>  <r_i_glide_rewards>  (341) 
-1.34266

>  <r_i_glide_evdw>  (341) 
-28.8712

>  <r_i_glide_ecoul>  (341) 
-8.21331

>  <r_i_glide_erotb>  (341) 
0.573786

>  <r_i_glide_esite>  (341) 
-0.105113

>  <r_i_glide_emodel>  (341) 
-49.396

>  <r_i_glide_energy>  (341) 
-37.0845

>  <r_i_glide_einternal>  (341) 
0.392379

>  <r_i_glide_intrahb_reward>  (341) 
-0

>  <i_i_glide_confnum>  (341) 
4

>  <i_i_glide_posenum>  (341) 
8

>  <r_i_glide_eff_state_penalty>  (341) 
0

>  <ligand_id>  (341) 
110

>  <original_smiles>  (341) 
N=c1ccn2[nH]cc(C(=O)NC3C4CC5CC(C4)CC3C5)c2n1

>  <smiles>  (341) 
[H]N=c1nc2c(C(=O)N([H])C3([H])C4([H])C([H])([H])C5([H])C([H])([H])C([H])(C4([H])[H])C([H])([H])C3([H])C5([H])[H])c([H])n([H])n2c([H])c1[H]

$$$$
110:0:1
     RDKit          3D

 44 48  0  0  1  0  0  0  0  0999 V2000
   -1.3847   -8.6759    3.6068 N   0  0  0  0  0  0  0  0  0  0  0  0
   -0.2179   -8.8774    3.1665 C   0  0  0  0  0  0  0  0  0  0  0  0
    0.4104  -10.2217    3.3698 C   0  0  0  0  0  0  0  0  0  0  0  0
    1.6549  -10.4192    2.8807 C   0  0  0  0  0  0  0  0  0  0  0  0
    2.3110   -9.4014    2.2142 N   0  0  0  0  0  0  0  0  0  0  0  0
    3.6215   -9.4110    1.7484 N   0  0  0  0  0  0  0  0  0  0  0  0
    3.8552   -8.1306    1.2929 C   0  0  0  0  0  0  0  0  0  0  0  0
    2.7671   -7.3507    1.4645 C   0  0  0  0  0  0  0  0  0  0  0  0
    2.5953   -5.9543    1.0893 C   0  0  0  0  0  0  0  0  0  0  0  0
    1.5236   -5.4608    0.7567 O   0  0  0  0  0  0  0  0  0  0  0  0
    3.7238   -5.2413    1.1783 N   0  0  0  0  0  0  0  0  0  0  0  0
    3.8205   -3.7811    1.0661 C   0  0  2  0  0  0  0  0  0  0  0  0
    3.7480   -3.3143   -0.4110 C   0  0  2  0  0  0  0  0  0  0  0  0
    4.9325   -3.9095   -1.2079 C   0  0  0  0  0  0  0  0  0  0  0  0
    6.2608   -3.4283   -0.5865 C   0  0  1  0  0  0  0  0  0  0  0  0
    6.3171   -1.8898   -0.6616 C   0  0  0  0  0  0  0  0  0  0  0  0
    5.1466   -1.2871    0.1391 C   0  0  1  0  0  0  0  0  0  0  0  0
    3.8144   -1.7712   -0.4690 C   0  0  0  0  0  0  0  0  0  0  0  0
    5.2368   -1.7444    1.6093 C   0  0  0  0  0  0  0  0  0  0  0  0
    5.1599   -3.2883    1.6741 C   0  0  2  0  0  0  0  0  0  0  0  0
    6.3446   -3.8928    0.8836 C   0  0  0  0  0  0  0  0  0  0  0  0
    1.7364   -8.1471    2.0885 C   0  0  0  0  0  0  0  0  0  0  0  0
    0.5334   -7.8461    2.4861 N   0  0  0  0  0  0  0  0  0  0  0  0
   -1.7677   -9.5020    4.0655 H   0  0  0  0  0  0  0  0  0  0  0  0
   -0.1531  -10.9827    3.8963 H   0  0  0  0  0  0  0  0  0  0  0  0
    2.2032  -11.3459    2.9546 H   0  0  0  0  0  0  0  0  0  0  0  0
    4.8131   -7.9085    0.8467 H   0  0  0  0  0  0  0  0  0  0  0  0
    4.5806   -5.7383    1.3763 H   0  0  0  0  0  0  0  0  0  0  0  0
    2.9949   -3.3313    1.6276 H   0  0  0  0  0  0  0  0  0  0  0  0
    2.8076   -3.6395   -0.8584 H   0  0  0  0  0  0  0  0  0  0  0  0
    4.8897   -4.9987   -1.2027 H   0  0  0  0  0  0  0  0  0  0  0  0
    4.8689   -3.6148   -2.2556 H   0  0  0  0  0  0  0  0  0  0  0  0
    7.0974   -3.8504   -1.1419 H   0  0  0  0  0  0  0  0  0  0  0  0
    7.2693   -1.5272   -0.2736 H   0  0  0  0  0  0  0  0  0  0  0  0
    6.2480   -1.5739   -1.7028 H   0  0  0  0  0  0  0  0  0  0  0  0
    5.1930   -0.1987    0.0899 H   0  0  0  0  0  0  0  0  0  0  0  0
    3.7172   -1.4287   -1.4998 H   0  0  0  0  0  0  0  0  0  0  0  0
    2.9788   -1.3329    0.0758 H   0  0  0  0  0  0  0  0  0  0  0  0
    6.1655   -1.3885    2.0577 H   0  0  0  0  0  0  0  0  0  0  0  0
    4.4298   -1.2976    2.1895 H   0  0  0  0  0  0  0  0  0  0  0  0
    5.2224   -3.5970    2.7182 H   0  0  0  0  0  0  0  0  0  0  0  0
    6.3196   -4.9813    0.9271 H   0  0  0  0  0  0  0  0  0  0  0  0
    7.2954   -3.6020    1.3313 H   0  0  0  0  0  0  0  0  0  0  0  0
    3.9627  -10.2175    1.2298 H   0  0  0  0  0  0  0  0  0  0  0  0
  1  2  2  3
  1 24  1  0
  2 23  1  0
  2  3  1  0
  3  4  2  0
  3 25  1  0
  4  5  1  0
  4 26  1  0
  5 22  1  0
  5  6  1  0
  6  7  1  0
  6 44  1  0
  7  8  2  0
  7 27  1  0
  8  9  1  0
  8 22  1  0
  9 10  2  0
  9 11  1  0
 11 12  1  0
 11 28  1  0
 12 20  1  0
 12 13  1  0
 12 29  1  1
 13 18  1  0
 13 14  1  0
 13 30  1  6
 14 15  1  0
 14 31  1  0
 14 32  1  0
 15 21  1  0
 15 16  1  0
 15 33  1  6
 16 17  1  0
 16 34  1  0
 16 35  1  0
 17 18  1  0
 17 19  1  0
 17 36  1  1
 18 37  1  0
 18 38  1  0
 19 20  1  0
 19 39  1  0
 19 40  1  0
 20 21  1  0
 20 41  1  1
 21 42  1  0
 21 43  1  0
 22 23  2  0
M  END
>  <i_m_ct_stereo_status>  (342) 
1

>  <s_m_source_file>  (342) 
/var/tmp/pbs.5076255.sched01/tmppj12hgr0/126t4bdxmoi.sdf

>  <i_m_source_file_index>  (342) 
29

>  <i_lp_mmshare_version>  (342) 
48012

>  <i_f3d_flags>  (342) 
0

>  <s_epik_input>  (342) 
W2NIXTFbY0hdL2MoPU5cW0hdKW5jKG4xMiljKFtjSF1bbkhdMilDKD1PKVtOSF1bQ0BIXShbQ0BIXTM0KVtDQEBIXTVbQ0gyXVtDQEhdKFtDSDJdNClbQ0gyXVtDQEhdKFtDSDJdMylbQ0gyXTU=

>  <s_epik_cmdline>  (342) 
J2VwaWtfcHl0aG9uJywgJy1waHQnLCAnMi4wJywgJy1waCcsICc3LjAnLCAnLXRuJywgJzgnLCAnLW1hJywgJzIwMCcsICctaW1hZScsICc8aW5maWxlLm1hZT4nLCAnLW9tYWUnLCAnPG91dGZpbGUubWFlPic=

>  <r_lp_tautomer_probability>  (342) 
1

>  <r_epik_Ionization_Penalty>  (342) 
17.7523

>  <r_epik_Ionization_Penalty_Charging>  (342) 
17.7523

>  <r_epik_Ionization_Penalty_Neutral>  (342) 
9.52446e-08

>  <r_epik_State_Penalty>  (342) 
-0

>  <r_epik_Charging_Adjusted_Penalty>  (342) 
17.7523

>  <i_epik_Tot_Q>  (342) 
0

>  <i_epik_Tot_abs_Q>  (342) 
0

>  <s_lp_Force_Field>  (342) 
OPLS3e

>  <r_lp_Energy>  (342) 
26.3248

>  <b_lp_Chiralities_Consistent>  (342) 
1

>  <s_lp_Variant>  (342) 
110:0-1

>  <s_i_glide_gridfile>  (342) 
pfpi4k_grid

>  <i_i_glide_lignum>  (342) 
29

>  <i_i_glide_rotatable_bonds>  (342) 
3

>  <r_i_docking_score>  (342) 
-4.40738

>  <r_i_glide_ligand_efficiency>  (342) 
-0.191625

>  <r_i_glide_ligand_efficiency_sa>  (342) 
-0.544957

>  <r_i_glide_ligand_efficiency_ln>  (342) 
-1.06574

>  <r_i_glide_gscore>  (342) 
-4.40738

>  <r_i_glide_lipo>  (342) 
-0.529026

>  <r_i_glide_hbond>  (342) 
-0.393763

>  <r_i_glide_metal>  (342) 
-0

>  <r_i_glide_rewards>  (342) 
-1.34438

>  <r_i_glide_evdw>  (342) 
-30.2073

>  <r_i_glide_ecoul>  (342) 
-7.36502

>  <r_i_glide_erotb>  (342) 
0.573786

>  <r_i_glide_esite>  (342) 
-0.0988778

>  <r_i_glide_emodel>  (342) 
-48.629

>  <r_i_glide_energy>  (342) 
-37.5723

>  <r_i_glide_einternal>  (342) 
2.55641

>  <r_i_glide_intrahb_reward>  (342) 
-0

>  <i_i_glide_confnum>  (342) 
1

>  <i_i_glide_posenum>  (342) 
35

>  <r_i_glide_eff_state_penalty>  (342) 
0

>  <ligand_id>  (342) 
110

>  <original_smiles>  (342) 
N=c1ccn2[nH]cc(C(=O)NC3C4CC5CC(C4)CC3C5)c2n1

>  <smiles>  (342) 
[H]N=c1nc2c(C(=O)N([H])C3([H])C4([H])C([H])([H])C5([H])C([H])([H])C([H])(C4([H])[H])C([H])([H])C3([H])C5([H])[H])c([H])n([H])n2c([H])c1[H]

$$$$
110:0:2
     RDKit          3D

 44 48  0  0  1  0  0  0  0  0999 V2000
   -1.4173    0.5781    6.9957 N   0  0  0  0  0  0  0  0  0  0  0  0
   -1.0985    0.9313    5.8303 C   0  0  0  0  0  0  0  0  0  0  0  0
   -1.6903    2.1849    5.2661 C   0  0  0  0  0  0  0  0  0  0  0  0
   -1.3148    2.5531    4.0211 C   0  0  0  0  0  0  0  0  0  0  0  0
   -0.3943    1.7954    3.3263 N   0  0  0  0  0  0  0  0  0  0  0  0
    0.0058    1.9701    2.0279 N   0  0  0  0  0  0  0  0  0  0  0  0
    0.8102    0.9060    1.7190 C   0  0  0  0  0  0  0  0  0  0  0  0
    0.8997    0.0545    2.7628 C   0  0  0  0  0  0  0  0  0  0  0  0
    1.6582   -1.1918    2.8386 C   0  0  0  0  0  0  0  0  0  0  0  0
    1.8096   -1.8640    3.8532 O   0  0  0  0  0  0  0  0  0  0  0  0
    2.2348   -1.5314    1.6752 N   0  0  0  0  0  0  0  0  0  0  0  0
    3.1977   -2.6221    1.5069 C   0  0  2  0  0  0  0  0  0  0  0  0
    4.6272   -2.1896    1.9374 C   0  0  2  0  0  0  0  0  0  0  0  0
    5.1206   -1.0183    1.0520 C   0  0  0  0  0  0  0  0  0  0  0  0
    5.1446   -1.4712   -0.4244 C   0  0  1  0  0  0  0  0  0  0  0  0
    6.1146   -2.6634   -0.5746 C   0  0  0  0  0  0  0  0  0  0  0  0
    5.6228   -3.8355    0.3036 C   0  0  1  0  0  0  0  0  0  0  0  0
    5.5893   -3.3883    1.7786 C   0  0  0  0  0  0  0  0  0  0  0  0
    4.2058   -4.2593   -0.1321 C   0  0  0  0  0  0  0  0  0  0  0  0
    3.2403   -3.0658    0.0257 C   0  0  2  0  0  0  0  0  0  0  0  0
    3.7244   -1.8932   -0.8576 C   0  0  0  0  0  0  0  0  0  0  0  0
    0.0898    0.5998    3.8334 C   0  0  0  0  0  0  0  0  0  0  0  0
   -0.1903    0.1521    5.0238 N   0  0  0  0  0  0  0  0  0  0  0  0
   -2.0322    1.2570    7.4294 H   0  0  0  0  0  0  0  0  0  0  0  0
   -2.3941    2.7314    5.8737 H   0  0  0  0  0  0  0  0  0  0  0  0
   -1.6746    3.4307    3.5023 H   0  0  0  0  0  0  0  0  0  0  0  0
    1.2390    0.8735    0.7333 H   0  0  0  0  0  0  0  0  0  0  0  0
    2.0160   -0.9832    0.8503 H   0  0  0  0  0  0  0  0  0  0  0  0
    2.8776   -3.4694    2.1219 H   0  0  0  0  0  0  0  0  0  0  0  0
    4.6239   -1.8775    2.9837 H   0  0  0  0  0  0  0  0  0  0  0  0
    4.4752   -0.1467    1.1669 H   0  0  0  0  0  0  0  0  0  0  0  0
    6.1146   -0.6980    1.3668 H   0  0  0  0  0  0  0  0  0  0  0  0
    5.4743   -0.6448   -1.0522 H   0  0  0  0  0  0  0  0  0  0  0  0
    6.1832   -2.9743   -1.6174 H   0  0  0  0  0  0  0  0  0  0  0  0
    7.1184   -2.3668   -0.2694 H   0  0  0  0  0  0  0  0  0  0  0  0
    6.3042   -4.6792    0.1933 H   0  0  0  0  0  0  0  0  0  0  0  0
    6.5941   -3.1117    2.0930 H   0  0  0  0  0  0  0  0  0  0  0  0
    5.2779   -4.2143    2.4189 H   0  0  0  0  0  0  0  0  0  0  0  0
    4.2164   -4.5973   -1.1668 H   0  0  0  0  0  0  0  0  0  0  0  0
    3.8658   -5.1069    0.4625 H   0  0  0  0  0  0  0  0  0  0  0  0
    2.2404   -3.3693   -0.2856 H   0  0  0  0  0  0  0  0  0  0  0  0
    3.0434   -1.0478   -0.7696 H   0  0  0  0  0  0  0  0  0  0  0  0
    3.7011   -2.1771   -1.9090 H   0  0  0  0  0  0  0  0  0  0  0  0
    0.1820    2.9053    1.6352 H   0  0  0  0  0  0  0  0  0  0  0  0
  1  2  2  3
  1 24  1  0
  2 23  1  0
  2  3  1  0
  3  4  2  0
  3 25  1  0
  4  5  1  0
  4 26  1  0
  5 22  1  0
  5  6  1  0
  6  7  1  0
  6 44  1  0
  7  8  2  0
  7 27  1  0
  8  9  1  0
  8 22  1  0
  9 10  2  0
  9 11  1  0
 11 12  1  0
 11 28  1  0
 12 20  1  0
 12 13  1  0
 12 29  1  1
 13 18  1  0
 13 14  1  0
 13 30  1  1
 14 15  1  0
 14 31  1  0
 14 32  1  0
 15 21  1  0
 15 16  1  0
 15 33  1  6
 16 17  1  0
 16 34  1  0
 16 35  1  0
 17 18  1  0
 17 19  1  0
 17 36  1  1
 18 37  1  0
 18 38  1  0
 19 20  1  0
 19 39  1  0
 19 40  1  0
 20 21  1  0
 20 41  1  6
 21 42  1  0
 21 43  1  0
 22 23  2  0
M  END
>  <i_m_ct_stereo_status>  (343) 
1

>  <s_m_source_file>  (343) 
/var/tmp/pbs.5076255.sched01/tmppj12hgr0/126t4bdxmoi.sdf

>  <i_m_source_file_index>  (343) 
29

>  <i_lp_mmshare_version>  (343) 
48012

>  <i_f3d_flags>  (343) 
0

>  <s_epik_input>  (343) 
W2NIXTFbY0hdL2MoPU5cW0hdKW5jKG4xMiljKFtjSF1bbkhdMilDKD1PKVtOSF1bQ0BIXShbQ0BIXTM0KVtDQEBIXTVbQ0gyXVtDQEhdKFtDSDJdNClbQ0gyXVtDQEhdKFtDSDJdMylbQ0gyXTU=

>  <s_epik_cmdline>  (343) 
J2VwaWtfcHl0aG9uJywgJy1waHQnLCAnMi4wJywgJy1waCcsICc3LjAnLCAnLXRuJywgJzgnLCAnLW1hJywgJzIwMCcsICctaW1hZScsICc8aW5maWxlLm1hZT4nLCAnLW9tYWUnLCAnPG91dGZpbGUubWFlPic=

>  <r_lp_tautomer_probability>  (343) 
1

>  <r_epik_Ionization_Penalty>  (343) 
17.7523

>  <r_epik_Ionization_Penalty_Charging>  (343) 
17.7523

>  <r_epik_Ionization_Penalty_Neutral>  (343) 
9.52446e-08

>  <r_epik_State_Penalty>  (343) 
-0

>  <r_epik_Charging_Adjusted_Penalty>  (343) 
17.7523

>  <i_epik_Tot_Q>  (343) 
0

>  <i_epik_Tot_abs_Q>  (343) 
0

>  <s_lp_Force_Field>  (343) 
OPLS3e

>  <r_lp_Energy>  (343) 
26.3248

>  <b_lp_Chiralities_Consistent>  (343) 
1

>  <s_lp_Variant>  (343) 
110:0-1

>  <s_i_glide_gridfile>  (343) 
pfpi4k_grid

>  <i_i_glide_lignum>  (343) 
29

>  <i_i_glide_rotatable_bonds>  (343) 
3

>  <r_i_docking_score>  (343) 
-4.01685

>  <r_i_glide_ligand_efficiency>  (343) 
-0.174646

>  <r_i_glide_ligand_efficiency_sa>  (343) 
-0.496669

>  <r_i_glide_ligand_efficiency_ln>  (343) 
-0.971311

>  <r_i_glide_gscore>  (343) 
-4.01685

>  <r_i_glide_lipo>  (343) 
-0.258857

>  <r_i_glide_hbond>  (343) 
-0.416556

>  <r_i_glide_metal>  (343) 
-0

>  <r_i_glide_rewards>  (343) 
-1.28603

>  <r_i_glide_evdw>  (343) 
-24.0794

>  <r_i_glide_ecoul>  (343) 
-7.99346

>  <r_i_glide_erotb>  (343) 
0.573786

>  <r_i_glide_esite>  (343) 
-0.226198

>  <r_i_glide_emodel>  (343) 
-43.29

>  <r_i_glide_energy>  (343) 
-32.0729

>  <r_i_glide_einternal>  (343) 
0.288144

>  <r_i_glide_intrahb_reward>  (343) 
-0

>  <i_i_glide_confnum>  (343) 
1

>  <i_i_glide_posenum>  (343) 
16

>  <r_i_glide_eff_state_penalty>  (343) 
0

>  <ligand_id>  (343) 
110

>  <original_smiles>  (343) 
N=c1ccn2[nH]cc(C(=O)NC3C4CC5CC(C4)CC3C5)c2n1

>  <smiles>  (343) 
[H]N=c1nc2c(C(=O)N([H])C3([H])C4([H])C([H])([H])C5([H])C([H])([H])C([H])(C4([H])[H])C([H])([H])C3([H])C5([H])[H])c([H])n([H])n2c([H])c1[H]

$$$$
110:1:0
     RDKit          3D

 44 48  0  0  1  0  0  0  0  0999 V2000
    6.0967   -2.0774   -1.0089 N   0  0  0  0  0  0  0  0  0  0  0  0
    6.3558   -3.1519   -0.3997 C   0  0  0  0  0  0  0  0  0  0  0  0
    7.7774   -3.4759   -0.0918 C   0  0  0  0  0  0  0  0  0  0  0  0
    8.0414   -4.6379    0.5463 C   0  0  0  0  0  0  0  0  0  0  0  0
    7.0099   -5.4990    0.8816 N   0  0  0  0  0  0  0  0  0  0  0  0
    7.1055   -6.6628    1.6175 N   0  0  0  0  0  0  0  0  0  0  0  0
    5.8102   -7.0994    1.7889 C   0  0  0  0  0  0  0  0  0  0  0  0
    4.9271   -6.2409    1.2237 C   0  0  0  0  0  0  0  0  0  0  0  0
    3.4653   -6.3380    1.2081 C   0  0  0  0  0  0  0  0  0  0  0  0
    2.7024   -5.5107    0.7025 O   0  0  0  0  0  0  0  0  0  0  0  0
    3.0019   -7.4327    1.8196 N   0  0  0  0  0  0  0  0  0  0  0  0
    1.5928   -7.6952    2.1062 C   0  0  2  0  0  0  0  0  0  0  0  0
    1.0877   -6.7917    3.2666 C   0  0  2  0  0  0  0  0  0  0  0  0
    1.8793   -7.1024    4.5615 C   0  0  0  0  0  0  0  0  0  0  0  0
    1.6794   -8.5857    4.9405 C   0  0  1  0  0  0  0  0  0  0  0  0
    0.1779   -8.8406    5.1857 C   0  0  0  0  0  0  0  0  0  0  0  0
   -0.6124   -8.5372    3.8959 C   0  0  1  0  0  0  0  0  0  0  0  0
   -0.4143   -7.0590    3.5043 C   0  0  0  0  0  0  0  0  0  0  0  0
   -0.1049   -9.4441    2.7579 C   0  0  0  0  0  0  0  0  0  0  0  0
    1.3943   -9.1764    2.5052 C   0  0  2  0  0  0  0  0  0  0  0  0
    2.1928   -9.4853    3.7937 C   0  0  0  0  0  0  0  0  0  0  0  0
    5.6851   -5.1581    0.6384 C   0  0  0  0  0  0  0  0  0  0  0  0
    5.3197   -4.0724    0.0193 N   0  0  0  0  0  0  0  0  0  0  0  0
    5.0945   -2.0078   -1.1271 H   0  0  0  0  0  0  0  0  0  0  0  0
    8.5296   -2.7610   -0.3993 H   0  0  0  0  0  0  0  0  0  0  0  0
    9.0269   -4.9808    0.8105 H   0  0  0  0  0  0  0  0  0  0  0  0
    5.6565   -8.0196    2.3326 H   0  0  0  0  0  0  0  0  0  0  0  0
    3.6761   -8.0670    2.2260 H   0  0  0  0  0  0  0  0  0  0  0  0
    1.0148   -7.4911    1.1984 H   0  0  0  0  0  0  0  0  0  0  0  0
    1.2192   -5.7391    3.0097 H   0  0  0  0  0  0  0  0  0  0  0  0
    2.9399   -6.8895    4.4324 H   0  0  0  0  0  0  0  0  0  0  0  0
    1.5426   -6.4574    5.3738 H   0  0  0  0  0  0  0  0  0  0  0  0
    2.2383   -8.8111    5.8474 H   0  0  0  0  0  0  0  0  0  0  0  0
    0.0095   -9.8721    5.4984 H   0  0  0  0  0  0  0  0  0  0  0  0
   -0.1793   -8.2098    5.9991 H   0  0  0  0  0  0  0  0  0  0  0  0
   -1.6708   -8.7328    4.0685 H   0  0  0  0  0  0  0  0  0  0  0  0
   -0.7918   -6.4070    4.2910 H   0  0  0  0  0  0  0  0  0  0  0  0
   -0.9854   -6.8344    2.6053 H   0  0  0  0  0  0  0  0  0  0  0  0
   -0.2597  -10.4912    3.0111 H   0  0  0  0  0  0  0  0  0  0  0  0
   -0.6846   -9.2580    1.8539 H   0  0  0  0  0  0  0  0  0  0  0  0
    1.7397   -9.8180    1.6921 H   0  0  0  0  0  0  0  0  0  0  0  0
    3.2589   -9.3168    3.6384 H   0  0  0  0  0  0  0  0  0  0  0  0
    2.0962  -10.5397    4.0530 H   0  0  0  0  0  0  0  0  0  0  0  0
    7.8415   -7.3248    1.4098 H   0  0  0  0  0  0  0  0  0  0  0  0
  1  2  2  3
  1 24  1  0
  2 23  1  0
  2  3  1  0
  3  4  2  0
  3 25  1  0
  4  5  1  0
  4 26  1  0
  5 22  1  0
  5  6  1  0
  6  7  1  0
  6 44  1  0
  7  8  2  0
  7 27  1  0
  8  9  1  0
  8 22  1  0
  9 10  2  0
  9 11  1  0
 11 12  1  0
 11 28  1  0
 12 20  1  0
 12 13  1  0
 12 29  1  6
 13 18  1  0
 13 14  1  0
 13 30  1  6
 14 15  1  0
 14 31  1  0
 14 32  1  0
 15 21  1  0
 15 16  1  0
 15 33  1  1
 16 17  1  0
 16 34  1  0
 16 35  1  0
 17 18  1  0
 17 19  1  0
 17 36  1  1
 18 37  1  0
 18 38  1  0
 19 20  1  0
 19 39  1  0
 19 40  1  0
 20 21  1  0
 20 41  1  6
 21 42  1  0
 21 43  1  0
 22 23  2  0
M  END
>  <i_m_ct_stereo_status>  (344) 
1

>  <s_m_source_file>  (344) 
/var/tmp/pbs.5076255.sched01/tmppj12hgr0/126t4bdxmoi.sdf

>  <i_m_source_file_index>  (344) 
30

>  <i_lp_mmshare_version>  (344) 
48012

>  <i_f3d_flags>  (344) 
0

>  <s_epik_input>  (344) 
W2NIXTFbY0hdL2MoPU5cW0hdKW5jKG4xMiljKFtjSF1bbkhdMilDKD1PKVtOSF1bQ0BIXShbQ0BIXTM0KVtDQEBIXTVbQ0gyXVtDQEhdKFtDSDJdNClbQ0gyXVtDQEhdKFtDSDJdMylbQ0gyXTU=

>  <s_epik_cmdline>  (344) 
J2VwaWtfcHl0aG9uJywgJy1waHQnLCAnMi4wJywgJy1waCcsICc3LjAnLCAnLXRuJywgJzgnLCAnLW1hJywgJzIwMCcsICctaW1hZScsICc8aW5maWxlLm1hZT4nLCAnLW9tYWUnLCAnPG91dGZpbGUubWFlPic=

>  <r_lp_tautomer_probability>  (344) 
1

>  <r_epik_Ionization_Penalty>  (344) 
17.7523

>  <r_epik_Ionization_Penalty_Charging>  (344) 
17.7523

>  <r_epik_Ionization_Penalty_Neutral>  (344) 
9.52446e-08

>  <r_epik_State_Penalty>  (344) 
-0

>  <r_epik_Charging_Adjusted_Penalty>  (344) 
17.7523

>  <i_epik_Tot_Q>  (344) 
0

>  <i_epik_Tot_abs_Q>  (344) 
0

>  <s_lp_Force_Field>  (344) 
OPLS3e

>  <r_lp_Energy>  (344) 
23.6538

>  <b_lp_Chiralities_Consistent>  (344) 
1

>  <s_lp_Variant>  (344) 
110:0-2

>  <s_i_glide_gridfile>  (344) 
pfpi4k_grid

>  <i_i_glide_lignum>  (344) 
30

>  <i_i_glide_rotatable_bonds>  (344) 
3

>  <r_i_docking_score>  (344) 
-3.35005

>  <r_i_glide_ligand_efficiency>  (344) 
-0.145654

>  <r_i_glide_ligand_efficiency_sa>  (344) 
-0.414222

>  <r_i_glide_ligand_efficiency_ln>  (344) 
-0.810073

>  <r_i_glide_gscore>  (344) 
-3.35005

>  <r_i_glide_lipo>  (344) 
-0.631975

>  <r_i_glide_hbond>  (344) 
-0.0450098

>  <r_i_glide_metal>  (344) 
-0

>  <r_i_glide_rewards>  (344) 
-1.6178

>  <r_i_glide_evdw>  (344) 
-30.1029

>  <r_i_glide_ecoul>  (344) 
-0.826057

>  <r_i_glide_erotb>  (344) 
0.573786

>  <r_i_glide_esite>  (344) 
0

>  <r_i_glide_emodel>  (344) 
-37.792

>  <r_i_glide_energy>  (344) 
-30.929

>  <r_i_glide_einternal>  (344) 
0.138576

>  <r_i_glide_intrahb_reward>  (344) 
-0

>  <i_i_glide_confnum>  (344) 
5

>  <i_i_glide_posenum>  (344) 
5

>  <r_i_glide_eff_state_penalty>  (344) 
0

>  <ligand_id>  (344) 
110

>  <original_smiles>  (344) 
N=c1ccn2[nH]cc(C(=O)NC3C4CC5CC(C4)CC3C5)c2n1

>  <smiles>  (344) 
[H]N=c1nc2c(C(=O)N([H])C3([H])C4([H])C([H])([H])C5([H])C([H])([H])C([H])(C4([H])[H])C([H])([H])C3([H])C5([H])[H])c([H])n([H])n2c([H])c1[H]

$$$$
110:1:1
     RDKit          3D

 44 48  0  0  1  0  0  0  0  0999 V2000
    3.0671   -2.2006   -3.6997 N   0  0  0  0  0  0  0  0  0  0  0  0
    3.4203   -2.3029   -2.4907 C   0  0  0  0  0  0  0  0  0  0  0  0
    4.3544   -1.2856   -1.9294 C   0  0  0  0  0  0  0  0  0  0  0  0
    4.7605   -1.4365   -0.6487 C   0  0  0  0  0  0  0  0  0  0  0  0
    4.3215   -2.5173    0.0994 N   0  0  0  0  0  0  0  0  0  0  0  0
    4.5575   -2.7575    1.4385 N   0  0  0  0  0  0  0  0  0  0  0  0
    3.8238   -3.8842    1.7467 C   0  0  0  0  0  0  0  0  0  0  0  0
    3.1232   -4.3157    0.6737 C   0  0  0  0  0  0  0  0  0  0  0  0
    2.2140   -5.4596    0.5990 C   0  0  0  0  0  0  0  0  0  0  0  0
    1.3885   -5.6528   -0.2931 O   0  0  0  0  0  0  0  0  0  0  0  0
    2.3439   -6.3031    1.6294 N   0  0  0  0  0  0  0  0  0  0  0  0
    1.5231   -7.4939    1.8441 C   0  0  2  0  0  0  0  0  0  0  0  0
    0.1707   -7.1107    2.4965 C   0  0  2  0  0  0  0  0  0  0  0  0
    0.4217   -6.4699    3.8846 C   0  0  0  0  0  0  0  0  0  0  0  0
    1.1651   -7.4807    4.7847 C   0  0  1  0  0  0  0  0  0  0  0  0
    0.2901   -8.7422    4.9506 C   0  0  0  0  0  0  0  0  0  0  0  0
    0.0450   -9.3814    3.5658 C   0  0  1  0  0  0  0  0  0  0  0  0
   -0.6942   -8.3764    2.6590 C   0  0  0  0  0  0  0  0  0  0  0  0
    1.3955   -9.7661    2.9267 C   0  0  0  0  0  0  0  0  0  0  0  0
    2.2614   -8.5000    2.7555 C   0  0  2  0  0  0  0  0  0  0  0  0
    2.5182   -7.8553    4.1375 C   0  0  0  0  0  0  0  0  0  0  0  0
    3.4034   -3.4164   -0.4215 C   0  0  0  0  0  0  0  0  0  0  0  0
    2.9497   -3.3729   -1.6390 N   0  0  0  0  0  0  0  0  0  0  0  0
    2.4138   -2.9413   -3.9133 H   0  0  0  0  0  0  0  0  0  0  0  0
    4.6481   -0.4693   -2.5708 H   0  0  0  0  0  0  0  0  0  0  0  0
    5.4303   -0.7611   -0.1399 H   0  0  0  0  0  0  0  0  0  0  0  0
    3.8762   -4.2595    2.7572 H   0  0  0  0  0  0  0  0  0  0  0  0
    3.0143   -6.0707    2.3487 H   0  0  0  0  0  0  0  0  0  0  0  0
    1.3350   -7.9776    0.8834 H   0  0  0  0  0  0  0  0  0  0  0  0
   -0.3575   -6.4081    1.8516 H   0  0  0  0  0  0  0  0  0  0  0  0
    1.0057   -5.5533    3.7913 H   0  0  0  0  0  0  0  0  0  0  0  0
   -0.5227   -6.1787    4.3438 H   0  0  0  0  0  0  0  0  0  0  0  0
    1.3483   -7.0324    5.7612 H   0  0  0  0  0  0  0  0  0  0  0  0
    0.7671   -9.4570    5.6226 H   0  0  0  0  0  0  0  0  0  0  0  0
   -0.6630   -8.4793    5.4104 H   0  0  0  0  0  0  0  0  0  0  0  0
   -0.5687  -10.2735    3.6789 H   0  0  0  0  0  0  0  0  0  0  0  0
   -1.6630   -8.1228    3.0891 H   0  0  0  0  0  0  0  0  0  0  0  0
   -0.8977   -8.8269    1.6867 H   0  0  0  0  0  0  0  0  0  0  0  0
    1.9122  -10.4962    3.5486 H   0  0  0  0  0  0  0  0  0  0  0  0
    1.2282  -10.2502    1.9652 H   0  0  0  0  0  0  0  0  0  0  0  0
    3.2097   -8.7796    2.2940 H   0  0  0  0  0  0  0  0  0  0  0  0
    3.1416   -6.9658    4.0393 H   0  0  0  0  0  0  0  0  0  0  0  0
    3.0780   -8.5395    4.7744 H   0  0  0  0  0  0  0  0  0  0  0  0
    5.4954   -2.6620    1.8015 H   0  0  0  0  0  0  0  0  0  0  0  0
  1  2  2  3
  1 24  1  0
  2 23  1  0
  2  3  1  0
  3  4  2  0
  3 25  1  0
  4  5  1  0
  4 26  1  0
  5 22  1  0
  5  6  1  0
  6  7  1  0
  6 44  1  0
  7  8  2  0
  7 27  1  0
  8  9  1  0
  8 22  1  0
  9 10  2  0
  9 11  1  0
 11 12  1  0
 11 28  1  0
 12 20  1  0
 12 13  1  0
 12 29  1  6
 13 18  1  0
 13 14  1  0
 13 30  1  6
 14 15  1  0
 14 31  1  0
 14 32  1  0
 15 21  1  0
 15 16  1  0
 15 33  1  1
 16 17  1  0
 16 34  1  0
 16 35  1  0
 17 18  1  0
 17 19  1  0
 17 36  1  1
 18 37  1  0
 18 38  1  0
 19 20  1  0
 19 39  1  0
 19 40  1  0
 20 21  1  0
 20 41  1  6
 21 42  1  0
 21 43  1  0
 22 23  2  0
M  END
>  <i_m_ct_stereo_status>  (345) 
1

>  <s_m_source_file>  (345) 
/var/tmp/pbs.5076255.sched01/tmppj12hgr0/126t4bdxmoi.sdf

>  <i_m_source_file_index>  (345) 
30

>  <i_lp_mmshare_version>  (345) 
48012

>  <i_f3d_flags>  (345) 
0

>  <s_epik_input>  (345) 
W2NIXTFbY0hdL2MoPU5cW0hdKW5jKG4xMiljKFtjSF1bbkhdMilDKD1PKVtOSF1bQ0BIXShbQ0BIXTM0KVtDQEBIXTVbQ0gyXVtDQEhdKFtDSDJdNClbQ0gyXVtDQEhdKFtDSDJdMylbQ0gyXTU=

>  <s_epik_cmdline>  (345) 
J2VwaWtfcHl0aG9uJywgJy1waHQnLCAnMi4wJywgJy1waCcsICc3LjAnLCAnLXRuJywgJzgnLCAnLW1hJywgJzIwMCcsICctaW1hZScsICc8aW5maWxlLm1hZT4nLCAnLW9tYWUnLCAnPG91dGZpbGUubWFlPic=

>  <r_lp_tautomer_probability>  (345) 
1

>  <r_epik_Ionization_Penalty>  (345) 
17.7523

>  <r_epik_Ionization_Penalty_Charging>  (345) 
17.7523

>  <r_epik_Ionization_Penalty_Neutral>  (345) 
9.52446e-08

>  <r_epik_State_Penalty>  (345) 
-0

>  <r_epik_Charging_Adjusted_Penalty>  (345) 
17.7523

>  <i_epik_Tot_Q>  (345) 
0

>  <i_epik_Tot_abs_Q>  (345) 
0

>  <s_lp_Force_Field>  (345) 
OPLS3e

>  <r_lp_Energy>  (345) 
23.6538

>  <b_lp_Chiralities_Consistent>  (345) 
1

>  <s_lp_Variant>  (345) 
110:0-2

>  <s_i_glide_gridfile>  (345) 
pfpi4k_grid

>  <i_i_glide_lignum>  (345) 
30

>  <i_i_glide_rotatable_bonds>  (345) 
3

>  <r_i_docking_score>  (345) 
-3.19631

>  <r_i_glide_ligand_efficiency>  (345) 
-0.13897

>  <r_i_glide_ligand_efficiency_sa>  (345) 
-0.395212

>  <r_i_glide_ligand_efficiency_ln>  (345) 
-0.772897

>  <r_i_glide_gscore>  (345) 
-3.19631

>  <r_i_glide_lipo>  (345) 
-0.0729909

>  <r_i_glide_hbond>  (345) 
-0.364536

>  <r_i_glide_metal>  (345) 
-0

>  <r_i_glide_rewards>  (345) 
-1.34586

>  <r_i_glide_evdw>  (345) 
-32.1283

>  <r_i_glide_ecoul>  (345) 
-2.02932

>  <r_i_glide_erotb>  (345) 
0.573786

>  <r_i_glide_esite>  (345) 
-0.075899

>  <r_i_glide_emodel>  (345) 
-40.4603

>  <r_i_glide_energy>  (345) 
-34.1577

>  <r_i_glide_einternal>  (345) 
0.480679

>  <r_i_glide_intrahb_reward>  (345) 
-0

>  <i_i_glide_confnum>  (345) 
1

>  <i_i_glide_posenum>  (345) 
20

>  <r_i_glide_eff_state_penalty>  (345) 
0

>  <ligand_id>  (345) 
110

>  <original_smiles>  (345) 
N=c1ccn2[nH]cc(C(=O)NC3C4CC5CC(C4)CC3C5)c2n1

>  <smiles>  (345) 
[H]N=c1nc2c(C(=O)N([H])C3([H])C4([H])C([H])([H])C5([H])C([H])([H])C([H])(C4([H])[H])C([H])([H])C3([H])C5([H])[H])c([H])n([H])n2c([H])c1[H]

$$$$
110:1:2
     RDKit          3D

 44 48  0  0  1  0  0  0  0  0999 V2000
    3.8709   -1.4145   -1.7074 N   0  0  0  0  0  0  0  0  0  0  0  0
    4.4209   -2.3809   -1.1147 C   0  0  0  0  0  0  0  0  0  0  0  0
    5.9051   -2.3808   -0.9769 C   0  0  0  0  0  0  0  0  0  0  0  0
    6.4923   -3.4305   -0.3618 C   0  0  0  0  0  0  0  0  0  0  0  0
    5.7165   -4.4776    0.1071 N   0  0  0  0  0  0  0  0  0  0  0  0
    6.1412   -5.5567    0.8575 N   0  0  0  0  0  0  0  0  0  0  0  0
    4.9966   -6.2457    1.1914 C   0  0  0  0  0  0  0  0  0  0  0  0
    3.8947   -5.6197    0.7209 C   0  0  0  0  0  0  0  0  0  0  0  0
    2.4973   -6.0233    0.8769 C   0  0  0  0  0  0  0  0  0  0  0  0
    1.5355   -5.4852    0.3256 O   0  0  0  0  0  0  0  0  0  0  0  0
    2.3366   -7.0715    1.6877 N   0  0  0  0  0  0  0  0  0  0  0  0
    1.0461   -7.5767    2.1487 C   0  0  2  0  0  0  0  0  0  0  0  0
    0.4873   -6.6767    3.2854 C   0  0  2  0  0  0  0  0  0  0  0  0
    1.4507   -6.6956    4.4985 C   0  0  0  0  0  0  0  0  0  0  0  0
    1.5997   -8.1439    5.0127 C   0  0  1  0  0  0  0  0  0  0  0  0
    0.2146   -8.6627    5.4518 C   0  0  0  0  0  0  0  0  0  0  0  0
   -0.7421   -8.6461    4.2398 C   0  0  1  0  0  0  0  0  0  0  0  0
   -0.8965   -7.2049    3.7186 C   0  0  0  0  0  0  0  0  0  0  0  0
   -0.1810   -9.5487    3.1214 C   0  0  0  0  0  0  0  0  0  0  0  0
    1.1991   -9.0202    2.6796 C   0  0  2  0  0  0  0  0  0  0  0  0
    2.1688   -9.0353    3.8856 C   0  0  0  0  0  0  0  0  0  0  0  0
    4.3297   -4.4323    0.0280 C   0  0  0  0  0  0  0  0  0  0  0  0
    3.6646   -3.4764   -0.5513 N   0  0  0  0  0  0  0  0  0  0  0  0
    2.8633   -1.5259   -1.6903 H   0  0  0  0  0  0  0  0  0  0  0  0
    6.4378   -1.5298   -1.3708 H   0  0  0  0  0  0  0  0  0  0  0  0
    7.5554   -3.5344   -0.2151 H   0  0  0  0  0  0  0  0  0  0  0  0
    5.1014   -7.1605    1.7540 H   0  0  0  0  0  0  0  0  0  0  0  0
    3.1617   -7.4749    2.1079 H   0  0  0  0  0  0  0  0  0  0  0  0
    0.3485   -7.5846    1.3042 H   0  0  0  0  0  0  0  0  0  0  0  0
    0.3802   -5.6504    2.9320 H   0  0  0  0  0  0  0  0  0  0  0  0
    2.4262   -6.2930    4.2277 H   0  0  0  0  0  0  0  0  0  0  0  0
    1.0721   -6.0502    5.2918 H   0  0  0  0  0  0  0  0  0  0  0  0
    2.2812   -8.1620    5.8625 H   0  0  0  0  0  0  0  0  0  0  0  0
    0.2930   -9.6708    5.8631 H   0  0  0  0  0  0  0  0  0  0  0  0
   -0.1784   -8.0348    6.2509 H   0  0  0  0  0  0  0  0  0  0  0  0
   -1.7170   -9.0204    4.5462 H   0  0  0  0  0  0  0  0  0  0  0  0
   -1.3192   -6.5692    4.4956 H   0  0  0  0  0  0  0  0  0  0  0  0
   -1.5957   -7.1844    2.8835 H   0  0  0  0  0  0  0  0  0  0  0  0
   -0.0970  -10.5748    3.4772 H   0  0  0  0  0  0  0  0  0  0  0  0
   -0.8697   -9.5756    2.2761 H   0  0  0  0  0  0  0  0  0  0  0  0
    1.5867   -9.6596    1.8843 H   0  0  0  0  0  0  0  0  0  0  0  0
    3.1555   -8.6753    3.5923 H   0  0  0  0  0  0  0  0  0  0  0  0
    2.3200  -10.0564    4.2363 H   0  0  0  0  0  0  0  0  0  0  0  0
    6.9577   -6.0721    0.5610 H   0  0  0  0  0  0  0  0  0  0  0  0
  1  2  2  3
  1 24  1  0
  2 23  1  0
  2  3  1  0
  3  4  2  0
  3 25  1  0
  4  5  1  0
  4 26  1  0
  5 22  1  0
  5  6  1  0
  6  7  1  0
  6 44  1  0
  7  8  2  0
  7 27  1  0
  8  9  1  0
  8 22  1  0
  9 10  2  0
  9 11  1  0
 11 12  1  0
 11 28  1  0
 12 20  1  0
 12 13  1  0
 12 29  1  6
 13 18  1  0
 13 14  1  0
 13 30  1  6
 14 15  1  0
 14 31  1  0
 14 32  1  0
 15 21  1  0
 15 16  1  0
 15 33  1  1
 16 17  1  0
 16 34  1  0
 16 35  1  0
 17 18  1  0
 17 19  1  0
 17 36  1  1
 18 37  1  0
 18 38  1  0
 19 20  1  0
 19 39  1  0
 19 40  1  0
 20 21  1  0
 20 41  1  6
 21 42  1  0
 21 43  1  0
 22 23  2  0
M  END
>  <i_m_ct_stereo_status>  (346) 
1

>  <s_m_source_file>  (346) 
/var/tmp/pbs.5076255.sched01/tmppj12hgr0/126t4bdxmoi.sdf

>  <i_m_source_file_index>  (346) 
30

>  <i_lp_mmshare_version>  (346) 
48012

>  <i_f3d_flags>  (346) 
0

>  <s_epik_input>  (346) 
W2NIXTFbY0hdL2MoPU5cW0hdKW5jKG4xMiljKFtjSF1bbkhdMilDKD1PKVtOSF1bQ0BIXShbQ0BIXTM0KVtDQEBIXTVbQ0gyXVtDQEhdKFtDSDJdNClbQ0gyXVtDQEhdKFtDSDJdMylbQ0gyXTU=

>  <s_epik_cmdline>  (346) 
J2VwaWtfcHl0aG9uJywgJy1waHQnLCAnMi4wJywgJy1waCcsICc3LjAnLCAnLXRuJywgJzgnLCAnLW1hJywgJzIwMCcsICctaW1hZScsICc8aW5maWxlLm1hZT4nLCAnLW9tYWUnLCAnPG91dGZpbGUubWFlPic=

>  <r_lp_tautomer_probability>  (346) 
1

>  <r_epik_Ionization_Penalty>  (346) 
17.7523

>  <r_epik_Ionization_Penalty_Charging>  (346) 
17.7523

>  <r_epik_Ionization_Penalty_Neutral>  (346) 
9.52446e-08

>  <r_epik_State_Penalty>  (346) 
-0

>  <r_epik_Charging_Adjusted_Penalty>  (346) 
17.7523

>  <i_epik_Tot_Q>  (346) 
0

>  <i_epik_Tot_abs_Q>  (346) 
0

>  <s_lp_Force_Field>  (346) 
OPLS3e

>  <r_lp_Energy>  (346) 
23.6538

>  <b_lp_Chiralities_Consistent>  (346) 
1

>  <s_lp_Variant>  (346) 
110:0-2

>  <s_i_glide_gridfile>  (346) 
pfpi4k_grid

>  <i_i_glide_lignum>  (346) 
30

>  <i_i_glide_rotatable_bonds>  (346) 
3

>  <r_i_docking_score>  (346) 
-2.92469

>  <r_i_glide_ligand_efficiency>  (346) 
-0.127161

>  <r_i_glide_ligand_efficiency_sa>  (346) 
-0.361628

>  <r_i_glide_ligand_efficiency_ln>  (346) 
-0.707218

>  <r_i_glide_gscore>  (346) 
-2.92469

>  <r_i_glide_lipo>  (346) 
-0.244129

>  <r_i_glide_hbond>  (346) 
-0.14734

>  <r_i_glide_metal>  (346) 
-0

>  <r_i_glide_rewards>  (346) 
-1.37978

>  <r_i_glide_evdw>  (346) 
-29.3716

>  <r_i_glide_ecoul>  (346) 
-1.48243

>  <r_i_glide_erotb>  (346) 
0.573786

>  <r_i_glide_esite>  (346) 
-0.0362874

>  <r_i_glide_emodel>  (346) 
-36.7848

>  <r_i_glide_energy>  (346) 
-30.854

>  <r_i_glide_einternal>  (346) 
0.168828

>  <r_i_glide_intrahb_reward>  (346) 
-0

>  <i_i_glide_confnum>  (346) 
5

>  <i_i_glide_posenum>  (346) 
39

>  <r_i_glide_eff_state_penalty>  (346) 
0

>  <ligand_id>  (346) 
110

>  <original_smiles>  (346) 
N=c1ccn2[nH]cc(C(=O)NC3C4CC5CC(C4)CC3C5)c2n1

>  <smiles>  (346) 
[H]N=c1nc2c(C(=O)N([H])C3([H])C4([H])C([H])([H])C5([H])C([H])([H])C([H])(C4([H])[H])C([H])([H])C3([H])C5([H])[H])c([H])n([H])n2c([H])c1[H]

$$$$
111:0:0
     RDKit          3D

 44 48  0  0  1  0  0  0  0  0999 V2000
    3.0702   -3.1777   -1.1824 C   0  0  0  0  0  0  0  0  0  0  0  0
    4.5946   -3.0083   -1.3442 C   0  0  0  0  0  0  0  0  0  0  0  0
    4.9866   -3.4584   -2.7793 C   0  0  0  0  0  0  0  0  0  0  0  0
    4.8859   -1.4969   -1.2197 C   0  0  0  0  0  0  0  0  0  0  0  0
    5.0128   -0.7691   -2.2038 O   0  0  0  0  0  0  0  0  0  0  0  0
    4.9994   -0.9165    0.1833 C   0  0  0  0  0  0  0  0  0  0  0  0
    6.0669   -1.6824    0.9624 C   0  0  0  0  0  0  0  0  0  0  0  0
    5.7125   -3.1727    1.0964 C   0  0  1  0  0  0  0  0  0  0  0  0
    4.5794   -3.4830    2.1032 C   0  0  2  0  0  0  0  0  0  0  0  0
    4.7020   -2.9667    3.5443 C   0  0  1  0  0  0  0  0  0  0  0  0
    4.3070   -1.6207    3.7235 O   0  0  0  0  0  0  0  0  0  0  0  0
    3.8839   -3.9508    4.4094 C   0  0  1  0  0  0  0  0  0  0  0  0
    2.5207   -3.6002    4.6397 O   0  0  0  0  0  0  0  0  0  0  0  0
    1.6269   -4.5630    4.3173 C   0  0  0  0  0  0  0  0  0  0  0  0
    0.4235   -4.5343    4.5612 O   0  0  0  0  0  0  0  0  0  0  0  0
    2.2978   -5.6564    3.5590 C   0  0  2  0  0  0  0  0  0  0  0  0
    3.3755   -6.4245    4.1509 O   0  0  0  0  0  0  0  0  0  0  0  0
    3.7010   -5.1735    3.5495 C   0  0  2  0  0  0  0  0  0  0  0  0
    4.5097   -5.0003    2.2903 C   0  0  1  0  0  0  0  0  0  0  0  0
    4.0098   -5.6359    0.9857 C   0  0  0  0  0  0  0  0  0  0  0  0
    5.0257   -5.3342   -0.1398 C   0  0  0  0  0  0  0  0  0  0  0  0
    5.4413   -3.8341   -0.2966 C   0  0  1  0  0  0  0  0  0  0  0  0
    2.7522   -4.2071   -1.3458 H   0  0  0  0  0  0  0  0  0  0  0  0
    2.5259   -2.5627   -1.9046 H   0  0  0  0  0  0  0  0  0  0  0  0
    2.7211   -2.8680   -0.2003 H   0  0  0  0  0  0  0  0  0  0  0  0
    4.7576   -4.5089   -2.9570 H   0  0  0  0  0  0  0  0  0  0  0  0
    6.0547   -3.3296   -2.9640 H   0  0  0  0  0  0  0  0  0  0  0  0
    4.4591   -2.8921   -3.5471 H   0  0  0  0  0  0  0  0  0  0  0  0
    5.2561    0.1404    0.1209 H   0  0  0  0  0  0  0  0  0  0  0  0
    4.0299   -0.9812    0.6762 H   0  0  0  0  0  0  0  0  0  0  0  0
    7.0210   -1.5906    0.4421 H   0  0  0  0  0  0  0  0  0  0  0  0
    6.2260   -1.2256    1.9389 H   0  0  0  0  0  0  0  0  0  0  0  0
    6.6112   -3.6445    1.4985 H   0  0  0  0  0  0  0  0  0  0  0  0
    3.6253   -3.1277    1.7183 H   0  0  0  0  0  0  0  0  0  0  0  0
    5.7464   -3.0399    3.8489 H   0  0  0  0  0  0  0  0  0  0  0  0
    3.4260   -1.5117    3.4013 H   0  0  0  0  0  0  0  0  0  0  0  0
    4.3970   -4.1959    5.3385 H   0  0  0  0  0  0  0  0  0  0  0  0
    1.8745   -6.0384    2.6362 H   0  0  0  0  0  0  0  0  0  0  0  0
    5.5060   -5.3919    2.5103 H   0  0  0  0  0  0  0  0  0  0  0  0
    3.8951   -6.7157    1.1010 H   0  0  0  0  0  0  0  0  0  0  0  0
    3.0250   -5.2458    0.7187 H   0  0  0  0  0  0  0  0  0  0  0  0
    5.9286   -5.9048    0.0887 H   0  0  0  0  0  0  0  0  0  0  0  0
    4.6592   -5.7449   -1.0807 H   0  0  0  0  0  0  0  0  0  0  0  0
    6.4303   -3.8793   -0.7557 H   0  0  0  0  0  0  0  0  0  0  0  0
  1  2  1  0
  1 23  1  0
  1 24  1  0
  1 25  1  0
  2 22  1  0
  2  3  1  0
  2  4  1  0
  3 26  1  0
  3 27  1  0
  3 28  1  0
  4  5  2  0
  4  6  1  0
  6  7  1  0
  6 29  1  0
  6 30  1  0
  7  8  1  0
  7 31  1  0
  7 32  1  0
  8 22  1  0
  8  9  1  0
  8 33  1  1
  9 19  1  0
  9 10  1  0
  9 34  1  6
 10 11  1  0
 10 12  1  0
 10 35  1  1
 11 36  1  0
 12 18  1  0
 12 13  1  0
 12 37  1  1
 13 14  1  0
 14 15  2  0
 14 16  1  0
 16 18  1  0
 16 17  1  0
 16 38  1  6
 18 17  1  1
 18 19  1  0
 19 20  1  0
 19 39  1  1
 20 21  1  0
 20 40  1  0
 20 41  1  0
 21 22  1  0
 21 42  1  0
 21 43  1  0
 22 44  1  6
M  END
>  <i_m_ct_stereo_status>  (347) 
1

>  <s_m_source_file>  (347) 
/var/tmp/pbs.5076255.sched01/tmppj12hgr0/126t4bdxmoi.sdf

>  <i_m_source_file_index>  (347) 
31

>  <i_lp_mmshare_version>  (347) 
48012

>  <i_f3d_flags>  (347) 
0

>  <s_epik_input>  (347) 
W0NIMl0xW0NIMl1DKD1PKUMoW0NIM10pKFtDSDNdKVtDQEhdKFtDSDJdW0NIMl1bQ0BASF0yMylbQ0BASF0xW0NAQEhdMltDQEBIXShbT0hdKVtDQEhdKFtDQF0zNDUpT0MoPU8pW0NAQEhdNE81

>  <s_epik_cmdline>  (347) 
J2VwaWtfcHl0aG9uJywgJy1waHQnLCAnMi4wJywgJy1waCcsICc3LjAnLCAnLXRuJywgJzgnLCAnLW1hJywgJzIwMCcsICctaW1hZScsICc8aW5maWxlLm1hZT4nLCAnLW9tYWUnLCAnPG91dGZpbGUubWFlPic=

>  <r_lp_tautomer_probability>  (347) 
1

>  <r_epik_Ionization_Penalty>  (347) 
1.0688e-07

>  <r_epik_Ionization_Penalty_Charging>  (347) 
0

>  <r_epik_Ionization_Penalty_Neutral>  (347) 
1.0688e-07

>  <r_epik_State_Penalty>  (347) 
-0

>  <r_epik_Charging_Adjusted_Penalty>  (347) 
0

>  <i_epik_Tot_Q>  (347) 
0

>  <i_epik_Tot_abs_Q>  (347) 
0

>  <s_epik_Chemistry_Notes>  (347) 
This compound has an ester and may undergo hydrolysis at high or low pH.

>  <s_lp_Force_Field>  (347) 
OPLS3e

>  <r_lp_Energy>  (347) 
44.2151

>  <b_lp_Chiralities_Consistent>  (347) 
1

>  <s_lp_Variant>  (347) 
111:0-1

>  <s_i_glide_gridfile>  (347) 
pfpi4k_grid

>  <i_i_glide_lignum>  (347) 
31

>  <i_i_glide_rotatable_bonds>  (347) 
1

>  <r_i_docking_score>  (347) 
-3.30164

>  <r_i_glide_ligand_efficiency>  (347) 
-0.150075

>  <r_i_glide_ligand_efficiency_sa>  (347) 
-0.420515

>  <r_i_glide_ligand_efficiency_ln>  (347) 
-0.807042

>  <r_i_glide_gscore>  (347) 
-3.30164

>  <r_i_glide_lipo>  (347) 
-0.62647

>  <r_i_glide_hbond>  (347) 
0

>  <r_i_glide_metal>  (347) 
-0

>  <r_i_glide_rewards>  (347) 
-1.32032

>  <r_i_glide_evdw>  (347) 
-23.4879

>  <r_i_glide_ecoul>  (347) 
-0.937217

>  <r_i_glide_erotb>  (347) 
0

>  <r_i_glide_esite>  (347) 
-0.0398786

>  <r_i_glide_emodel>  (347) 
-29.8173

>  <r_i_glide_energy>  (347) 
-24.4251

>  <r_i_glide_einternal>  (347) 
0.0351063

>  <r_i_glide_intrahb_reward>  (347) 
-0

>  <i_i_glide_confnum>  (347) 
2

>  <i_i_glide_posenum>  (347) 
20

>  <r_i_glide_eff_state_penalty>  (347) 
0

>  <ligand_id>  (347) 
111

>  <original_smiles>  (347) 
CC1(C)C(=O)CCC2C3C(O)C4OC(=O)C5OC54C3CCC21

>  <smiles>  (347) 
[H]OC1([H])C2([H])OC(=O)C3([H])OC32C2([H])C([H])([H])C([H])([H])C3([H])C([H])(C([H])([H])C([H])([H])C(=O)C3(C([H])([H])[H])C([H])([H])[H])C12[H]

$$$$
111:0:1
     RDKit          3D

 44 48  0  0  1  0  0  0  0  0999 V2000
    3.0241   -3.2188   -1.1878 C   0  0  0  0  0  0  0  0  0  0  0  0
    4.5457   -3.0178   -1.3416 C   0  0  0  0  0  0  0  0  0  0  0  0
    4.9567   -3.4591   -2.7736 C   0  0  0  0  0  0  0  0  0  0  0  0
    4.8041   -1.5020   -1.2152 C   0  0  0  0  0  0  0  0  0  0  0  0
    4.9407   -0.7710   -2.1950 O   0  0  0  0  0  0  0  0  0  0  0  0
    4.8883   -0.9231    0.1917 C   0  0  0  0  0  0  0  0  0  0  0  0
    5.9697   -1.6635    0.9768 C   0  0  0  0  0  0  0  0  0  0  0  0
    5.6506   -3.1612    1.1067 C   0  0  1  0  0  0  0  0  0  0  0  0
    4.5198   -3.5032    2.1051 C   0  0  2  0  0  0  0  0  0  0  0  0
    4.6263   -2.9880    3.5479 C   0  0  1  0  0  0  0  0  0  0  0  0
    4.1779   -1.6588    3.7202 O   0  0  0  0  0  0  0  0  0  0  0  0
    3.8229   -3.9891    4.4089 C   0  0  1  0  0  0  0  0  0  0  0  0
    2.4496   -3.6765    4.6389 O   0  0  0  0  0  0  0  0  0  0  0  0
    1.5764   -4.6517    4.3030 C   0  0  0  0  0  0  0  0  0  0  0  0
    0.3725   -4.6557    4.5400 O   0  0  0  0  0  0  0  0  0  0  0  0
    2.2806   -5.7266    3.5450 C   0  0  2  0  0  0  0  0  0  0  0  0
    3.3680   -6.4720    4.1394 O   0  0  0  0  0  0  0  0  0  0  0  0
    3.6680   -5.2142    3.5437 C   0  0  2  0  0  0  0  0  0  0  0  0
    4.4841   -5.0206    2.2895 C   0  0  1  0  0  0  0  0  0  0  0  0
    4.0071   -5.6642    0.9824 C   0  0  0  0  0  0  0  0  0  0  0  0
    5.0230   -5.3372   -0.1358 C   0  0  0  0  0  0  0  0  0  0  0  0
    5.4042   -3.8275   -0.2899 C   0  0  1  0  0  0  0  0  0  0  0  0
    2.7298   -4.2540   -1.3557 H   0  0  0  0  0  0  0  0  0  0  0  0
    2.4699   -2.6210   -1.9143 H   0  0  0  0  0  0  0  0  0  0  0  0
    2.6610   -2.9251   -0.2054 H   0  0  0  0  0  0  0  0  0  0  0  0
    4.7535   -4.5140   -2.9537 H   0  0  0  0  0  0  0  0  0  0  0  0
    6.0232   -3.3047   -2.9507 H   0  0  0  0  0  0  0  0  0  0  0  0
    4.4211   -2.9039   -3.5451 H   0  0  0  0  0  0  0  0  0  0  0  0
    5.1224    0.1383    0.1295 H   0  0  0  0  0  0  0  0  0  0  0  0
    3.9158   -1.0100    0.6755 H   0  0  0  0  0  0  0  0  0  0  0  0
    6.9231   -1.5490    0.4584 H   0  0  0  0  0  0  0  0  0  0  0  0
    6.1219   -1.2031    1.9519 H   0  0  0  0  0  0  0  0  0  0  0  0
    6.5564   -3.6136    1.5138 H   0  0  0  0  0  0  0  0  0  0  0  0
    3.5585   -3.1671    1.7203 H   0  0  0  0  0  0  0  0  0  0  0  0
    5.6717   -3.0335    3.8571 H   0  0  0  0  0  0  0  0  0  0  0  0
    4.6741   -1.0940    3.1488 H   0  0  0  0  0  0  0  0  0  0  0  0
    4.3353   -4.2236    5.3399 H   0  0  0  0  0  0  0  0  0  0  0  0
    1.8683   -6.1163    2.6167 H   0  0  0  0  0  0  0  0  0  0  0  0
    5.4863   -5.3884    2.5171 H   0  0  0  0  0  0  0  0  0  0  0  0
    3.9164   -6.7466    1.0947 H   0  0  0  0  0  0  0  0  0  0  0  0
    3.0159   -5.2961    0.7093 H   0  0  0  0  0  0  0  0  0  0  0  0
    5.9380   -5.8866    0.0953 H   0  0  0  0  0  0  0  0  0  0  0  0
    4.6715   -5.7536   -1.0800 H   0  0  0  0  0  0  0  0  0  0  0  0
    6.3967   -3.8507   -0.7420 H   0  0  0  0  0  0  0  0  0  0  0  0
  1  2  1  0
  1 23  1  0
  1 24  1  0
  1 25  1  0
  2 22  1  0
  2  3  1  0
  2  4  1  0
  3 26  1  0
  3 27  1  0
  3 28  1  0
  4  5  2  0
  4  6  1  0
  6  7  1  0
  6 29  1  0
  6 30  1  0
  7  8  1  0
  7 31  1  0
  7 32  1  0
  8 22  1  0
  8  9  1  0
  8 33  1  1
  9 19  1  0
  9 10  1  0
  9 34  1  6
 10 11  1  0
 10 12  1  0
 10 35  1  1
 11 36  1  0
 12 18  1  0
 12 13  1  0
 12 37  1  1
 13 14  1  0
 14 15  2  0
 14 16  1  0
 16 18  1  0
 16 17  1  0
 16 38  1  6
 18 17  1  1
 18 19  1  0
 19 20  1  0
 19 39  1  1
 20 21  1  0
 20 40  1  0
 20 41  1  0
 21 22  1  0
 21 42  1  0
 21 43  1  0
 22 44  1  6
M  END
>  <i_m_ct_stereo_status>  (348) 
1

>  <s_m_source_file>  (348) 
/var/tmp/pbs.5076255.sched01/tmppj12hgr0/126t4bdxmoi.sdf

>  <i_m_source_file_index>  (348) 
31

>  <i_lp_mmshare_version>  (348) 
48012

>  <i_f3d_flags>  (348) 
0

>  <s_epik_input>  (348) 
W0NIMl0xW0NIMl1DKD1PKUMoW0NIM10pKFtDSDNdKVtDQEhdKFtDSDJdW0NIMl1bQ0BASF0yMylbQ0BASF0xW0NAQEhdMltDQEBIXShbT0hdKVtDQEhdKFtDQF0zNDUpT0MoPU8pW0NAQEhdNE81

>  <s_epik_cmdline>  (348) 
J2VwaWtfcHl0aG9uJywgJy1waHQnLCAnMi4wJywgJy1waCcsICc3LjAnLCAnLXRuJywgJzgnLCAnLW1hJywgJzIwMCcsICctaW1hZScsICc8aW5maWxlLm1hZT4nLCAnLW9tYWUnLCAnPG91dGZpbGUubWFlPic=

>  <r_lp_tautomer_probability>  (348) 
1

>  <r_epik_Ionization_Penalty>  (348) 
1.0688e-07

>  <r_epik_Ionization_Penalty_Charging>  (348) 
0

>  <r_epik_Ionization_Penalty_Neutral>  (348) 
1.0688e-07

>  <r_epik_State_Penalty>  (348) 
-0

>  <r_epik_Charging_Adjusted_Penalty>  (348) 
0

>  <i_epik_Tot_Q>  (348) 
0

>  <i_epik_Tot_abs_Q>  (348) 
0

>  <s_epik_Chemistry_Notes>  (348) 
This compound has an ester and may undergo hydrolysis at high or low pH.

>  <s_lp_Force_Field>  (348) 
OPLS3e

>  <r_lp_Energy>  (348) 
44.2151

>  <b_lp_Chiralities_Consistent>  (348) 
1

>  <s_lp_Variant>  (348) 
111:0-1

>  <s_i_glide_gridfile>  (348) 
pfpi4k_grid

>  <i_i_glide_lignum>  (348) 
31

>  <i_i_glide_rotatable_bonds>  (348) 
1

>  <r_i_docking_score>  (348) 
-3.2133

>  <r_i_glide_ligand_efficiency>  (348) 
-0.146059

>  <r_i_glide_ligand_efficiency_sa>  (348) 
-0.409264

>  <r_i_glide_ligand_efficiency_ln>  (348) 
-0.785448

>  <r_i_glide_gscore>  (348) 
-3.2133

>  <r_i_glide_lipo>  (348) 
-0.604847

>  <r_i_glide_hbond>  (348) 
0

>  <r_i_glide_metal>  (348) 
-0

>  <r_i_glide_rewards>  (348) 
-1.32032

>  <r_i_glide_evdw>  (348) 
-23.4941

>  <r_i_glide_ecoul>  (348) 
-0.485015

>  <r_i_glide_erotb>  (348) 
0

>  <r_i_glide_esite>  (348) 
-0.0406813

>  <r_i_glide_emodel>  (348) 
-29.0722

>  <r_i_glide_energy>  (348) 
-23.9791

>  <r_i_glide_einternal>  (348) 
0.336731

>  <r_i_glide_intrahb_reward>  (348) 
-0

>  <i_i_glide_confnum>  (348) 
1

>  <i_i_glide_posenum>  (348) 
25

>  <r_i_glide_eff_state_penalty>  (348) 
0

>  <ligand_id>  (348) 
111

>  <original_smiles>  (348) 
CC1(C)C(=O)CCC2C3C(O)C4OC(=O)C5OC54C3CCC21

>  <smiles>  (348) 
[H]OC1([H])C2([H])OC(=O)C3([H])OC32C2([H])C([H])([H])C([H])([H])C3([H])C([H])(C([H])([H])C([H])([H])C(=O)C3(C([H])([H])[H])C([H])([H])[H])C12[H]

$$$$
111:0:2
     RDKit          3D

 44 48  0  0  1  0  0  0  0  0999 V2000
    4.6914   -3.8959   -1.1575 C   0  0  0  0  0  0  0  0  0  0  0  0
    5.6239   -2.9553   -0.3718 C   0  0  0  0  0  0  0  0  0  0  0  0
    6.9931   -2.8998   -1.1033 C   0  0  0  0  0  0  0  0  0  0  0  0
    4.9877   -1.5610   -0.4615 C   0  0  0  0  0  0  0  0  0  0  0  0
    5.3137   -0.7867   -1.3582 O   0  0  0  0  0  0  0  0  0  0  0  0
    3.8916   -1.2052    0.5332 C   0  0  0  0  0  0  0  0  0  0  0  0
    4.3903   -1.4364    1.9578 C   0  0  0  0  0  0  0  0  0  0  0  0
    4.8116   -2.8968    2.1891 C   0  0  1  0  0  0  0  0  0  0  0  0
    3.6373   -3.8967    2.3105 C   0  0  2  0  0  0  0  0  0  0  0  0
    2.5427   -3.6294    3.3564 C   0  0  1  0  0  0  0  0  0  0  0  0
    1.5374   -2.7210    2.9434 O   0  0  0  0  0  0  0  0  0  0  0  0
    1.9749   -5.0150    3.7264 C   0  0  1  0  0  0  0  0  0  0  0  0
    0.8502   -5.4531    2.9766 O   0  0  0  0  0  0  0  0  0  0  0  0
    0.9683   -6.6592    2.3860 C   0  0  0  0  0  0  0  0  0  0  0  0
    0.0643   -7.2350    1.8007 O   0  0  0  0  0  0  0  0  0  0  0  0
    2.3653   -7.1342    2.4918 C   0  0  2  0  0  0  0  0  0  0  0  0
    3.0238   -7.3333    3.7796 O   0  0  0  0  0  0  0  0  0  0  0  0
    2.9991   -6.0113    3.2343 C   0  0  2  0  0  0  0  0  0  0  0  0
    4.1993   -5.2425    2.7595 C   0  0  1  0  0  0  0  0  0  0  0  0
    5.0457   -5.8300    1.6199 C   0  0  0  0  0  0  0  0  0  0  0  0
    6.2370   -4.8791    1.3400 C   0  0  0  0  0  0  0  0  0  0  0  0
    5.8576   -3.3762    1.1306 C   0  0  1  0  0  0  0  0  0  0  0  0
    5.0967   -4.9018   -1.2509 H   0  0  0  0  0  0  0  0  0  0  0  0
    4.5350   -3.5235   -2.1720 H   0  0  0  0  0  0  0  0  0  0  0  0
    3.7014   -3.9661   -0.7066 H   0  0  0  0  0  0  0  0  0  0  0  0
    7.4976   -3.8568   -1.1314 H   0  0  0  0  0  0  0  0  0  0  0  0
    7.6847   -2.2149   -0.6105 H   0  0  0  0  0  0  0  0  0  0  0  0
    6.8958   -2.5827   -2.1412 H   0  0  0  0  0  0  0  0  0  0  0  0
    3.5910   -0.1689    0.4009 H   0  0  0  0  0  0  0  0  0  0  0  0
    3.0124   -1.8157    0.3267 H   0  0  0  0  0  0  0  0  0  0  0  0
    5.2469   -0.7865    2.1368 H   0  0  0  0  0  0  0  0  0  0  0  0
    3.6378   -1.1246    2.6804 H   0  0  0  0  0  0  0  0  0  0  0  0
    5.3124   -2.9035    3.1564 H   0  0  0  0  0  0  0  0  0  0  0  0
    3.1365   -4.0171    1.3521 H   0  0  0  0  0  0  0  0  0  0  0  0
    3.0101   -3.2045    4.2434 H   0  0  0  0  0  0  0  0  0  0  0  0
    1.2134   -2.9800    2.1032 H   0  0  0  0  0  0  0  0  0  0  0  0
    1.8083   -5.1142    4.7954 H   0  0  0  0  0  0  0  0  0  0  0  0
    2.8992   -7.5234    1.6208 H   0  0  0  0  0  0  0  0  0  0  0  0
    4.8396   -5.1045    3.6315 H   0  0  0  0  0  0  0  0  0  0  0  0
    5.4214   -6.8198    1.8850 H   0  0  0  0  0  0  0  0  0  0  0  0
    4.4409   -5.9531    0.7184 H   0  0  0  0  0  0  0  0  0  0  0  0
    6.9096   -4.9426    2.1960 H   0  0  0  0  0  0  0  0  0  0  0  0
    6.8049   -5.2642    0.4900 H   0  0  0  0  0  0  0  0  0  0  0  0
    6.7673   -2.8354    1.4038 H   0  0  0  0  0  0  0  0  0  0  0  0
  1  2  1  0
  1 23  1  0
  1 24  1  0
  1 25  1  0
  2 22  1  0
  2  3  1  0
  2  4  1  0
  3 26  1  0
  3 27  1  0
  3 28  1  0
  4  5  2  0
  4  6  1  0
  6  7  1  0
  6 29  1  0
  6 30  1  0
  7  8  1  0
  7 31  1  0
  7 32  1  0
  8 22  1  0
  8  9  1  0
  8 33  1  1
  9 19  1  0
  9 10  1  0
  9 34  1  6
 10 11  1  0
 10 12  1  0
 10 35  1  1
 11 36  1  0
 12 18  1  0
 12 13  1  0
 12 37  1  1
 13 14  1  0
 14 15  2  0
 14 16  1  0
 16 18  1  0
 16 17  1  0
 16 38  1  6
 18 17  1  1
 18 19  1  0
 19 20  1  0
 19 39  1  1
 20 21  1  0
 20 40  1  0
 20 41  1  0
 21 22  1  0
 21 42  1  0
 21 43  1  0
 22 44  1  1
M  END
>  <i_m_ct_stereo_status>  (349) 
1

>  <s_m_source_file>  (349) 
/var/tmp/pbs.5076255.sched01/tmppj12hgr0/126t4bdxmoi.sdf

>  <i_m_source_file_index>  (349) 
31

>  <i_lp_mmshare_version>  (349) 
48012

>  <i_f3d_flags>  (349) 
0

>  <s_epik_input>  (349) 
W0NIMl0xW0NIMl1DKD1PKUMoW0NIM10pKFtDSDNdKVtDQEhdKFtDSDJdW0NIMl1bQ0BASF0yMylbQ0BASF0xW0NAQEhdMltDQEBIXShbT0hdKVtDQEhdKFtDQF0zNDUpT0MoPU8pW0NAQEhdNE81

>  <s_epik_cmdline>  (349) 
J2VwaWtfcHl0aG9uJywgJy1waHQnLCAnMi4wJywgJy1waCcsICc3LjAnLCAnLXRuJywgJzgnLCAnLW1hJywgJzIwMCcsICctaW1hZScsICc8aW5maWxlLm1hZT4nLCAnLW9tYWUnLCAnPG91dGZpbGUubWFlPic=

>  <r_lp_tautomer_probability>  (349) 
1

>  <r_epik_Ionization_Penalty>  (349) 
1.0688e-07

>  <r_epik_Ionization_Penalty_Charging>  (349) 
0

>  <r_epik_Ionization_Penalty_Neutral>  (349) 
1.0688e-07

>  <r_epik_State_Penalty>  (349) 
-0

>  <r_epik_Charging_Adjusted_Penalty>  (349) 
0

>  <i_epik_Tot_Q>  (349) 
0

>  <i_epik_Tot_abs_Q>  (349) 
0

>  <s_epik_Chemistry_Notes>  (349) 
This compound has an ester and may undergo hydrolysis at high or low pH.

>  <s_lp_Force_Field>  (349) 
OPLS3e

>  <r_lp_Energy>  (349) 
44.2151

>  <b_lp_Chiralities_Consistent>  (349) 
1

>  <s_lp_Variant>  (349) 
111:0-1

>  <s_i_glide_gridfile>  (349) 
pfpi4k_grid

>  <i_i_glide_lignum>  (349) 
31

>  <i_i_glide_rotatable_bonds>  (349) 
1

>  <r_i_docking_score>  (349) 
-3.17369

>  <r_i_glide_ligand_efficiency>  (349) 
-0.144259

>  <r_i_glide_ligand_efficiency_sa>  (349) 
-0.404218

>  <r_i_glide_ligand_efficiency_ln>  (349) 
-0.775765

>  <r_i_glide_gscore>  (349) 
-3.17369

>  <r_i_glide_lipo>  (349) 
-0.293394

>  <r_i_glide_hbond>  (349) 
-0.00768547

>  <r_i_glide_metal>  (349) 
-0

>  <r_i_glide_rewards>  (349) 
-1.32032

>  <r_i_glide_evdw>  (349) 
-22.8086

>  <r_i_glide_ecoul>  (349) 
-2.25475

>  <r_i_glide_erotb>  (349) 
0

>  <r_i_glide_esite>  (349) 
-0.0736498

>  <r_i_glide_emodel>  (349) 
-30.1343

>  <r_i_glide_energy>  (349) 
-25.0634

>  <r_i_glide_einternal>  (349) 
0.107968

>  <r_i_glide_intrahb_reward>  (349) 
-0

>  <i_i_glide_confnum>  (349) 
1

>  <i_i_glide_posenum>  (349) 
28

>  <r_i_glide_eff_state_penalty>  (349) 
0

>  <ligand_id>  (349) 
111

>  <original_smiles>  (349) 
CC1(C)C(=O)CCC2C3C(O)C4OC(=O)C5OC54C3CCC21

>  <smiles>  (349) 
[H]OC1([H])C2([H])OC(=O)C3([H])OC32C2([H])C([H])([H])C([H])([H])C3([H])C([H])(C([H])([H])C([H])([H])C(=O)C3(C([H])([H])[H])C([H])([H])[H])C12[H]

$$$$
112:0:0
     RDKit          3D

 66 72  0  0  1  0  0  0  0  0999 V2000
   -0.7756   -8.4987    2.7190 C   0  0  0  0  0  0  0  0  0  0  0  0
    0.7231   -8.2858    3.0105 C   0  0  2  0  0  0  0  0  0  0  0  0
    1.5713   -9.5283    2.6893 C   0  0  0  0  0  0  0  0  0  0  0  0
    1.2772  -10.6943    3.6371 C   0  0  1  0  0  0  0  0  0  0  0  0
    2.3469  -11.6161    3.5896 O   0  0  0  0  0  0  0  0  0  0  0  0
    1.0603  -10.2171    5.0592 C   0  0  0  0  0  0  0  0  0  0  0  0
    0.9447   -8.9245    5.4615 C   0  0  0  0  0  0  0  0  0  0  0  0
    0.6012   -8.7890    6.9095 C   0  0  0  0  0  0  0  0  0  0  0  0
   -0.1865   -9.5404    7.4734 O   0  0  0  0  0  0  0  0  0  0  0  0
    1.1644   -7.7950    7.6023 O   0  0  0  0  0  0  0  0  0  0  0  0
    2.0947   -6.9071    7.0396 C   0  0  0  0  0  0  0  0  0  0  0  0
    1.3669   -5.8740    6.1580 C   0  0  1  0  0  0  0  0  0  0  0  0
    0.0075   -5.4437    6.7709 C   0  0  0  0  0  0  0  0  0  0  0  0
    2.2468   -4.5903    6.1752 C   0  0  0  0  0  0  0  0  0  0  0  0
    2.7594   -4.1777    7.2168 O   0  0  0  0  0  0  0  0  0  0  0  0
    2.4468   -3.8491    4.8576 C   0  0  1  0  0  0  0  0  0  0  0  0
    1.2526   -3.9859    3.9622 C   0  0  2  0  0  0  0  0  0  0  0  0
    1.0708   -5.4568    3.5794 C   0  0  0  0  0  0  0  0  0  0  0  0
    1.1193   -6.4759    4.7410 C   0  0  0  0  0  0  0  0  0  0  0  0
    0.9646   -7.8191    4.4675 C   0  0  0  0  0  0  0  0  0  0  0  0
    1.6189   -3.1377    2.8794 O   0  0  0  0  0  0  0  0  0  0  0  0
    2.2948   -1.9675    3.3663 C   0  0  1  0  0  0  0  0  0  0  0  0
    1.3505   -0.7786    3.1566 C   0  0  0  0  0  0  0  0  0  0  0  0
    2.7505   -2.3622    4.7802 C   0  0  1  0  0  0  0  0  0  0  0  0
    2.1058   -1.6434    5.8135 O   0  0  0  0  0  0  0  0  0  0  0  0
    4.1666   -1.9052    4.4025 C   0  0  0  0  0  0  0  0  0  0  0  0
    3.7840   -1.9199    2.8982 C   0  0  2  0  0  0  0  0  0  0  0  0
    4.0878   -0.5704    2.1942 C   0  0  0  0  0  0  0  0  0  0  0  0
    4.1897   -0.4292    0.8540 C   0  0  0  0  0  0  0  0  0  0  0  0
    4.0614   -1.6101    0.0064 C   0  0  0  0  0  0  0  0  0  0  0  0
    3.8291   -1.7900   -1.3795 C   0  0  0  0  0  0  0  0  0  0  0  0
    3.7279   -3.1504   -1.5204 C   0  0  0  0  0  0  0  0  0  0  0  0
    3.8865   -3.8009   -0.3237 O   0  0  0  0  0  0  0  0  0  0  0  0
    4.0786   -2.8256    0.5935 C   0  0  0  0  0  0  0  0  0  0  0  0
    4.2859   -3.1221    2.0306 C   0  0  1  0  0  0  0  0  0  0  0  0
    5.6683   -3.2792    2.2675 O   0  0  0  0  0  0  0  0  0  0  0  0
   -1.3368   -7.5722    2.8456 H   0  0  0  0  0  0  0  0  0  0  0  0
   -1.2249   -9.2447    3.3744 H   0  0  0  0  0  0  0  0  0  0  0  0
   -0.9339   -8.8282    1.6922 H   0  0  0  0  0  0  0  0  0  0  0  0
    1.0712   -7.5567    2.2875 H   0  0  0  0  0  0  0  0  0  0  0  0
    1.4241   -9.8501    1.6595 H   0  0  0  0  0  0  0  0  0  0  0  0
    2.6250   -9.2557    2.7725 H   0  0  0  0  0  0  0  0  0  0  0  0
    0.3664  -11.2076    3.3185 H   0  0  0  0  0  0  0  0  0  0  0  0
    1.9982  -12.4953    3.6697 H   0  0  0  0  0  0  0  0  0  0  0  0
    0.9760  -11.0277    5.7720 H   0  0  0  0  0  0  0  0  0  0  0  0
    2.5998   -6.4481    7.8859 H   0  0  0  0  0  0  0  0  0  0  0  0
    2.8759   -7.4285    6.4833 H   0  0  0  0  0  0  0  0  0  0  0  0
   -0.4467   -4.6250    6.2179 H   0  0  0  0  0  0  0  0  0  0  0  0
    0.1133   -5.1097    7.8060 H   0  0  0  0  0  0  0  0  0  0  0  0
   -0.7186   -6.2544    6.7569 H   0  0  0  0  0  0  0  0  0  0  0  0
    3.2763   -4.3817    4.3953 H   0  0  0  0  0  0  0  0  0  0  0  0
    0.3554   -3.5753    4.4313 H   0  0  0  0  0  0  0  0  0  0  0  0
    0.1369   -5.5733    3.0376 H   0  0  0  0  0  0  0  0  0  0  0  0
    1.8807   -5.6975    2.8912 H   0  0  0  0  0  0  0  0  0  0  0  0
    1.7477    0.1455    3.5754 H   0  0  0  0  0  0  0  0  0  0  0  0
    0.3835   -0.9638    3.6232 H   0  0  0  0  0  0  0  0  0  0  0  0
    1.1650   -0.6125    2.0955 H   0  0  0  0  0  0  0  0  0  0  0  0
    2.2501   -0.7259    5.6309 H   0  0  0  0  0  0  0  0  0  0  0  0
    4.4246   -0.9177    4.7959 H   0  0  0  0  0  0  0  0  0  0  0  0
    4.9239   -2.6415    4.6804 H   0  0  0  0  0  0  0  0  0  0  0  0
    4.2190    0.3008    2.8279 H   0  0  0  0  0  0  0  0  0  0  0  0
    4.4136    0.5226    0.3881 H   0  0  0  0  0  0  0  0  0  0  0  0
    3.7206   -1.0472   -2.1594 H   0  0  0  0  0  0  0  0  0  0  0  0
    3.5329   -3.8025   -2.3602 H   0  0  0  0  0  0  0  0  0  0  0  0
    3.8055   -4.0618    2.2898 H   0  0  0  0  0  0  0  0  0  0  0  0
    6.0970   -2.4730    2.0176 H   0  0  0  0  0  0  0  0  0  0  0  0
  1  2  1  0
  1 37  1  0
  1 38  1  0
  1 39  1  0
  2 20  1  0
  2  3  1  0
  2 40  1  6
  3  4  1  0
  3 41  1  0
  3 42  1  0
  4  5  1  0
  4  6  1  0
  4 43  1  6
  5 44  1  0
  6  7  2  0
  6 45  1  0
  7 20  1  0
  7  8  1  0
  8  9  2  0
  8 10  1  0
 10 11  1  0
 11 12  1  0
 11 46  1  0
 11 47  1  0
 12 19  1  0
 12 13  1  1
 12 14  1  0
 13 48  1  0
 13 49  1  0
 13 50  1  0
 14 15  2  0
 14 16  1  0
 16 24  1  0
 16 17  1  0
 16 51  1  6
 17 18  1  0
 17 21  1  0
 17 52  1  1
 18 19  1  0
 18 53  1  0
 18 54  1  0
 19 20  2  0
 21 22  1  0
 22 27  1  0
 22 23  1  1
 22 24  1  0
 23 55  1  0
 23 56  1  0
 23 57  1  0
 24 25  1  1
 24 26  1  0
 25 58  1  0
 27 26  1  1
 26 59  1  0
 26 60  1  0
 27 35  1  0
 27 28  1  0
 28 29  2  0
 28 61  1  0
 29 30  1  0
 29 62  1  0
 30 34  2  0
 30 31  1  0
 31 32  2  0
 31 63  1  0
 32 33  1  0
 32 64  1  0
 33 34  1  0
 34 35  1  0
 35 36  1  0
 35 65  1  1
 36 66  1  0
M  END
>  <i_m_ct_stereo_status>  (350) 
1

>  <s_m_source_file>  (350) 
/var/tmp/pbs.5076255.sched01/tmppj12hgr0/126t4bdxmoi.sdf

>  <i_m_source_file_index>  (350) 
32

>  <i_lp_mmshare_version>  (350) 
48012

>  <i_f3d_flags>  (350) 
0

>  <s_epik_input>  (350) 
Tz1DMVtDQF0yKFtDSDNdKVtDSDJdT0MoPU8pQyg9W0NIXVtDQEhdKFtPSF0pW0NIMl1bQ0BIXTNbQ0gzXSlDMz1DMltDSDJdW0NASF0oTzQpW0NASF0xW0NAQF0oW09IXSkoW0NIMl01KVtDQEBdNChbQ0gzXSlbQ0BAXTU2W0NIXT1bQ0hdYzdjKFtDQEhdNltPSF0pb1tjSF1bY0hdNw==

>  <s_epik_cmdline>  (350) 
J2VwaWtfcHl0aG9uJywgJy1waHQnLCAnMi4wJywgJy1waCcsICc3LjAnLCAnLXRuJywgJzgnLCAnLW1hJywgJzIwMCcsICctaW1hZScsICc8aW5maWxlLm1hZT4nLCAnLW9tYWUnLCAnPG91dGZpbGUubWFlPic=

>  <r_lp_tautomer_probability>  (350) 
1

>  <r_epik_Ionization_Penalty>  (350) 
5.55984e-06

>  <r_epik_Ionization_Penalty_Charging>  (350) 
0

>  <r_epik_Ionization_Penalty_Neutral>  (350) 
5.55984e-06

>  <r_epik_State_Penalty>  (350) 
-0

>  <r_epik_Charging_Adjusted_Penalty>  (350) 
0

>  <i_epik_Tot_Q>  (350) 
0

>  <i_epik_Tot_abs_Q>  (350) 
0

>  <s_epik_Chemistry_Notes>  (350) 
This compound has an ester and may undergo hydrolysis at high or low pH.

>  <s_lp_Force_Field>  (350) 
OPLS3e

>  <r_lp_Energy>  (350) 
63.2009

>  <b_lp_Chiralities_Consistent>  (350) 
1

>  <s_lp_Variant>  (350) 
112:0-1

>  <s_i_glide_gridfile>  (350) 
pfpi4k_grid

>  <i_i_glide_lignum>  (350) 
32

>  <i_i_glide_rotatable_bonds>  (350) 
3

>  <r_i_docking_score>  (350) 
-2.48278

>  <r_i_glide_ligand_efficiency>  (350) 
-0.0689661

>  <r_i_glide_ligand_efficiency_sa>  (350) 
-0.227721

>  <r_i_glide_ligand_efficiency_ln>  (350) 
-0.541675

>  <r_i_glide_gscore>  (350) 
-2.48278

>  <r_i_glide_lipo>  (350) 
-0.370216

>  <r_i_glide_hbond>  (350) 
-0.247172

>  <r_i_glide_metal>  (350) 
-0

>  <r_i_glide_rewards>  (350) 
-0.037275

>  <r_i_glide_evdw>  (350) 
-29.7887

>  <r_i_glide_ecoul>  (350) 
-1.92272

>  <r_i_glide_erotb>  (350) 
0

>  <r_i_glide_esite>  (350) 
-0.0502724

>  <r_i_glide_emodel>  (350) 
-36.1604

>  <r_i_glide_energy>  (350) 
-31.7114

>  <r_i_glide_einternal>  (350) 
0.979495

>  <r_i_glide_intrahb_reward>  (350) 
-0

>  <i_i_glide_confnum>  (350) 
2

>  <i_i_glide_posenum>  (350) 
27

>  <r_i_glide_eff_state_penalty>  (350) 
0

>  <ligand_id>  (350) 
112

>  <original_smiles>  (350) 
CC1CC(O)C=C2C(=O)OCC3(C)C(=O)C4C(CC3=C21)OC1(C)C4(O)CC12C=Cc1ccoc1C2O

>  <smiles>  (350) 
[H]OC1([H])C([H])=C2C(=O)OC([H])([H])C3(C([H])([H])[H])C(=O)C4([H])C([H])(OC5(C([H])([H])[H])C4(O[H])C([H])([H])C54C([H])=C([H])c5c(oc([H])c5[H])C4([H])O[H])C([H])([H])C3=C2C([H])(C([H])([H])[H])C1([H])[H]

$$$$
112:0:1
     RDKit          3D

 66 72  0  0  1  0  0  0  0  0999 V2000
    3.6982   -1.9137   -0.9251 C   0  0  0  0  0  0  0  0  0  0  0  0
    4.3472   -1.5751    0.4310 C   0  0  2  0  0  0  0  0  0  0  0  0
    5.7975   -1.0930    0.2877 C   0  0  0  0  0  0  0  0  0  0  0  0
    6.7333   -2.2061   -0.1849 C   0  0  1  0  0  0  0  0  0  0  0  0
    8.0753   -1.8525    0.0741 O   0  0  0  0  0  0  0  0  0  0  0  0
    6.3953   -3.5389    0.4485 C   0  0  0  0  0  0  0  0  0  0  0  0
    5.2955   -3.8071    1.1983 C   0  0  0  0  0  0  0  0  0  0  0  0
    5.1736   -5.2531    1.5532 C   0  0  0  0  0  0  0  0  0  0  0  0
    5.4715   -6.1478    0.7672 O   0  0  0  0  0  0  0  0  0  0  0  0
    4.7318   -5.5550    2.7801 O   0  0  0  0  0  0  0  0  0  0  0  0
    4.4122   -4.5786    3.7418 C   0  0  0  0  0  0  0  0  0  0  0  0
    3.0526   -3.9313    3.4087 C   0  0  1  0  0  0  0  0  0  0  0  0
    2.0434   -4.9704    2.8523 C   0  0  0  0  0  0  0  0  0  0  0  0
    2.4415   -3.4537    4.7601 C   0  0  0  0  0  0  0  0  0  0  0  0
    2.4583   -4.1634    5.7670 O   0  0  0  0  0  0  0  0  0  0  0  0
    1.7766   -2.0858    4.8025 C   0  0  1  0  0  0  0  0  0  0  0  0
    1.1423   -1.7477    3.4869 C   0  0  2  0  0  0  0  0  0  0  0  0
    2.2246   -1.6404    2.4100 C   0  0  0  0  0  0  0  0  0  0  0  0
    3.2491   -2.7986    2.3546 C   0  0  0  0  0  0  0  0  0  0  0  0
    4.2606   -2.7627    1.4192 C   0  0  0  0  0  0  0  0  0  0  0  0
    0.4944   -0.5153    3.8006 O   0  0  0  0  0  0  0  0  0  0  0  0
   -0.0605   -0.5696    5.1274 C   0  0  1  0  0  0  0  0  0  0  0  0
   -1.5805   -0.6109    4.9746 C   0  0  0  0  0  0  0  0  0  0  0  0
    0.6851   -1.7308    5.8038 C   0  0  1  0  0  0  0  0  0  0  0  0
   -0.1457   -2.8380    6.1186 O   0  0  0  0  0  0  0  0  0  0  0  0
    1.0138   -0.7856    6.9663 C   0  0  0  0  0  0  0  0  0  0  0  0
    0.6417    0.4400    6.0903 C   0  0  2  0  0  0  0  0  0  0  0  0
   -0.4174    1.3534    6.7672 C   0  0  0  0  0  0  0  0  0  0  0  0
   -0.6490    2.6328    6.3992 C   0  0  0  0  0  0  0  0  0  0  0  0
    0.1746    3.2211    5.3479 C   0  0  0  0  0  0  0  0  0  0  0  0
    0.0396    4.3822    4.5496 C   0  0  0  0  0  0  0  0  0  0  0  0
    1.1058    4.3175    3.6906 C   0  0  0  0  0  0  0  0  0  0  0  0
    1.8849    3.2123    3.9282 O   0  0  0  0  0  0  0  0  0  0  0  0
    1.2745    2.5547    4.9406 C   0  0  0  0  0  0  0  0  0  0  0  0
    1.8101    1.2895    5.4928 C   0  0  1  0  0  0  0  0  0  0  0  0
    2.7063    1.5964    6.5418 O   0  0  0  0  0  0  0  0  0  0  0  0
    2.6411   -2.1483   -0.8011 H   0  0  0  0  0  0  0  0  0  0  0  0
    4.1612   -2.7710   -1.4123 H   0  0  0  0  0  0  0  0  0  0  0  0
    3.7555   -1.0680   -1.6102 H   0  0  0  0  0  0  0  0  0  0  0  0
    3.8302   -0.6953    0.7994 H   0  0  0  0  0  0  0  0  0  0  0  0
    5.8521   -0.2555   -0.4067 H   0  0  0  0  0  0  0  0  0  0  0  0
    6.1365   -0.7192    1.2558 H   0  0  0  0  0  0  0  0  0  0  0  0
    6.6380   -2.3353   -1.2635 H   0  0  0  0  0  0  0  0  0  0  0  0
    8.1685   -1.6827    1.0002 H   0  0  0  0  0  0  0  0  0  0  0  0
    7.1132   -4.3166    0.2221 H   0  0  0  0  0  0  0  0  0  0  0  0
    4.3954   -5.0994    4.6960 H   0  0  0  0  0  0  0  0  0  0  0  0
    5.1973   -3.8243    3.8408 H   0  0  0  0  0  0  0  0  0  0  0  0
    1.0489   -4.5445    2.7454 H   0  0  0  0  0  0  0  0  0  0  0  0
    1.9461   -5.8373    3.5092 H   0  0  0  0  0  0  0  0  0  0  0  0
    2.3254   -5.3345    1.8633 H   0  0  0  0  0  0  0  0  0  0  0  0
    2.6141   -1.4065    4.9577 H   0  0  0  0  0  0  0  0  0  0  0  0
    0.3798   -2.4823    3.2200 H   0  0  0  0  0  0  0  0  0  0  0  0
    1.7483   -1.5189    1.4353 H   0  0  0  0  0  0  0  0  0  0  0  0
    2.7745   -0.7224    2.6231 H   0  0  0  0  0  0  0  0  0  0  0  0
   -2.0929   -0.7397    5.9265 H   0  0  0  0  0  0  0  0  0  0  0  0
   -1.8747   -1.4356    4.3303 H   0  0  0  0  0  0  0  0  0  0  0  0
   -1.9479    0.3041    4.5116 H   0  0  0  0  0  0  0  0  0  0  0  0
    0.4319   -3.5564    6.3417 H   0  0  0  0  0  0  0  0  0  0  0  0
    0.3673   -0.9387    7.8336 H   0  0  0  0  0  0  0  0  0  0  0  0
    2.0673   -0.8405    7.2538 H   0  0  0  0  0  0  0  0  0  0  0  0
   -0.9842    0.9297    7.5873 H   0  0  0  0  0  0  0  0  0  0  0  0
   -1.3693    3.2640    6.9036 H   0  0  0  0  0  0  0  0  0  0  0  0
   -0.7262    5.1420    4.5677 H   0  0  0  0  0  0  0  0  0  0  0  0
    1.4372    4.9412    2.8724 H   0  0  0  0  0  0  0  0  0  0  0  0
    2.3706    0.7608    4.7258 H   0  0  0  0  0  0  0  0  0  0  0  0
    3.0531    0.7982    6.9049 H   0  0  0  0  0  0  0  0  0  0  0  0
  1  2  1  0
  1 37  1  0
  1 38  1  0
  1 39  1  0
  2 20  1  0
  2  3  1  0
  2 40  1  1
  3  4  1  0
  3 41  1  0
  3 42  1  0
  4  5  1  0
  4  6  1  0
  4 43  1  6
  5 44  1  0
  6  7  2  0
  6 45  1  0
  7 20  1  0
  7  8  1  0
  8  9  2  0
  8 10  1  0
 10 11  1  0
 11 12  1  0
 11 46  1  0
 11 47  1  0
 12 19  1  0
 12 13  1  6
 12 14  1  0
 13 48  1  0
 13 49  1  0
 13 50  1  0
 14 15  2  0
 14 16  1  0
 16 24  1  0
 16 17  1  0
 16 51  1  1
 17 18  1  0
 17 21  1  0
 17 52  1  6
 18 19  1  0
 18 53  1  0
 18 54  1  0
 19 20  2  0
 21 22  1  0
 22 27  1  0
 22 23  1  6
 22 24  1  0
 23 55  1  0
 23 56  1  0
 23 57  1  0
 24 25  1  1
 24 26  1  0
 25 58  1  0
 27 26  1  1
 26 59  1  0
 26 60  1  0
 27 35  1  0
 27 28  1  0
 28 29  2  0
 28 61  1  0
 29 30  1  0
 29 62  1  0
 30 34  2  0
 30 31  1  0
 31 32  2  0
 31 63  1  0
 32 33  1  0
 32 64  1  0
 33 34  1  0
 34 35  1  0
 35 36  1  0
 35 65  1  6
 36 66  1  0
M  END
>  <i_m_ct_stereo_status>  (351) 
1

>  <s_m_source_file>  (351) 
/var/tmp/pbs.5076255.sched01/tmppj12hgr0/126t4bdxmoi.sdf

>  <i_m_source_file_index>  (351) 
32

>  <i_lp_mmshare_version>  (351) 
48012

>  <i_f3d_flags>  (351) 
0

>  <s_epik_input>  (351) 
Tz1DMVtDQF0yKFtDSDNdKVtDSDJdT0MoPU8pQyg9W0NIXVtDQEhdKFtPSF0pW0NIMl1bQ0BIXTNbQ0gzXSlDMz1DMltDSDJdW0NASF0oTzQpW0NASF0xW0NAQF0oW09IXSkoW0NIMl01KVtDQEBdNChbQ0gzXSlbQ0BAXTU2W0NIXT1bQ0hdYzdjKFtDQEhdNltPSF0pb1tjSF1bY0hdNw==

>  <s_epik_cmdline>  (351) 
J2VwaWtfcHl0aG9uJywgJy1waHQnLCAnMi4wJywgJy1waCcsICc3LjAnLCAnLXRuJywgJzgnLCAnLW1hJywgJzIwMCcsICctaW1hZScsICc8aW5maWxlLm1hZT4nLCAnLW9tYWUnLCAnPG91dGZpbGUubWFlPic=

>  <r_lp_tautomer_probability>  (351) 
1

>  <r_epik_Ionization_Penalty>  (351) 
5.55984e-06

>  <r_epik_Ionization_Penalty_Charging>  (351) 
0

>  <r_epik_Ionization_Penalty_Neutral>  (351) 
5.55984e-06

>  <r_epik_State_Penalty>  (351) 
-0

>  <r_epik_Charging_Adjusted_Penalty>  (351) 
0

>  <i_epik_Tot_Q>  (351) 
0

>  <i_epik_Tot_abs_Q>  (351) 
0

>  <s_epik_Chemistry_Notes>  (351) 
This compound has an ester and may undergo hydrolysis at high or low pH.

>  <s_lp_Force_Field>  (351) 
OPLS3e

>  <r_lp_Energy>  (351) 
63.2009

>  <b_lp_Chiralities_Consistent>  (351) 
1

>  <s_lp_Variant>  (351) 
112:0-1

>  <s_i_glide_gridfile>  (351) 
pfpi4k_grid

>  <i_i_glide_lignum>  (351) 
32

>  <i_i_glide_rotatable_bonds>  (351) 
3

>  <r_i_docking_score>  (351) 
-2.42177

>  <r_i_glide_ligand_efficiency>  (351) 
-0.0672715

>  <r_i_glide_ligand_efficiency_sa>  (351) 
-0.222126

>  <r_i_glide_ligand_efficiency_ln>  (351) 
-0.528366

>  <r_i_glide_gscore>  (351) 
-2.42177

>  <r_i_glide_lipo>  (351) 
-0.238362

>  <r_i_glide_hbond>  (351) 
-0.0742781

>  <r_i_glide_metal>  (351) 
-0

>  <r_i_glide_rewards>  (351) 
-0.592189

>  <r_i_glide_evdw>  (351) 
-26.6946

>  <r_i_glide_ecoul>  (351) 
-1.21478

>  <r_i_glide_erotb>  (351) 
0

>  <r_i_glide_esite>  (351) 
0

>  <r_i_glide_emodel>  (351) 
-37.4247

>  <r_i_glide_energy>  (351) 
-27.9093

>  <r_i_glide_einternal>  (351) 
0.839264

>  <r_i_glide_intrahb_reward>  (351) 
-0.5

>  <i_i_glide_confnum>  (351) 
2

>  <i_i_glide_posenum>  (351) 
6

>  <r_i_glide_eff_state_penalty>  (351) 
0

>  <ligand_id>  (351) 
112

>  <original_smiles>  (351) 
CC1CC(O)C=C2C(=O)OCC3(C)C(=O)C4C(CC3=C21)OC1(C)C4(O)CC12C=Cc1ccoc1C2O

>  <smiles>  (351) 
[H]OC1([H])C([H])=C2C(=O)OC([H])([H])C3(C([H])([H])[H])C(=O)C4([H])C([H])(OC5(C([H])([H])[H])C4(O[H])C([H])([H])C54C([H])=C([H])c5c(oc([H])c5[H])C4([H])O[H])C([H])([H])C3=C2C([H])(C([H])([H])[H])C1([H])[H]

$$$$
112:0:2
     RDKit          3D

 66 72  0  0  1  0  0  0  0  0999 V2000
   -0.7106    0.2293    3.2709 C   0  0  0  0  0  0  0  0  0  0  0  0
   -0.3271   -0.6803    4.4523 C   0  0  2  0  0  0  0  0  0  0  0  0
   -1.1877   -0.4160    5.6981 C   0  0  0  0  0  0  0  0  0  0  0  0
   -0.9080    0.9574    6.3131 C   0  0  1  0  0  0  0  0  0  0  0  0
   -1.3796    0.9749    7.6472 O   0  0  0  0  0  0  0  0  0  0  0  0
    0.5676    1.3102    6.2606 C   0  0  0  0  0  0  0  0  0  0  0  0
    1.5318    0.6203    5.5966 C   0  0  0  0  0  0  0  0  0  0  0  0
    2.8593    1.3087    5.6181 C   0  0  0  0  0  0  0  0  0  0  0  0
    2.9663    2.5293    5.5323 O   0  0  0  0  0  0  0  0  0  0  0  0
    3.9547    0.5506    5.7516 O   0  0  0  0  0  0  0  0  0  0  0  0
    3.8995   -0.8471    5.9033 C   0  0  0  0  0  0  0  0  0  0  0  0
    3.5982   -1.5165    4.5475 C   0  0  1  0  0  0  0  0  0  0  0  0
    4.3171   -0.7915    3.3780 C   0  0  0  0  0  0  0  0  0  0  0  0
    4.2383   -2.9347    4.6088 C   0  0  0  0  0  0  0  0  0  0  0  0
    5.3555   -3.1145    5.0971 O   0  0  0  0  0  0  0  0  0  0  0  0
    3.4333   -4.1028    4.0464 C   0  0  1  0  0  0  0  0  0  0  0  0
    2.5557   -3.6747    2.9064 C   0  0  2  0  0  0  0  0  0  0  0  0
    1.5202   -2.6663    3.4095 C   0  0  0  0  0  0  0  0  0  0  0  0
    2.0608   -1.5107    4.2859 C   0  0  0  0  0  0  0  0  0  0  0  0
    1.1809   -0.5734    4.7859 C   0  0  0  0  0  0  0  0  0  0  0  0
    2.0054   -4.9231    2.4811 O   0  0  0  0  0  0  0  0  0  0  0  0
    3.0122   -5.9483    2.5627 C   0  0  1  0  0  0  0  0  0  0  0  0
    3.3798   -6.3315    1.1263 C   0  0  0  0  0  0  0  0  0  0  0  0
    4.0775   -5.3698    3.5090 C   0  0  1  0  0  0  0  0  0  0  0  0
    5.3193   -5.1004    2.8896 O   0  0  0  0  0  0  0  0  0  0  0  0
    3.9893   -6.6649    4.3277 C   0  0  0  0  0  0  0  0  0  0  0  0
    2.6527   -7.0304    3.6298 C   0  0  2  0  0  0  0  0  0  0  0  0
    2.6771   -8.4475    2.9950 C   0  0  0  0  0  0  0  0  0  0  0  0
    1.5659   -9.1366    2.6528 C   0  0  0  0  0  0  0  0  0  0  0  0
    0.2618   -8.5518    2.9388 C   0  0  0  0  0  0  0  0  0  0  0  0
   -1.0454   -8.8416    2.4833 C   0  0  0  0  0  0  0  0  0  0  0  0
   -1.8145   -7.8742    3.0743 C   0  0  0  0  0  0  0  0  0  0  0  0
   -1.0697   -7.0235    3.8471 O   0  0  0  0  0  0  0  0  0  0  0  0
    0.2032   -7.4673    3.7405 C   0  0  0  0  0  0  0  0  0  0  0  0
    1.3322   -6.8088    4.4394 C   0  0  1  0  0  0  0  0  0  0  0  0
    1.4921   -7.3978    5.7132 O   0  0  0  0  0  0  0  0  0  0  0  0
   -0.1680   -0.0564    2.3670 H   0  0  0  0  0  0  0  0  0  0  0  0
   -0.4910    1.2810    3.4554 H   0  0  0  0  0  0  0  0  0  0  0  0
   -1.7702    0.1532    3.0463 H   0  0  0  0  0  0  0  0  0  0  0  0
   -0.6084   -1.6865    4.1641 H   0  0  0  0  0  0  0  0  0  0  0  0
   -2.2502   -0.5093    5.4687 H   0  0  0  0  0  0  0  0  0  0  0  0
   -0.9605   -1.1874    6.4348 H   0  0  0  0  0  0  0  0  0  0  0  0
   -1.4424    1.7296    5.7546 H   0  0  0  0  0  0  0  0  0  0  0  0
   -1.1906    1.8304    8.0097 H   0  0  0  0  0  0  0  0  0  0  0  0
    0.8171    2.2213    6.7896 H   0  0  0  0  0  0  0  0  0  0  0  0
    4.8697   -1.1352    6.3005 H   0  0  0  0  0  0  0  0  0  0  0  0
    3.1789   -1.1527    6.6648 H   0  0  0  0  0  0  0  0  0  0  0  0
    4.2112   -1.3346    2.4420 H   0  0  0  0  0  0  0  0  0  0  0  0
    5.3889   -0.6835    3.5630 H   0  0  0  0  0  0  0  0  0  0  0  0
    3.9108    0.2037    3.1941 H   0  0  0  0  0  0  0  0  0  0  0  0
    2.7906   -4.3857    4.8786 H   0  0  0  0  0  0  0  0  0  0  0  0
    3.1499   -3.2626    2.0878 H   0  0  0  0  0  0  0  0  0  0  0  0
    0.9840   -2.2563    2.5540 H   0  0  0  0  0  0  0  0  0  0  0  0
    0.8112   -3.2346    4.0116 H   0  0  0  0  0  0  0  0  0  0  0  0
    4.1920   -7.0573    1.0806 H   0  0  0  0  0  0  0  0  0  0  0  0
    3.6865   -5.4559    0.5544 H   0  0  0  0  0  0  0  0  0  0  0  0
    2.5175   -6.7541    0.6144 H   0  0  0  0  0  0  0  0  0  0  0  0
    5.5994   -5.9095    2.4860 H   0  0  0  0  0  0  0  0  0  0  0  0
    4.8095   -7.3611    4.1303 H   0  0  0  0  0  0  0  0  0  0  0  0
    3.9011   -6.4679    5.3984 H   0  0  0  0  0  0  0  0  0  0  0  0
    3.6507   -8.8973    2.8266 H   0  0  0  0  0  0  0  0  0  0  0  0
    1.6030  -10.1339    2.2281 H   0  0  0  0  0  0  0  0  0  0  0  0
   -1.3814   -9.6319    1.8226 H   0  0  0  0  0  0  0  0  0  0  0  0
   -2.8689   -7.6498    3.0452 H   0  0  0  0  0  0  0  0  0  0  0  0
    1.1048   -5.7579    4.5978 H   0  0  0  0  0  0  0  0  0  0  0  0
    1.6277   -8.3279    5.5877 H   0  0  0  0  0  0  0  0  0  0  0  0
  1  2  1  0
  1 37  1  0
  1 38  1  0
  1 39  1  0
  2 20  1  0
  2  3  1  0
  2 40  1  6
  3  4  1  0
  3 41  1  0
  3 42  1  0
  4  5  1  0
  4  6  1  0
  4 43  1  6
  5 44  1  0
  6  7  2  0
  6 45  1  0
  7 20  1  0
  7  8  1  0
  8  9  2  0
  8 10  1  0
 10 11  1  0
 11 12  1  0
 11 46  1  0
 11 47  1  0
 12 19  1  0
 12 13  1  6
 12 14  1  0
 13 48  1  0
 13 49  1  0
 13 50  1  0
 14 15  2  0
 14 16  1  0
 16 24  1  0
 16 17  1  0
 16 51  1  1
 17 18  1  0
 17 21  1  0
 17 52  1  6
 18 19  1  0
 18 53  1  0
 18 54  1  0
 19 20  2  0
 21 22  1  0
 22 27  1  0
 22 23  1  6
 22 24  1  0
 23 55  1  0
 23 56  1  0
 23 57  1  0
 24 25  1  6
 24 26  1  0
 25 58  1  0
 27 26  1  1
 26 59  1  0
 26 60  1  0
 27 35  1  0
 27 28  1  0
 28 29  2  0
 28 61  1  0
 29 30  1  0
 29 62  1  0
 30 34  2  0
 30 31  1  0
 31 32  2  0
 31 63  1  0
 32 33  1  0
 32 64  1  0
 33 34  1  0
 34 35  1  0
 35 36  1  0
 35 65  1  1
 36 66  1  0
M  END
>  <i_m_ct_stereo_status>  (352) 
1

>  <s_m_source_file>  (352) 
/var/tmp/pbs.5076255.sched01/tmppj12hgr0/126t4bdxmoi.sdf

>  <i_m_source_file_index>  (352) 
32

>  <i_lp_mmshare_version>  (352) 
48012

>  <i_f3d_flags>  (352) 
0

>  <s_epik_input>  (352) 
Tz1DMVtDQF0yKFtDSDNdKVtDSDJdT0MoPU8pQyg9W0NIXVtDQEhdKFtPSF0pW0NIMl1bQ0BIXTNbQ0gzXSlDMz1DMltDSDJdW0NASF0oTzQpW0NASF0xW0NAQF0oW09IXSkoW0NIMl01KVtDQEBdNChbQ0gzXSlbQ0BAXTU2W0NIXT1bQ0hdYzdjKFtDQEhdNltPSF0pb1tjSF1bY0hdNw==

>  <s_epik_cmdline>  (352) 
J2VwaWtfcHl0aG9uJywgJy1waHQnLCAnMi4wJywgJy1waCcsICc3LjAnLCAnLXRuJywgJzgnLCAnLW1hJywgJzIwMCcsICctaW1hZScsICc8aW5maWxlLm1hZT4nLCAnLW9tYWUnLCAnPG91dGZpbGUubWFlPic=

>  <r_lp_tautomer_probability>  (352) 
1

>  <r_epik_Ionization_Penalty>  (352) 
5.55984e-06

>  <r_epik_Ionization_Penalty_Charging>  (352) 
0

>  <r_epik_Ionization_Penalty_Neutral>  (352) 
5.55984e-06

>  <r_epik_State_Penalty>  (352) 
-0

>  <r_epik_Charging_Adjusted_Penalty>  (352) 
0

>  <i_epik_Tot_Q>  (352) 
0

>  <i_epik_Tot_abs_Q>  (352) 
0

>  <s_epik_Chemistry_Notes>  (352) 
This compound has an ester and may undergo hydrolysis at high or low pH.

>  <s_lp_Force_Field>  (352) 
OPLS3e

>  <r_lp_Energy>  (352) 
63.2009

>  <b_lp_Chiralities_Consistent>  (352) 
1

>  <s_lp_Variant>  (352) 
112:0-1

>  <s_i_glide_gridfile>  (352) 
pfpi4k_grid

>  <i_i_glide_lignum>  (352) 
32

>  <i_i_glide_rotatable_bonds>  (352) 
3

>  <r_i_docking_score>  (352) 
-2.38863

>  <r_i_glide_ligand_efficiency>  (352) 
-0.0663509

>  <r_i_glide_ligand_efficiency_sa>  (352) 
-0.219086

>  <r_i_glide_ligand_efficiency_ln>  (352) 
-0.521135

>  <r_i_glide_gscore>  (352) 
-2.38863

>  <r_i_glide_lipo>  (352) 
-0.193901

>  <r_i_glide_hbond>  (352) 
-0.14939

>  <r_i_glide_metal>  (352) 
-0

>  <r_i_glide_rewards>  (352) 
-0.0435682

>  <r_i_glide_evdw>  (352) 
-25.752

>  <r_i_glide_ecoul>  (352) 
-4.76115

>  <r_i_glide_erotb>  (352) 
0

>  <r_i_glide_esite>  (352) 
0

>  <r_i_glide_emodel>  (352) 
-35.0019

>  <r_i_glide_energy>  (352) 
-30.5132

>  <r_i_glide_einternal>  (352) 
0.669205

>  <r_i_glide_intrahb_reward>  (352) 
-0

>  <i_i_glide_confnum>  (352) 
2

>  <i_i_glide_posenum>  (352) 
26

>  <r_i_glide_eff_state_penalty>  (352) 
0

>  <ligand_id>  (352) 
112

>  <original_smiles>  (352) 
CC1CC(O)C=C2C(=O)OCC3(C)C(=O)C4C(CC3=C21)OC1(C)C4(O)CC12C=Cc1ccoc1C2O

>  <smiles>  (352) 
[H]OC1([H])C([H])=C2C(=O)OC([H])([H])C3(C([H])([H])[H])C(=O)C4([H])C([H])(OC5(C([H])([H])[H])C4(O[H])C([H])([H])C54C([H])=C([H])c5c(oc([H])c5[H])C4([H])O[H])C([H])([H])C3=C2C([H])(C([H])([H])[H])C1([H])[H]

$$$$
113:0:0
     RDKit          3D

 51 53  0  0  1  0  0  0  0  0999 V2000
    3.6376    0.5185   -4.6126 C   0  0  0  0  0  0  0  0  0  0  0  0
    3.6194   -0.3921   -3.3815 C   0  0  0  0  0  0  0  0  0  0  0  0
    3.9544   -1.8597   -3.7277 C   0  0  0  0  0  0  0  0  0  0  0  0
    3.7433   -3.0438   -2.3599 S   0  0  0  0  0  0  0  0  0  0  0  0
    4.9808   -2.4618   -1.1799 C   0  0  0  0  0  0  0  0  0  0  0  0
    5.7423   -1.4558   -1.4074 N   0  0  0  0  0  0  0  0  0  0  0  0
    6.5804   -1.2621   -0.2745 C   0  0  0  0  0  0  0  0  0  0  0  0
    6.0005   -2.1808    0.8112 C   0  0  1  0  0  0  0  0  0  0  0  0
    5.0273   -1.4583    1.7546 C   0  0  2  0  0  0  0  0  0  0  0  0
    5.2982   -1.1905    3.2387 C   0  0  0  0  0  0  0  0  0  0  0  0
    4.3677   -1.7360    4.0169 C   0  0  0  0  0  0  0  0  0  0  0  0
    4.1926   -1.5138    5.7266 Cl  0  0  0  0  0  0  0  0  0  0  0  0
    3.2625   -2.4917    3.2596 C   0  0  1  0  0  0  0  0  0  0  0  0
    1.8731   -1.8423    3.4350 C   0  0  0  0  0  0  0  0  0  0  0  0
    0.9658   -2.5072    3.9730 O   0  0  0  0  0  0  0  0  0  0  0  0
    1.7062   -0.5587    2.9298 O   0  0  0  0  0  0  0  0  0  0  0  0
    2.6823    0.1929    2.2536 C   0  0  0  0  0  0  0  0  0  0  0  0
    3.8082   -2.4332    1.7927 C   0  0  2  0  0  0  0  0  0  0  0  0
    4.2721   -3.6945    1.0876 C   0  0  1  0  0  0  0  0  0  0  0  0
    5.1087   -4.6086    2.0740 C   0  0  0  0  0  0  0  0  0  0  0  0
    5.8858   -5.7701    1.3969 C   0  0  0  0  0  0  0  0  0  0  0  0
    3.0734   -4.5254    0.5500 C   0  0  0  0  0  0  0  0  0  0  0  0
    2.1946   -4.0321   -0.1410 O   0  0  0  0  0  0  0  0  0  0  0  0
    3.0483   -5.8219    0.9854 O   0  0  0  0  0  0  0  0  0  0  0  0
    1.8862   -6.6010    0.8817 C   0  0  0  0  0  0  0  0  0  0  0  0
    5.1726   -3.1274    0.0558 N   0  0  0  0  0  0  0  0  0  0  0  0
    3.3991    1.5416   -4.3242 H   0  0  0  0  0  0  0  0  0  0  0  0
    2.8912    0.1977   -5.3385 H   0  0  0  0  0  0  0  0  0  0  0  0
    4.6145    0.5161   -5.0977 H   0  0  0  0  0  0  0  0  0  0  0  0
    4.3271    0.0218   -2.6690 H   0  0  0  0  0  0  0  0  0  0  0  0
    2.6478   -0.3480   -2.8927 H   0  0  0  0  0  0  0  0  0  0  0  0
    3.3729   -2.1936   -4.5825 H   0  0  0  0  0  0  0  0  0  0  0  0
    4.9865   -1.9295   -4.0379 H   0  0  0  0  0  0  0  0  0  0  0  0
    7.5970   -1.5664   -0.5368 H   0  0  0  0  0  0  0  0  0  0  0  0
    6.5907   -0.2011   -0.0036 H   0  0  0  0  0  0  0  0  0  0  0  0
    6.8201   -2.6712    1.3411 H   0  0  0  0  0  0  0  0  0  0  0  0
    4.7830   -0.5058    1.3356 H   0  0  0  0  0  0  0  0  0  0  0  0
    6.0815   -0.5407    3.5846 H   0  0  0  0  0  0  0  0  0  0  0  0
    3.2277   -3.5021    3.6476 H   0  0  0  0  0  0  0  0  0  0  0  0
    2.4015    1.1675    1.9884 H   0  0  0  0  0  0  0  0  0  0  0  0
    2.9064   -0.3079    1.3047 H   0  0  0  0  0  0  0  0  0  0  0  0
    3.5651    0.2222    2.8648 H   0  0  0  0  0  0  0  0  0  0  0  0
    3.0048   -2.0631    1.1513 H   0  0  0  0  0  0  0  0  0  0  0  0
    5.8049   -4.0194    2.6607 H   0  0  0  0  0  0  0  0  0  0  0  0
    4.4439   -5.0353    2.8336 H   0  0  0  0  0  0  0  0  0  0  0  0
    6.4333   -6.3253    2.1519 H   0  0  0  0  0  0  0  0  0  0  0  0
    6.5754   -5.3808    0.6528 H   0  0  0  0  0  0  0  0  0  0  0  0
    5.2316   -6.4778    0.8932 H   0  0  0  0  0  0  0  0  0  0  0  0
    2.1400   -7.6072    1.2147 H   0  0  0  0  0  0  0  0  0  0  0  0
    1.4866   -6.6460   -0.1347 H   0  0  0  0  0  0  0  0  0  0  0  0
    1.1225   -6.1990    1.5566 H   0  0  0  0  0  0  0  0  0  0  0  0
  1  2  1  0
  1 27  1  0
  1 28  1  0
  1 29  1  0
  2  3  1  0
  2 30  1  0
  2 31  1  0
  3  4  1  0
  3 32  1  0
  3 33  1  0
  4  5  1  0
  5 26  1  0
  5  6  2  0
  6  7  1  0
  7  8  1  0
  7 34  1  0
  7 35  1  0
  8 26  1  0
  8  9  1  0
  8 36  1  1
  9 18  1  0
  9 10  1  0
  9 37  1  6
 10 11  2  0
 10 38  1  0
 11 12  1  0
 11 13  1  0
 13 14  1  0
 13 18  1  0
 13 39  1  1
 14 15  2  0
 14 16  1  0
 16 17  1  0
 17 40  1  0
 17 41  1  0
 17 42  1  0
 18 19  1  0
 18 43  1  6
 19 20  1  1
 19 22  1  0
 19 26  1  0
 20 21  1  0
 20 44  1  0
 20 45  1  0
 21 46  1  0
 21 47  1  0
 21 48  1  0
 22 23  2  0
 22 24  1  0
 24 25  1  0
 25 49  1  0
 25 50  1  0
 25 51  1  0
M  END
>  <i_m_ct_stereo_status>  (353) 
1

>  <s_m_source_file>  (353) 
/var/tmp/pbs.5076255.sched01/tmppj12hgr0/126t4bdxmoi.sdf

>  <i_m_source_file_index>  (353) 
33

>  <i_lp_mmshare_version>  (353) 
48012

>  <i_f3d_flags>  (353) 
0

>  <s_epik_input>  (353) 
W0NIM11bQ0gyXVtDSDJdU0MoPU5bQ0gyXTEpTjJbQ0BdKFtDSDJdW0NIM10pKEMoPU8pT1tDSDNdKVtDQEhdKFtDQEBIXTNbQ0BIXTEyKVtDQEBIXShDKENsKT1bQ0hdMylDKD1PKU9bQ0gzXQ==

>  <s_epik_cmdline>  (353) 
J2VwaWtfcHl0aG9uJywgJy1waHQnLCAnMi4wJywgJy1waCcsICc3LjAnLCAnLXRuJywgJzgnLCAnLW1hJywgJzIwMCcsICctaW1hZScsICc8aW5maWxlLm1hZT4nLCAnLW9tYWUnLCAnPG91dGZpbGUubWFlPic=

>  <r_lp_tautomer_probability>  (353) 
1

>  <r_epik_Ionization_Penalty>  (353) 
0.0674485

>  <r_epik_Ionization_Penalty_Charging>  (353) 
0

>  <r_epik_Ionization_Penalty_Neutral>  (353) 
0.0674485

>  <r_epik_State_Penalty>  (353) 
0.0589536

>  <r_epik_Charging_Adjusted_Penalty>  (353) 
0.0589536

>  <i_epik_Tot_Q>  (353) 
0

>  <i_epik_Tot_abs_Q>  (353) 
0

>  <s_epik_Chemistry_Notes>  (353) 
This compound has an ester and may undergo hydrolysis at high or low pH. This compound has an imine and may undergo hydrolysis.

>  <s_lp_Force_Field>  (353) 
OPLS3e

>  <r_lp_Energy>  (353) 
21.951

>  <b_lp_Chiralities_Consistent>  (353) 
1

>  <s_lp_Variant>  (353) 
113:0-1

>  <s_i_glide_gridfile>  (353) 
pfpi4k_grid

>  <i_i_glide_lignum>  (353) 
33

>  <i_i_glide_rotatable_bonds>  (353) 
8

>  <r_i_docking_score>  (353) 
-2.32223

>  <r_i_glide_ligand_efficiency>  (353) 
-0.0893166

>  <r_i_glide_ligand_efficiency_sa>  (353) 
-0.2646

>  <r_i_glide_ligand_efficiency_ln>  (353) 
-0.545369

>  <r_i_glide_gscore>  (353) 
-2.32223

>  <r_i_glide_lipo>  (353) 
-0.847033

>  <r_i_glide_hbond>  (353) 
-0.0574517

>  <r_i_glide_metal>  (353) 
-0

>  <r_i_glide_rewards>  (353) 
-0.72732

>  <r_i_glide_evdw>  (353) 
-29.1452

>  <r_i_glide_ecoul>  (353) 
2.05207

>  <r_i_glide_erotb>  (353) 
0.487976

>  <r_i_glide_esite>  (353) 
-0.0289559

>  <r_i_glide_emodel>  (353) 
-20.7231

>  <r_i_glide_energy>  (353) 
-27.0931

>  <r_i_glide_einternal>  (353) 
13.455

>  <r_i_glide_intrahb_reward>  (353) 
-0

>  <i_i_glide_confnum>  (353) 
1

>  <i_i_glide_posenum>  (353) 
13

>  <r_i_glide_eff_state_penalty>  (353) 
0

>  <ligand_id>  (353) 
113

>  <original_smiles>  (353) 
CCCSC1=NCC2C3C=C(Cl)C(C(=O)OC)C3C(CC)(C(=O)OC)N12

>  <smiles>  (353) 
[H]C1=C(Cl)C([H])(C(=O)OC([H])([H])[H])C2([H])C1([H])C1([H])N(C(SC([H])([H])C([H])([H])C([H])([H])[H])=NC1([H])[H])C2(C(=O)OC([H])([H])[H])C([H])([H])C([H])([H])[H]

$$$$
113:1:0
     RDKit          3D

 52 54  0  0  1  0  0  0  0  0999 V2000
    2.6768    1.3421   -5.2915 C   0  0  0  0  0  0  0  0  0  0  0  0
    3.8142    0.7701   -4.4458 C   0  0  0  0  0  0  0  0  0  0  0  0
    3.3338   -0.4473   -3.6649 C   0  0  0  0  0  0  0  0  0  0  0  0
    4.6153   -1.1051   -2.5839 S   0  0  0  0  0  0  0  0  0  0  0  0
    3.6880   -2.3821   -1.7067 C   0  0  0  0  0  0  0  0  0  0  0  0
    2.5549   -2.8643   -2.1952 N   0  0  0  0  0  0  0  0  0  0  0  0
    1.9250   -3.7557   -1.2341 C   0  0  0  0  0  0  0  0  0  0  0  0
    2.9135   -3.7368   -0.0507 C   0  0  1  0  0  0  0  0  0  0  0  0
    3.5831   -5.0327    0.4044 C   0  0  2  0  0  0  0  0  0  0  0  0
    3.1997   -5.6018    1.7576 C   0  0  0  0  0  0  0  0  0  0  0  0
    4.2552   -5.7026    2.5597 C   0  0  0  0  0  0  0  0  0  0  0  0
    4.3602   -6.5358    4.0695 Cl  0  0  0  0  0  0  0  0  0  0  0  0
    5.5364   -5.1108    2.0196 C   0  0  1  0  0  0  0  0  0  0  0  0
    6.7107   -6.1044    1.9311 C   0  0  0  0  0  0  0  0  0  0  0  0
    7.8407   -5.7713    2.2861 O   0  0  0  0  0  0  0  0  0  0  0  0
    6.3978   -7.3027    1.4223 O   0  0  0  0  0  0  0  0  0  0  0  0
    7.4298   -8.2704    1.2839 C   0  0  0  0  0  0  0  0  0  0  0  0
    5.0794   -4.6202    0.6084 C   0  0  2  0  0  0  0  0  0  0  0  0
    5.2563   -3.1062    0.2723 C   0  0  1  0  0  0  0  0  0  0  0  0
    5.1757   -2.1574    1.5086 C   0  0  0  0  0  0  0  0  0  0  0  0
    5.1597   -0.6604    1.1411 C   0  0  0  0  0  0  0  0  0  0  0  0
    6.6201   -2.9908   -0.4492 C   0  0  0  0  0  0  0  0  0  0  0  0
    6.7136   -3.0597   -1.6730 O   0  0  0  0  0  0  0  0  0  0  0  0
    7.6687   -2.8782    0.3779 O   0  0  0  0  0  0  0  0  0  0  0  0
    8.9639   -2.7081   -0.1821 C   0  0  0  0  0  0  0  0  0  0  0  0
    4.0431   -2.9458   -0.5400 N   0  0  0  0  0  0  0  0  0  0  0  0
    3.0148    2.1958   -5.8807 H   0  0  0  0  0  0  0  0  0  0  0  0
    1.8009    1.6641   -4.7301 H   0  0  0  0  0  0  0  0  0  0  0  0
    2.3214    0.5456   -5.9313 H   0  0  0  0  0  0  0  0  0  0  0  0
    4.6120    0.4746   -5.1137 H   0  0  0  0  0  0  0  0  0  0  0  0
    4.2065    1.5370   -3.7768 H   0  0  0  0  0  0  0  0  0  0  0  0
    2.4822   -0.1828   -3.0426 H   0  0  0  0  0  0  0  0  0  0  0  0
    3.0060   -1.2239   -4.3538 H   0  0  0  0  0  0  0  0  0  0  0  0
    0.9963   -3.2596   -1.0108 H   0  0  0  0  0  0  0  0  0  0  0  0
    1.6915   -4.7642   -1.5645 H   0  0  0  0  0  0  0  0  0  0  0  0
    2.4715   -3.2274    0.8100 H   0  0  0  0  0  0  0  0  0  0  0  0
    3.4948   -5.8406   -0.3209 H   0  0  0  0  0  0  0  0  0  0  0  0
    2.2157   -5.9950    1.9835 H   0  0  0  0  0  0  0  0  0  0  0  0
    5.8150   -4.3361    2.7387 H   0  0  0  0  0  0  0  0  0  0  0  0
    7.0181   -9.1750    0.8358 H   0  0  0  0  0  0  0  0  0  0  0  0
    7.8347   -8.5282    2.2639 H   0  0  0  0  0  0  0  0  0  0  0  0
    8.2542   -7.9246    0.6508 H   0  0  0  0  0  0  0  0  0  0  0  0
    5.6591   -5.2004   -0.1160 H   0  0  0  0  0  0  0  0  0  0  0  0
    4.2722   -2.3732    2.0860 H   0  0  0  0  0  0  0  0  0  0  0  0
    6.0029   -2.3074    2.2107 H   0  0  0  0  0  0  0  0  0  0  0  0
    5.1048   -0.0475    2.0442 H   0  0  0  0  0  0  0  0  0  0  0  0
    4.2967   -0.4034    0.5197 H   0  0  0  0  0  0  0  0  0  0  0  0
    6.0610   -0.3640    0.5964 H   0  0  0  0  0  0  0  0  0  0  0  0
    9.7026   -2.6354    0.6170 H   0  0  0  0  0  0  0  0  0  0  0  0
    8.9977   -1.7820   -0.7588 H   0  0  0  0  0  0  0  0  0  0  0  0
    9.2353   -3.5352   -0.8473 H   0  0  0  0  0  0  0  0  0  0  0  0
    2.2540   -2.7820   -3.1519 H   0  0  0  0  0  0  0  0  0  0  0  0
  1  2  1  0
  1 27  1  0
  1 28  1  0
  1 29  1  0
  2  3  1  0
  2 30  1  0
  2 31  1  0
  3  4  1  0
  3 32  1  0
  3 33  1  0
  4  5  1  0
  5 26  1  0
  5  6  2  0
  6  7  1  0
  6 52  1  0
  7  8  1  0
  7 34  1  0
  7 35  1  0
  8 26  1  0
  8  9  1  0
  8 36  1  1
  9 18  1  0
  9 10  1  0
  9 37  1  6
 10 11  2  0
 10 38  1  0
 11 12  1  0
 11 13  1  0
 13 14  1  0
 13 18  1  0
 13 39  1  1
 14 15  2  0
 14 16  1  0
 16 17  1  0
 17 40  1  0
 17 41  1  0
 17 42  1  0
 18 19  1  0
 18 43  1  6
 19 20  1  1
 19 22  1  0
 19 26  1  0
 20 21  1  0
 20 44  1  0
 20 45  1  0
 21 46  1  0
 21 47  1  0
 21 48  1  0
 22 23  2  0
 22 24  1  0
 24 25  1  0
 25 49  1  0
 25 50  1  0
 25 51  1  0
M  CHG  1   6   1
M  END
>  <i_m_ct_stereo_status>  (354) 
1

>  <s_m_source_file>  (354) 
/var/tmp/pbs.5076255.sched01/tmppj12hgr0/126t4bdxmoi.sdf

>  <i_m_source_file_index>  (354) 
34

>  <i_lp_mmshare_version>  (354) 
48012

>  <i_f3d_flags>  (354) 
0

>  <s_epik_input>  (354) 
W0NIM11bQ0gyXVtDSDJdU0MoPU5bQ0gyXTEpTjJbQ0BdKFtDSDJdW0NIM10pKEMoPU8pT1tDSDNdKVtDQEhdKFtDQEBIXTNbQ0BIXTEyKVtDQEBIXShDKENsKT1bQ0hdMylDKD1PKU9bQ0gzXQ==

>  <s_epik_cmdline>  (354) 
J2VwaWtfcHl0aG9uJywgJy1waHQnLCAnMi4wJywgJy1waCcsICc3LjAnLCAnLXRuJywgJzgnLCAnLW1hJywgJzIwMCcsICctaW1hZScsICc8aW5maWxlLm1hZT4nLCAnLW9tYWUnLCAnPG91dGZpbGUubWFlPic=

>  <r_epik_Ionization_Penalty>  (354) 
1.32085

>  <r_epik_Ionization_Penalty_Charging>  (354) 
1.32085

>  <r_epik_Ionization_Penalty_Neutral>  (354) 
7.10415e-15

>  <r_epik_State_Penalty>  (354) 
1.39644

>  <r_epik_Charging_Adjusted_Penalty>  (354) 
2.71729

>  <i_epik_Tot_Q>  (354) 
1

>  <i_epik_Tot_abs_Q>  (354) 
1

>  <s_epik_Chemistry_Notes>  (354) 
This compound has an ester and may undergo hydrolysis at high or low pH. This compound has an imine and may undergo hydrolysis.

>  <s_lp_Force_Field>  (354) 
OPLS3e

>  <r_lp_Energy>  (354) 
20.2973

>  <b_lp_Chiralities_Consistent>  (354) 
1

>  <s_lp_Variant>  (354) 
113:0-2

>  <s_i_glide_gridfile>  (354) 
pfpi4k_grid

>  <i_i_glide_lignum>  (354) 
34

>  <i_i_glide_rotatable_bonds>  (354) 
8

>  <r_i_docking_score>  (354) 
-2.76833

>  <r_i_glide_ligand_efficiency>  (354) 
-0.106474

>  <r_i_glide_ligand_efficiency_sa>  (354) 
-0.315429

>  <r_i_glide_ligand_efficiency_ln>  (354) 
-0.650133

>  <r_i_glide_gscore>  (354) 
-2.76833

>  <r_i_glide_lipo>  (354) 
-0.669609

>  <r_i_glide_hbond>  (354) 
0

>  <r_i_glide_metal>  (354) 
-0

>  <r_i_glide_rewards>  (354) 
-0.811553

>  <r_i_glide_evdw>  (354) 
-30.4982

>  <r_i_glide_ecoul>  (354) 
-1.2868

>  <r_i_glide_erotb>  (354) 
0.485775

>  <r_i_glide_esite>  (354) 
-0.0550106

>  <r_i_glide_emodel>  (354) 
-35.1153

>  <r_i_glide_energy>  (354) 
-31.785

>  <r_i_glide_einternal>  (354) 
2.3368

>  <r_i_glide_intrahb_reward>  (354) 
-0

>  <i_i_glide_confnum>  (354) 
2

>  <i_i_glide_posenum>  (354) 
36

>  <r_i_glide_eff_state_penalty>  (354) 
0

>  <ligand_id>  (354) 
113

>  <original_smiles>  (354) 
CCCSC1=NCC2C3C=C(Cl)C(C(=O)OC)C3C(CC)(C(=O)OC)N12

>  <smiles>  (354) 
[H]C1=C(Cl)C([H])(C(=O)OC([H])([H])[H])C2([H])C1([H])C1([H])N(C(SC([H])([H])C([H])([H])C([H])([H])[H])=[N+]([H])C1([H])[H])C2(C(=O)OC([H])([H])[H])C([H])([H])C([H])([H])[H]

$$$$
113:1:1
     RDKit          3D

 52 54  0  0  1  0  0  0  0  0999 V2000
    2.7692    1.4174   -5.4428 C   0  0  0  0  0  0  0  0  0  0  0  0
    3.9003    0.9047   -4.5548 C   0  0  0  0  0  0  0  0  0  0  0  0
    3.6412   -0.5075   -4.0144 C   0  0  0  0  0  0  0  0  0  0  0  0
    4.6226   -0.9704   -2.5619 S   0  0  0  0  0  0  0  0  0  0  0  0
    3.5906   -2.2180   -1.7927 C   0  0  0  0  0  0  0  0  0  0  0  0
    2.5546   -2.7532   -2.4467 N   0  0  0  0  0  0  0  0  0  0  0  0
    1.7757   -3.6276   -1.5542 C   0  0  0  0  0  0  0  0  0  0  0  0
    2.5431   -3.5247   -0.2179 C   0  0  1  0  0  0  0  0  0  0  0  0
    3.1750   -4.7889    0.3731 C   0  0  2  0  0  0  0  0  0  0  0  0
    2.5889   -5.4047    1.6242 C   0  0  0  0  0  0  0  0  0  0  0  0
    3.5117   -5.5011    2.5755 C   0  0  0  0  0  0  0  0  0  0  0  0
    3.3216   -6.1926    4.1493 Cl  0  0  0  0  0  0  0  0  0  0  0  0
    4.8283   -4.8142    2.2779 C   0  0  1  0  0  0  0  0  0  0  0  0
    6.0989   -5.6969    2.3951 C   0  0  0  0  0  0  0  0  0  0  0  0
    6.1274   -6.8224    2.8947 O   0  0  0  0  0  0  0  0  0  0  0  0
    7.1622   -5.0608    1.8790 O   0  0  0  0  0  0  0  0  0  0  0  0
    8.4456   -5.6547    1.8979 C   0  0  0  0  0  0  0  0  0  0  0  0
    4.6121   -4.3347    0.8118 C   0  0  2  0  0  0  0  0  0  0  0  0
    4.8050   -2.8202    0.4557 C   0  0  1  0  0  0  0  0  0  0  0  0
    4.4771   -1.8136    1.6109 C   0  0  0  0  0  0  0  0  0  0  0  0
    5.4872   -1.4414    2.7316 C   0  0  0  0  0  0  0  0  0  0  0  0
    6.2260   -2.6149   -0.1520 C   0  0  0  0  0  0  0  0  0  0  0  0
    7.0365   -1.8623    0.3444 O   0  0  0  0  0  0  0  0  0  0  0  0
    6.4553   -3.3284   -1.2582 O   0  0  0  0  0  0  0  0  0  0  0  0
    7.7416   -3.2733   -1.8513 C   0  0  0  0  0  0  0  0  0  0  0  0
    3.7254   -2.7104   -0.5566 N   0  0  0  0  0  0  0  0  0  0  0  0
    3.0132    2.4155   -5.8062 H   0  0  0  0  0  0  0  0  0  0  0  0
    1.8126    1.4694   -4.9257 H   0  0  0  0  0  0  0  0  0  0  0  0
    2.6385    0.7570   -6.3054 H   0  0  0  0  0  0  0  0  0  0  0  0
    4.7947    0.9044   -5.1589 H   0  0  0  0  0  0  0  0  0  0  0  0
    4.0657    1.6102   -3.7441 H   0  0  0  0  0  0  0  0  0  0  0  0
    2.5901   -0.5684   -3.7449 H   0  0  0  0  0  0  0  0  0  0  0  0
    3.8269   -1.2538   -4.7818 H   0  0  0  0  0  0  0  0  0  0  0  0
    0.7894   -3.1770   -1.4989 H   0  0  0  0  0  0  0  0  0  0  0  0
    1.6541   -4.6543   -1.9079 H   0  0  0  0  0  0  0  0  0  0  0  0
    1.9629   -2.9859    0.5186 H   0  0  0  0  0  0  0  0  0  0  0  0
    3.2204   -5.6204   -0.3408 H   0  0  0  0  0  0  0  0  0  0  0  0
    1.5761   -5.7899    1.7031 H   0  0  0  0  0  0  0  0  0  0  0  0
    4.8692   -4.0265    3.0206 H   0  0  0  0  0  0  0  0  0  0  0  0
    9.1645   -4.9801    1.4288 H   0  0  0  0  0  0  0  0  0  0  0  0
    8.4360   -6.5898    1.3417 H   0  0  0  0  0  0  0  0  0  0  0  0
    8.7675   -5.8409    2.9214 H   0  0  0  0  0  0  0  0  0  0  0  0
    5.2516   -4.9371    0.1693 H   0  0  0  0  0  0  0  0  0  0  0  0
    4.1353   -0.8801    1.1702 H   0  0  0  0  0  0  0  0  0  0  0  0
    3.5849   -2.1923    2.1092 H   0  0  0  0  0  0  0  0  0  0  0  0
    4.9811   -0.8648    3.5194 H   0  0  0  0  0  0  0  0  0  0  0  0
    6.3125   -0.8406    2.3484 H   0  0  0  0  0  0  0  0  0  0  0  0
    5.8997   -2.3168    3.2293 H   0  0  0  0  0  0  0  0  0  0  0  0
    7.7943   -3.9219   -2.7215 H   0  0  0  0  0  0  0  0  0  0  0  0
    8.4955   -3.6226   -1.1548 H   0  0  0  0  0  0  0  0  0  0  0  0
    7.9759   -2.2526   -2.1377 H   0  0  0  0  0  0  0  0  0  0  0  0
    2.4053   -2.7065   -3.4431 H   0  0  0  0  0  0  0  0  0  0  0  0
  1  2  1  0
  1 27  1  0
  1 28  1  0
  1 29  1  0
  2  3  1  0
  2 30  1  0
  2 31  1  0
  3  4  1  0
  3 32  1  0
  3 33  1  0
  4  5  1  0
  5 26  1  0
  5  6  2  0
  6  7  1  0
  6 52  1  0
  7  8  1  0
  7 34  1  0
  7 35  1  0
  8 26  1  0
  8  9  1  0
  8 36  1  1
  9 18  1  0
  9 10  1  0
  9 37  1  6
 10 11  2  0
 10 38  1  0
 11 12  1  0
 11 13  1  0
 13 14  1  0
 13 18  1  0
 13 39  1  1
 14 15  2  0
 14 16  1  0
 16 17  1  0
 17 40  1  0
 17 41  1  0
 17 42  1  0
 18 19  1  0
 18 43  1  6
 19 20  1  1
 19 22  1  0
 19 26  1  0
 20 21  1  0
 20 44  1  0
 20 45  1  0
 21 46  1  0
 21 47  1  0
 21 48  1  0
 22 23  2  0
 22 24  1  0
 24 25  1  0
 25 49  1  0
 25 50  1  0
 25 51  1  0
M  CHG  1   6   1
M  END
>  <i_m_ct_stereo_status>  (355) 
1

>  <s_m_source_file>  (355) 
/var/tmp/pbs.5076255.sched01/tmppj12hgr0/126t4bdxmoi.sdf

>  <i_m_source_file_index>  (355) 
34

>  <i_lp_mmshare_version>  (355) 
48012

>  <i_f3d_flags>  (355) 
0

>  <s_epik_input>  (355) 
W0NIM11bQ0gyXVtDSDJdU0MoPU5bQ0gyXTEpTjJbQ0BdKFtDSDJdW0NIM10pKEMoPU8pT1tDSDNdKVtDQEhdKFtDQEBIXTNbQ0BIXTEyKVtDQEBIXShDKENsKT1bQ0hdMylDKD1PKU9bQ0gzXQ==

>  <s_epik_cmdline>  (355) 
J2VwaWtfcHl0aG9uJywgJy1waHQnLCAnMi4wJywgJy1waCcsICc3LjAnLCAnLXRuJywgJzgnLCAnLW1hJywgJzIwMCcsICctaW1hZScsICc8aW5maWxlLm1hZT4nLCAnLW9tYWUnLCAnPG91dGZpbGUubWFlPic=

>  <r_epik_Ionization_Penalty>  (355) 
1.32085

>  <r_epik_Ionization_Penalty_Charging>  (355) 
1.32085

>  <r_epik_Ionization_Penalty_Neutral>  (355) 
7.10415e-15

>  <r_epik_State_Penalty>  (355) 
1.39644

>  <r_epik_Charging_Adjusted_Penalty>  (355) 
2.71729

>  <i_epik_Tot_Q>  (355) 
1

>  <i_epik_Tot_abs_Q>  (355) 
1

>  <s_epik_Chemistry_Notes>  (355) 
This compound has an ester and may undergo hydrolysis at high or low pH. This compound has an imine and may undergo hydrolysis.

>  <s_lp_Force_Field>  (355) 
OPLS3e

>  <r_lp_Energy>  (355) 
20.2973

>  <b_lp_Chiralities_Consistent>  (355) 
1

>  <s_lp_Variant>  (355) 
113:0-2

>  <s_i_glide_gridfile>  (355) 
pfpi4k_grid

>  <i_i_glide_lignum>  (355) 
34

>  <i_i_glide_rotatable_bonds>  (355) 
8

>  <r_i_docking_score>  (355) 
-2.58808

>  <r_i_glide_ligand_efficiency>  (355) 
-0.0995415

>  <r_i_glide_ligand_efficiency_sa>  (355) 
-0.294891

>  <r_i_glide_ligand_efficiency_ln>  (355) 
-0.607802

>  <r_i_glide_gscore>  (355) 
-2.58808

>  <r_i_glide_lipo>  (355) 
-0.494665

>  <r_i_glide_hbond>  (355) 
0

>  <r_i_glide_metal>  (355) 
-0

>  <r_i_glide_rewards>  (355) 
-0.720318

>  <r_i_glide_evdw>  (355) 
-26.243

>  <r_i_glide_ecoul>  (355) 
-3.02432

>  <r_i_glide_erotb>  (355) 
0.485775

>  <r_i_glide_esite>  (355) 
-0.0930732

>  <r_i_glide_emodel>  (355) 
-32.2906

>  <r_i_glide_energy>  (355) 
-29.2673

>  <r_i_glide_einternal>  (355) 
1.94822

>  <r_i_glide_intrahb_reward>  (355) 
-0

>  <i_i_glide_confnum>  (355) 
2

>  <i_i_glide_posenum>  (355) 
12

>  <r_i_glide_eff_state_penalty>  (355) 
0

>  <ligand_id>  (355) 
113

>  <original_smiles>  (355) 
CCCSC1=NCC2C3C=C(Cl)C(C(=O)OC)C3C(CC)(C(=O)OC)N12

>  <smiles>  (355) 
[H]C1=C(Cl)C([H])(C(=O)OC([H])([H])[H])C2([H])C1([H])C1([H])N(C(SC([H])([H])C([H])([H])C([H])([H])[H])=[N+]([H])C1([H])[H])C2(C(=O)OC([H])([H])[H])C([H])([H])C([H])([H])[H]

$$$$
113:1:2
     RDKit          3D

 52 54  0  0  1  0  0  0  0  0999 V2000
    2.7476   -9.3588    1.5752 C   0  0  0  0  0  0  0  0  0  0  0  0
    2.7856   -8.6843    2.9744 C   0  0  0  0  0  0  0  0  0  0  0  0
    2.6709   -7.1614    2.8001 C   0  0  0  0  0  0  0  0  0  0  0  0
    3.1350   -6.2167    4.3012 S   0  0  0  0  0  0  0  0  0  0  0  0
    3.0421   -4.5264    3.7094 C   0  0  0  0  0  0  0  0  0  0  0  0
    2.6104   -3.4973    4.4662 N   0  0  0  0  0  0  0  0  0  0  0  0
    2.4620   -2.2918    3.6392 C   0  0  0  0  0  0  0  0  0  0  0  0
    2.8781   -2.7574    2.2453 C   0  0  1  0  0  0  0  0  0  0  0  0
    4.0916   -2.0415    1.5799 C   0  0  2  0  0  0  0  0  0  0  0  0
    3.9519   -1.1947    0.3293 C   0  0  0  0  0  0  0  0  0  0  0  0
    4.7030   -1.6681   -0.6969 C   0  0  0  0  0  0  0  0  0  0  0  0
    4.8931   -0.9306   -2.2435 Cl  0  0  0  0  0  0  0  0  0  0  0  0
    5.4077   -2.9896   -0.4194 C   0  0  1  0  0  0  0  0  0  0  0  0
    6.9309   -3.0349   -0.6265 C   0  0  0  0  0  0  0  0  0  0  0  0
    7.5722   -2.2585   -1.3580 O   0  0  0  0  0  0  0  0  0  0  0  0
    7.4708   -4.0551    0.0575 O   0  0  0  0  0  0  0  0  0  0  0  0
    8.8569   -4.2766    0.0108 C   0  0  0  0  0  0  0  0  0  0  0  0
    4.9491   -3.2274    1.0703 C   0  0  2  0  0  0  0  0  0  0  0  0
    4.2136   -4.5843    1.3583 C   0  0  1  0  0  0  0  0  0  0  0  0
    3.3266   -5.1505    0.1442 C   0  0  0  0  0  0  0  0  0  0  0  0
    2.4203   -4.1810   -0.6925 C   0  0  0  0  0  0  0  0  0  0  0  0
    5.3690   -5.5779    1.7927 C   0  0  0  0  0  0  0  0  0  0  0  0
    5.6648   -6.5658    1.1142 O   0  0  0  0  0  0  0  0  0  0  0  0
    6.0329   -5.2056    2.9066 O   0  0  0  0  0  0  0  0  0  0  0  0
    7.0765   -6.0470    3.4212 C   0  0  0  0  0  0  0  0  0  0  0  0
    3.3482   -4.1234    2.4645 N   0  0  0  0  0  0  0  0  0  0  0  0
    2.8303  -10.4415    1.6751 H   0  0  0  0  0  0  0  0  0  0  0  0
    3.5643   -9.0486    0.9087 H   0  0  0  0  0  0  0  0  0  0  0  0
    1.8097   -9.1399    1.0501 H   0  0  0  0  0  0  0  0  0  0  0  0
    2.0133   -9.1065    3.6339 H   0  0  0  0  0  0  0  0  0  0  0  0
    3.7750   -8.8911    3.4054 H   0  0  0  0  0  0  0  0  0  0  0  0
    3.4072   -6.9881    2.0752 H   0  0  0  0  0  0  0  0  0  0  0  0
    1.6538   -6.8798    2.4354 H   0  0  0  0  0  0  0  0  0  0  0  0
    1.4026   -2.0774    3.6219 H   0  0  0  0  0  0  0  0  0  0  0  0
    2.9785   -1.3823    3.9982 H   0  0  0  0  0  0  0  0  0  0  0  0
    1.9954   -2.7321    1.6229 H   0  0  0  0  0  0  0  0  0  0  0  0
    4.6693   -1.4511    2.2769 H   0  0  0  0  0  0  0  0  0  0  0  0
    3.3479   -0.3095    0.2875 H   0  0  0  0  0  0  0  0  0  0  0  0
    5.0351   -3.7322   -1.1328 H   0  0  0  0  0  0  0  0  0  0  0  0
    9.0935   -5.1313    0.6457 H   0  0  0  0  0  0  0  0  0  0  0  0
    9.3791   -3.3981    0.3894 H   0  0  0  0  0  0  0  0  0  0  0  0
    9.1789   -4.4868   -1.0105 H   0  0  0  0  0  0  0  0  0  0  0  0
    5.8789   -3.1296    1.6536 H   0  0  0  0  0  0  0  0  0  0  0  0
    3.9630   -5.7729   -0.5248 H   0  0  0  0  0  0  0  0  0  0  0  0
    2.6218   -5.8414    0.6024 H   0  0  0  0  0  0  0  0  0  0  0  0
    1.8078   -4.7732   -1.3881 H   0  0  0  0  0  0  0  0  0  0  0  0
    2.9718   -3.4750   -1.3262 H   0  0  0  0  0  0  0  0  0  0  0  0
    1.7543   -3.6273   -0.0414 H   0  0  0  0  0  0  0  0  0  0  0  0
    7.5386   -5.5899    4.3009 H   0  0  0  0  0  0  0  0  0  0  0  0
    7.8578   -6.2272    2.6871 H   0  0  0  0  0  0  0  0  0  0  0  0
    6.6698   -7.0088    3.7248 H   0  0  0  0  0  0  0  0  0  0  0  0
    2.4879   -3.5499    5.4619 H   0  0  0  0  0  0  0  0  0  0  0  0
  1  2  1  0
  1 27  1  0
  1 28  1  0
  1 29  1  0
  2  3  1  0
  2 30  1  0
  2 31  1  0
  3  4  1  0
  3 32  1  0
  3 33  1  0
  4  5  1  0
  5 26  1  0
  5  6  2  0
  6  7  1  0
  6 52  1  0
  7  8  1  0
  7 34  1  0
  7 35  1  0
  8 26  1  0
  8  9  1  0
  8 36  1  6
  9 18  1  0
  9 10  1  0
  9 37  1  1
 10 11  2  0
 10 38  1  0
 11 12  1  0
 11 13  1  0
 13 14  1  0
 13 18  1  0
 13 39  1  6
 14 15  2  0
 14 16  1  0
 16 17  1  0
 17 40  1  0
 17 41  1  0
 17 42  1  0
 18 19  1  0
 18 43  1  1
 19 20  1  6
 19 22  1  0
 19 26  1  0
 20 21  1  0
 20 44  1  0
 20 45  1  0
 21 46  1  0
 21 47  1  0
 21 48  1  0
 22 23  2  0
 22 24  1  0
 24 25  1  0
 25 49  1  0
 25 50  1  0
 25 51  1  0
M  CHG  1   6   1
M  END
>  <i_m_ct_stereo_status>  (356) 
1

>  <s_m_source_file>  (356) 
/var/tmp/pbs.5076255.sched01/tmppj12hgr0/126t4bdxmoi.sdf

>  <i_m_source_file_index>  (356) 
34

>  <i_lp_mmshare_version>  (356) 
48012

>  <i_f3d_flags>  (356) 
0

>  <s_epik_input>  (356) 
W0NIM11bQ0gyXVtDSDJdU0MoPU5bQ0gyXTEpTjJbQ0BdKFtDSDJdW0NIM10pKEMoPU8pT1tDSDNdKVtDQEhdKFtDQEBIXTNbQ0BIXTEyKVtDQEBIXShDKENsKT1bQ0hdMylDKD1PKU9bQ0gzXQ==

>  <s_epik_cmdline>  (356) 
J2VwaWtfcHl0aG9uJywgJy1waHQnLCAnMi4wJywgJy1waCcsICc3LjAnLCAnLXRuJywgJzgnLCAnLW1hJywgJzIwMCcsICctaW1hZScsICc8aW5maWxlLm1hZT4nLCAnLW9tYWUnLCAnPG91dGZpbGUubWFlPic=

>  <r_epik_Ionization_Penalty>  (356) 
1.32085

>  <r_epik_Ionization_Penalty_Charging>  (356) 
1.32085

>  <r_epik_Ionization_Penalty_Neutral>  (356) 
7.10415e-15

>  <r_epik_State_Penalty>  (356) 
1.39644

>  <r_epik_Charging_Adjusted_Penalty>  (356) 
2.71729

>  <i_epik_Tot_Q>  (356) 
1

>  <i_epik_Tot_abs_Q>  (356) 
1

>  <s_epik_Chemistry_Notes>  (356) 
This compound has an ester and may undergo hydrolysis at high or low pH. This compound has an imine and may undergo hydrolysis.

>  <s_lp_Force_Field>  (356) 
OPLS3e

>  <r_lp_Energy>  (356) 
20.2973

>  <b_lp_Chiralities_Consistent>  (356) 
1

>  <s_lp_Variant>  (356) 
113:0-2

>  <s_i_glide_gridfile>  (356) 
pfpi4k_grid

>  <i_i_glide_lignum>  (356) 
34

>  <i_i_glide_rotatable_bonds>  (356) 
8

>  <r_i_docking_score>  (356) 
-2.44446

>  <r_i_glide_ligand_efficiency>  (356) 
-0.0940177

>  <r_i_glide_ligand_efficiency_sa>  (356) 
-0.278527

>  <r_i_glide_ligand_efficiency_ln>  (356) 
-0.574074

>  <r_i_glide_gscore>  (356) 
-2.44446

>  <r_i_glide_lipo>  (356) 
-0.0794571

>  <r_i_glide_hbond>  (356) 
-0.16

>  <r_i_glide_metal>  (356) 
-0

>  <r_i_glide_rewards>  (356) 
-0.803571

>  <r_i_glide_evdw>  (356) 
-22.3181

>  <r_i_glide_ecoul>  (356) 
-5.14201

>  <r_i_glide_erotb>  (356) 
0.485775

>  <r_i_glide_esite>  (356) 
0

>  <r_i_glide_emodel>  (356) 
-24.6621

>  <r_i_glide_energy>  (356) 
-27.4601

>  <r_i_glide_einternal>  (356) 
10.4395

>  <r_i_glide_intrahb_reward>  (356) 
-0

>  <i_i_glide_confnum>  (356) 
2

>  <i_i_glide_posenum>  (356) 
2

>  <r_i_glide_eff_state_penalty>  (356) 
0

>  <ligand_id>  (356) 
113

>  <original_smiles>  (356) 
CCCSC1=NCC2C3C=C(Cl)C(C(=O)OC)C3C(CC)(C(=O)OC)N12

>  <smiles>  (356) 
[H]C1=C(Cl)C([H])(C(=O)OC([H])([H])[H])C2([H])C1([H])C1([H])N(C(SC([H])([H])C([H])([H])C([H])([H])[H])=[N+]([H])C1([H])[H])C2(C(=O)OC([H])([H])[H])C([H])([H])C([H])([H])[H]

$$$$
115:0:0
     RDKit          3D

 37 42  0  0  1  0  0  0  0  0999 V2000
    2.4459   -1.7736    1.6743 N   0  0  0  0  0  0  0  0  0  0  0  0
    3.8788   -2.1272    1.7129 C   0  0  2  0  0  0  0  0  0  0  0  0
    4.8731   -0.7653    1.5341 C   0  0  1  0  0  0  0  0  0  0  0  0
    5.7670   -0.7012    2.6250 O   0  0  0  0  0  0  0  0  0  0  0  0
    5.8282   -0.6920    0.1186 C   0  0  1  0  0  0  0  0  0  0  0  0
    6.5408   -2.0321   -0.0476 C   0  0  1  0  0  0  0  0  0  0  0  0
    5.6582   -3.1096    0.5441 C   0  0  2  0  0  0  0  0  0  0  0  0
    4.1810   -3.4337    0.7071 C   0  0  2  0  0  0  0  0  0  0  0  0
    3.7226   -3.7790   -0.9279 C   0  0  1  0  0  0  0  0  0  0  0  0
    2.3381   -3.5415   -1.5180 C   0  0  0  0  0  0  0  0  0  0  0  0
    2.6151   -3.2862   -3.0348 C   0  0  0  0  0  0  0  0  0  0  0  0
    4.1075   -2.8829   -3.2565 C   0  0  1  0  0  0  0  0  0  0  0  0
    4.2000   -1.7292   -4.0599 O   0  0  0  0  0  0  0  0  0  0  0  0
    4.6770   -2.6643   -1.8660 C   0  0  1  0  0  0  0  0  0  0  0  0
    5.1712   -1.0507   -1.2907 C   0  0  2  0  0  0  0  0  0  0  0  0
    5.0085   -2.0314   -0.4618 C   0  0  1  0  0  0  0  0  0  0  0  0
    6.0810   -2.6672   -1.4094 C   0  0  0  0  0  0  0  0  0  0  0  0
    2.1951   -1.4252    0.7527 H   0  0  0  0  0  0  0  0  0  0  0  0
    2.2637   -1.0691    2.3696 H   0  0  0  0  0  0  0  0  0  0  0  0
    4.0492   -2.4907    2.7231 H   0  0  0  0  0  0  0  0  0  0  0  0
    4.2598    0.1278    1.5934 H   0  0  0  0  0  0  0  0  0  0  0  0
    6.4913   -0.1346    2.3950 H   0  0  0  0  0  0  0  0  0  0  0  0
    6.4991    0.1686    0.0791 H   0  0  0  0  0  0  0  0  0  0  0  0
    7.6041   -2.1087    0.1849 H   0  0  0  0  0  0  0  0  0  0  0  0
    6.1435   -4.0560    0.2579 H   0  0  0  0  0  0  0  0  0  0  0  0
    4.0572   -4.3501    1.2914 H   0  0  0  0  0  0  0  0  0  0  0  0
    4.0572   -4.7989   -1.1253 H   0  0  0  0  0  0  0  0  0  0  0  0
    1.6623   -4.3799   -1.3504 H   0  0  0  0  0  0  0  0  0  0  0  0
    1.8982   -2.6677   -1.0734 H   0  0  0  0  0  0  0  0  0  0  0  0
    2.4327   -4.2046   -3.6018 H   0  0  0  0  0  0  0  0  0  0  0  0
    1.9094   -2.5626   -3.4465 H   0  0  0  0  0  0  0  0  0  0  0  0
    4.6466   -3.6877   -3.7550 H   0  0  0  0  0  0  0  0  0  0  0  0
    3.6659   -1.0551   -3.6646 H   0  0  0  0  0  0  0  0  0  0  0  0
    4.3808   -0.3334   -1.5668 H   0  0  0  0  0  0  0  0  0  0  0  0
    3.8980   -1.6119   -0.4051 H   0  0  0  0  0  0  0  0  0  0  0  0
    6.6848   -2.1951   -2.2000 H   0  0  0  0  0  0  0  0  0  0  0  0
    1.9012   -2.5966    1.8763 H   0  0  0  0  0  0  0  0  0  0  0  0
  1  2  1  0
  1 18  1  0
  1 19  1  0
  1 37  1  0
  2  8  1  0
  2  3  1  0
  2 20  1  1
  3  4  1  0
  3  5  1  0
  3 21  1  1
  4 22  1  0
  5 15  1  0
  5  6  1  0
  5 23  1  6
  6 17  1  0
  6  7  1  0
  6 24  1  1
  7 16  1  0
  7  8  1  0
  7 25  1  6
  8  9  1  0
  8 26  1  1
  9 14  1  0
  9 10  1  0
  9 27  1  6
 10 11  1  0
 10 28  1  0
 10 29  1  0
 11 12  1  0
 11 30  1  0
 11 31  1  0
 12 13  1  0
 12 14  1  0
 12 32  1  6
 13 33  1  0
 14 17  1  6
 14 15  1  0
 15 16  1  0
 15 34  1  1
 16 17  1  0
 16 35  1  6
 17 36  1  0
M  CHG  1   1   1
M  END
>  <i_m_ct_stereo_status>  (357) 
1

>  <s_m_source_file>  (357) 
/var/tmp/pbs.5076255.sched01/tmppj12hgr0/126t4bdxmoi.sdf

>  <i_m_source_file_index>  (357) 
37

>  <i_lp_mmshare_version>  (357) 
48012

>  <i_f3d_flags>  (357) 
0

>  <s_epik_input>  (357) 
W05IMl1bQ0BASF0xW0NAQEhdKFtPSF0pW0NASF0oW0NAQEhdMltDQEhdM1tDSF00NSlbQ0BIXTRbQ0BIXTNbQ0BASF0xW0NASF0oW0NAQF0yNTYpW0NIMl1bQ0gyXVtDQEhdNltPSF0=

>  <s_epik_cmdline>  (357) 
J2VwaWtfcHl0aG9uJywgJy1waHQnLCAnMi4wJywgJy1waCcsICc3LjAnLCAnLXRuJywgJzgnLCAnLW1hJywgJzIwMCcsICctaW1hZScsICc8aW5maWxlLm1hZT4nLCAnLW9tYWUnLCAnPG91dGZpbGUubWFlPic=

>  <r_epik_Ionization_Penalty>  (357) 
0.00445591

>  <r_epik_Ionization_Penalty_Charging>  (357) 
0.00445439

>  <r_epik_Ionization_Penalty_Neutral>  (357) 
1.52496e-06

>  <r_epik_State_Penalty>  (357) 
0.00321279

>  <r_epik_Charging_Adjusted_Penalty>  (357) 
0.00766718

>  <i_epik_Tot_Q>  (357) 
1

>  <i_epik_Tot_abs_Q>  (357) 
1

>  <s_lp_Force_Field>  (357) 
OPLS3e

>  <r_lp_Energy>  (357) 
523.16

>  <b_lp_Chiralities_Consistent>  (357) 
1

>  <s_lp_Variant>  (357) 
115:0-1

>  <s_i_glide_gridfile>  (357) 
pfpi4k_grid

>  <i_i_glide_lignum>  (357) 
37

>  <i_i_glide_rotatable_bonds>  (357) 
2

>  <r_i_docking_score>  (357) 
-5.59171

>  <r_i_glide_ligand_efficiency>  (357) 
-0.328924

>  <r_i_glide_ligand_efficiency_sa>  (357) 
-0.845756

>  <r_i_glide_ligand_efficiency_ln>  (357) 
-1.45875

>  <r_i_glide_gscore>  (357) 
-5.59171

>  <r_i_glide_lipo>  (357) 
-0.574543

>  <r_i_glide_hbond>  (357) 
-0.575786

>  <r_i_glide_metal>  (357) 
-0

>  <r_i_glide_rewards>  (357) 
-1.81149

>  <r_i_glide_evdw>  (357) 
-20.7386

>  <r_i_glide_ecoul>  (357) 
-10.3008

>  <r_i_glide_erotb>  (357) 
0

>  <r_i_glide_esite>  (357) 
-0.0478327

>  <r_i_glide_emodel>  (357) 
-41.6402

>  <r_i_glide_energy>  (357) 
-31.0395

>  <r_i_glide_einternal>  (357) 
0.682264

>  <r_i_glide_intrahb_reward>  (357) 
-0

>  <i_i_glide_confnum>  (357) 
2

>  <i_i_glide_posenum>  (357) 
1

>  <r_i_glide_eff_state_penalty>  (357) 
0

>  <ligand_id>  (357) 
115

>  <original_smiles>  (357) 
NC1C(O)C2C3C4C1C1CCC(O)C15C2C4C35

>  <smiles>  (357) 
[H]OC1([H])C([H])([H])C([H])([H])C2([H])C3([H])C4([H])C5([H])C([H])(C([H])(O[H])C3([H])[N+]([H])([H])[H])C3([H])C4([H])C5([H])C123

$$$$
115:0:1
     RDKit          3D

 37 42  0  0  1  0  0  0  0  0999 V2000
    3.0168   -1.0683   -2.3168 N   0  0  0  0  0  0  0  0  0  0  0  0
    4.3061   -1.7508   -2.1177 C   0  0  2  0  0  0  0  0  0  0  0  0
    4.1419   -3.4316   -2.0855 C   0  0  1  0  0  0  0  0  0  0  0  0
    4.9739   -3.9575   -3.0936 O   0  0  0  0  0  0  0  0  0  0  0  0
    4.5190   -4.2237   -0.6082 C   0  0  1  0  0  0  0  0  0  0  0  0
    5.8730   -3.7062   -0.1249 C   0  0  1  0  0  0  0  0  0  0  0  0
    6.0224   -2.2770   -0.6018 C   0  0  2  0  0  0  0  0  0  0  0  0
    5.1605   -1.0500   -0.8564 C   0  0  2  0  0  0  0  0  0  0  0  0
    4.7238   -0.5921    0.7633 C   0  0  1  0  0  0  0  0  0  0  0  0
    3.4332    0.1120    1.1482 C   0  0  0  0  0  0  0  0  0  0  0  0
    3.1869   -0.3481    2.6119 C   0  0  0  0  0  0  0  0  0  0  0  0
    3.9760   -1.6617    2.9049 C   0  0  1  0  0  0  0  0  0  0  0  0
    3.1370   -2.6327    3.4759 O   0  0  0  0  0  0  0  0  0  0  0  0
    4.5253   -2.1158    1.5664 C   0  0  1  0  0  0  0  0  0  0  0  0
    3.9736   -3.6116    0.7596 C   0  0  2  0  0  0  0  0  0  0  0  0
    4.6530   -2.7120    0.1123 C   0  0  1  0  0  0  0  0  0  0  0  0
    5.6640   -3.0129    1.2708 C   0  0  0  0  0  0  0  0  0  0  0  0
    2.3812   -1.2130   -1.5330 H   0  0  0  0  0  0  0  0  0  0  0  0
    2.5665   -1.4335   -3.1503 H   0  0  0  0  0  0  0  0  0  0  0  0
    4.8736   -1.5238   -3.0160 H   0  0  0  0  0  0  0  0  0  0  0  0
    3.1298   -3.6858   -2.3744 H   0  0  0  0  0  0  0  0  0  0  0  0
    4.8079   -4.8945   -3.1103 H   0  0  0  0  0  0  0  0  0  0  0  0
    4.4487   -5.3160   -0.6482 H   0  0  0  0  0  0  0  0  0  0  0  0
    6.7606   -4.3354   -0.2227 H   0  0  0  0  0  0  0  0  0  0  0  0
    6.9323   -1.9018   -0.1031 H   0  0  0  0  0  0  0  0  0  0  0  0
    5.7709   -0.2540   -1.2802 H   0  0  0  0  0  0  0  0  0  0  0  0
    5.5632   -0.0525    1.2050 H   0  0  0  0  0  0  0  0  0  0  0  0
    3.4957    1.1955    1.0661 H   0  0  0  0  0  0  0  0  0  0  0  0
    2.6111   -0.2340    0.5212 H   0  0  0  0  0  0  0  0  0  0  0  0
    3.5335    0.4253    3.2982 H   0  0  0  0  0  0  0  0  0  0  0  0
    2.1157   -0.4626    2.7969 H   0  0  0  0  0  0  0  0  0  0  0  0
    4.7930   -1.4523    3.5986 H   0  0  0  0  0  0  0  0  0  0  0  0
    3.6731   -3.3799    3.7094 H   0  0  0  0  0  0  0  0  0  0  0  0
    2.8781   -3.6421    0.8165 H   0  0  0  0  0  0  0  0  0  0  0  0
    3.5644   -2.2925   -0.1370 H   0  0  0  0  0  0  0  0  0  0  0  0
    5.6570   -3.8240    2.0226 H   0  0  0  0  0  0  0  0  0  0  0  0
    3.1584   -0.0797   -2.4243 H   0  0  0  0  0  0  0  0  0  0  0  0
  1  2  1  0
  1 18  1  0
  1 19  1  0
  1 37  1  0
  2  8  1  0
  2  3  1  0
  2 20  1  6
  3  4  1  0
  3  5  1  0
  3 21  1  6
  4 22  1  0
  5 15  1  0
  5  6  1  0
  5 23  1  6
  6 17  1  0
  6  7  1  0
  6 24  1  1
  7 16  1  0
  7  8  1  0
  7 25  1  1
  8  9  1  0
  8 26  1  6
  9 14  1  0
  9 10  1  0
  9 27  1  1
 10 11  1  0
 10 28  1  0
 10 29  1  0
 11 12  1  0
 11 30  1  0
 11 31  1  0
 12 13  1  0
 12 14  1  0
 12 32  1  1
 13 33  1  0
 14 17  1  1
 14 15  1  0
 15 16  1  0
 15 34  1  6
 16 17  1  0
 16 35  1  1
 17 36  1  0
M  CHG  1   1   1
M  END
>  <i_m_ct_stereo_status>  (358) 
1

>  <s_m_source_file>  (358) 
/var/tmp/pbs.5076255.sched01/tmppj12hgr0/126t4bdxmoi.sdf

>  <i_m_source_file_index>  (358) 
37

>  <i_lp_mmshare_version>  (358) 
48012

>  <i_f3d_flags>  (358) 
0

>  <s_epik_input>  (358) 
W05IMl1bQ0BASF0xW0NAQEhdKFtPSF0pW0NASF0oW0NAQEhdMltDQEhdM1tDSF00NSlbQ0BIXTRbQ0BIXTNbQ0BASF0xW0NASF0oW0NAQF0yNTYpW0NIMl1bQ0gyXVtDQEhdNltPSF0=

>  <s_epik_cmdline>  (358) 
J2VwaWtfcHl0aG9uJywgJy1waHQnLCAnMi4wJywgJy1waCcsICc3LjAnLCAnLXRuJywgJzgnLCAnLW1hJywgJzIwMCcsICctaW1hZScsICc8aW5maWxlLm1hZT4nLCAnLW9tYWUnLCAnPG91dGZpbGUubWFlPic=

>  <r_epik_Ionization_Penalty>  (358) 
0.00445591

>  <r_epik_Ionization_Penalty_Charging>  (358) 
0.00445439

>  <r_epik_Ionization_Penalty_Neutral>  (358) 
1.52496e-06

>  <r_epik_State_Penalty>  (358) 
0.00321279

>  <r_epik_Charging_Adjusted_Penalty>  (358) 
0.00766718

>  <i_epik_Tot_Q>  (358) 
1

>  <i_epik_Tot_abs_Q>  (358) 
1

>  <s_lp_Force_Field>  (358) 
OPLS3e

>  <r_lp_Energy>  (358) 
523.16

>  <b_lp_Chiralities_Consistent>  (358) 
1

>  <s_lp_Variant>  (358) 
115:0-1

>  <s_i_glide_gridfile>  (358) 
pfpi4k_grid

>  <i_i_glide_lignum>  (358) 
37

>  <i_i_glide_rotatable_bonds>  (358) 
2

>  <r_i_docking_score>  (358) 
-4.57358

>  <r_i_glide_ligand_efficiency>  (358) 
-0.269034

>  <r_i_glide_ligand_efficiency_sa>  (358) 
-0.691762

>  <r_i_glide_ligand_efficiency_ln>  (358) 
-1.19314

>  <r_i_glide_gscore>  (358) 
-4.57358

>  <r_i_glide_lipo>  (358) 
-0.309545

>  <r_i_glide_hbond>  (358) 
-0.294177

>  <r_i_glide_metal>  (358) 
-0

>  <r_i_glide_rewards>  (358) 
-1.81149

>  <r_i_glide_evdw>  (358) 
-18.5121

>  <r_i_glide_ecoul>  (358) 
-7.73611

>  <r_i_glide_erotb>  (358) 
0

>  <r_i_glide_esite>  (358) 
-0.0723394

>  <r_i_glide_emodel>  (358) 
-34.9022

>  <r_i_glide_energy>  (358) 
-26.2482

>  <r_i_glide_einternal>  (358) 
0.706386

>  <r_i_glide_intrahb_reward>  (358) 
-0

>  <i_i_glide_confnum>  (358) 
1

>  <i_i_glide_posenum>  (358) 
2

>  <r_i_glide_eff_state_penalty>  (358) 
0

>  <ligand_id>  (358) 
115

>  <original_smiles>  (358) 
NC1C(O)C2C3C4C1C1CCC(O)C15C2C4C35

>  <smiles>  (358) 
[H]OC1([H])C([H])([H])C([H])([H])C2([H])C3([H])C4([H])C5([H])C([H])(C([H])(O[H])C3([H])[N+]([H])([H])[H])C3([H])C4([H])C5([H])C123

$$$$
115:0:2
     RDKit          3D

 37 42  0  0  1  0  0  0  0  0999 V2000
    2.2737   -3.1124    2.1483 N   0  0  0  0  0  0  0  0  0  0  0  0
    3.7208   -3.3650    2.1828 C   0  0  2  0  0  0  0  0  0  0  0  0
    4.5650   -1.9974    2.7147 C   0  0  1  0  0  0  0  0  0  0  0  0
    5.3186   -2.3688    3.8459 O   0  0  0  0  0  0  0  0  0  0  0  0
    5.6216   -1.2505    1.5855 C   0  0  1  0  0  0  0  0  0  0  0  0
    6.4756   -2.3360    0.9372 C   0  0  1  0  0  0  0  0  0  0  0  0
    5.6643   -3.6169    0.9070 C   0  0  2  0  0  0  0  0  0  0  0  0
    4.2285   -4.0718    0.7460 C   0  0  2  0  0  0  0  0  0  0  0  0
    3.9397   -3.6965   -0.9301 C   0  0  1  0  0  0  0  0  0  0  0  0
    2.5894   -3.3233   -1.5140 C   0  0  0  0  0  0  0  0  0  0  0  0
    2.9581   -2.4257   -2.7371 C   0  0  0  0  0  0  0  0  0  0  0  0
    4.3981   -1.8518   -2.5747 C   0  0  1  0  0  0  0  0  0  0  0  0
    4.4216   -0.4577   -2.7759 O   0  0  0  0  0  0  0  0  0  0  0  0
    4.8270   -2.2194   -1.1685 C   0  0  1  0  0  0  0  0  0  0  0  0
    5.1084   -0.9926    0.0962 C   0  0  2  0  0  0  0  0  0  0  0  0
    4.9804   -2.2461    0.3989 C   0  0  1  0  0  0  0  0  0  0  0  0
    6.1841   -2.3390   -0.6066 C   0  0  0  0  0  0  0  0  0  0  0  0
    2.0794   -2.4041    1.4516 H   0  0  0  0  0  0  0  0  0  0  0  0
    1.9660   -2.7951    3.0550 H   0  0  0  0  0  0  0  0  0  0  0  0
    3.8497   -4.1282    2.9512 H   0  0  0  0  0  0  0  0  0  0  0  0
    3.8533   -1.2565    3.0801 H   0  0  0  0  0  0  0  0  0  0  0  0
    5.7939   -1.6094    4.1457 H   0  0  0  0  0  0  0  0  0  0  0  0
    6.1982   -0.4157    1.9884 H   0  0  0  0  0  0  0  0  0  0  0  0
    7.5215   -2.4502    1.2345 H   0  0  0  0  0  0  0  0  0  0  0  0
    6.2651   -4.3198    0.3040 H   0  0  0  0  0  0  0  0  0  0  0  0
    4.1498   -5.1565    0.8557 H   0  0  0  0  0  0  0  0  0  0  0  0
    4.3827   -4.4855   -1.5398 H   0  0  0  0  0  0  0  0  0  0  0  0
    1.9711   -4.1791   -1.7877 H   0  0  0  0  0  0  0  0  0  0  0  0
    2.0412   -2.7256   -0.7920 H   0  0  0  0  0  0  0  0  0  0  0  0
    2.9154   -3.0147   -3.6557 H   0  0  0  0  0  0  0  0  0  0  0  0
    2.2221   -1.6269   -2.8512 H   0  0  0  0  0  0  0  0  0  0  0  0
    5.0652   -2.3135   -3.3009 H   0  0  0  0  0  0  0  0  0  0  0  0
    3.7347   -0.0627   -2.2614 H   0  0  0  0  0  0  0  0  0  0  0  0
    4.2773   -0.2669    0.0750 H   0  0  0  0  0  0  0  0  0  0  0  0
    3.8304   -1.9622    0.5075 H   0  0  0  0  0  0  0  0  0  0  0  0
    6.8082   -1.5408   -1.0422 H   0  0  0  0  0  0  0  0  0  0  0  0
    1.7991   -3.9684    1.9075 H   0  0  0  0  0  0  0  0  0  0  0  0
  1  2  1  0
  1 18  1  0
  1 19  1  0
  1 37  1  0
  2  8  1  0
  2  3  1  0
  2 20  1  1
  3  4  1  0
  3  5  1  0
  3 21  1  1
  4 22  1  0
  5 15  1  0
  5  6  1  0
  5 23  1  1
  6 17  1  0
  6  7  1  0
  6 24  1  6
  7 16  1  0
  7  8  1  0
  7 25  1  6
  8  9  1  0
  8 26  1  1
  9 14  1  0
  9 10  1  0
  9 27  1  6
 10 11  1  0
 10 28  1  0
 10 29  1  0
 11 12  1  0
 11 30  1  0
 11 31  1  0
 12 13  1  0
 12 14  1  0
 12 32  1  6
 13 33  1  0
 14 17  1  6
 14 15  1  0
 15 16  1  0
 15 34  1  1
 16 17  1  0
 16 35  1  6
 17 36  1  0
M  CHG  1   1   1
M  END
>  <i_m_ct_stereo_status>  (359) 
1

>  <s_m_source_file>  (359) 
/var/tmp/pbs.5076255.sched01/tmppj12hgr0/126t4bdxmoi.sdf

>  <i_m_source_file_index>  (359) 
37

>  <i_lp_mmshare_version>  (359) 
48012

>  <i_f3d_flags>  (359) 
0

>  <s_epik_input>  (359) 
W05IMl1bQ0BASF0xW0NAQEhdKFtPSF0pW0NASF0oW0NAQEhdMltDQEhdM1tDSF00NSlbQ0BIXTRbQ0BIXTNbQ0BASF0xW0NASF0oW0NAQF0yNTYpW0NIMl1bQ0gyXVtDQEhdNltPSF0=

>  <s_epik_cmdline>  (359) 
J2VwaWtfcHl0aG9uJywgJy1waHQnLCAnMi4wJywgJy1waCcsICc3LjAnLCAnLXRuJywgJzgnLCAnLW1hJywgJzIwMCcsICctaW1hZScsICc8aW5maWxlLm1hZT4nLCAnLW9tYWUnLCAnPG91dGZpbGUubWFlPic=

>  <r_epik_Ionization_Penalty>  (359) 
0.00445591

>  <r_epik_Ionization_Penalty_Charging>  (359) 
0.00445439

>  <r_epik_Ionization_Penalty_Neutral>  (359) 
1.52496e-06

>  <r_epik_State_Penalty>  (359) 
0.00321279

>  <r_epik_Charging_Adjusted_Penalty>  (359) 
0.00766718

>  <i_epik_Tot_Q>  (359) 
1

>  <i_epik_Tot_abs_Q>  (359) 
1

>  <s_lp_Force_Field>  (359) 
OPLS3e

>  <r_lp_Energy>  (359) 
523.16

>  <b_lp_Chiralities_Consistent>  (359) 
1

>  <s_lp_Variant>  (359) 
115:0-1

>  <s_i_glide_gridfile>  (359) 
pfpi4k_grid

>  <i_i_glide_lignum>  (359) 
37

>  <i_i_glide_rotatable_bonds>  (359) 
2

>  <r_i_docking_score>  (359) 
-3.94472

>  <r_i_glide_ligand_efficiency>  (359) 
-0.232042

>  <r_i_glide_ligand_efficiency_sa>  (359) 
-0.596646

>  <r_i_glide_ligand_efficiency_ln>  (359) 
-1.02909

>  <r_i_glide_gscore>  (359) 
-3.94472

>  <r_i_glide_lipo>  (359) 
-0.526484

>  <r_i_glide_hbond>  (359) 
0

>  <r_i_glide_metal>  (359) 
-0

>  <r_i_glide_rewards>  (359) 
-1.81149

>  <r_i_glide_evdw>  (359) 
-18.5333

>  <r_i_glide_ecoul>  (359) 
-4.4716

>  <r_i_glide_erotb>  (359) 
0

>  <r_i_glide_esite>  (359) 
-0.0093333

>  <r_i_glide_emodel>  (359) 
-30.5574

>  <r_i_glide_energy>  (359) 
-23.0049

>  <r_i_glide_einternal>  (359) 
0.450119

>  <r_i_glide_intrahb_reward>  (359) 
-0

>  <i_i_glide_confnum>  (359) 
1

>  <i_i_glide_posenum>  (359) 
13

>  <r_i_glide_eff_state_penalty>  (359) 
0

>  <ligand_id>  (359) 
115

>  <original_smiles>  (359) 
NC1C(O)C2C3C4C1C1CCC(O)C15C2C4C35

>  <smiles>  (359) 
[H]OC1([H])C([H])([H])C([H])([H])C2([H])C3([H])C4([H])C5([H])C([H])(C([H])(O[H])C3([H])[N+]([H])([H])[H])C3([H])C4([H])C5([H])C123

$$$$
116:0:0
     RDKit          3D

 52 57  0  0  1  0  0  0  0  0999 V2000
    4.9264   -0.9360   -1.6797 C   0  0  0  0  0  0  0  0  0  0  0  0
    4.9313   -1.2659   -0.1738 C   0  0  1  0  0  0  0  0  0  0  0  0
    5.7828   -0.3425    0.4706 O   0  0  0  0  0  0  0  0  0  0  0  0
    3.5257   -1.2199    0.4418 C   0  0  0  0  0  0  0  0  0  0  0  0
    2.9652   -2.6572    0.3771 C   0  0  0  0  0  0  0  0  0  0  0  0
    4.0994   -3.5480   -0.1543 C   0  0  1  0  0  0  0  0  0  0  0  0
    5.3327   -2.7046    0.0653 C   0  0  0  0  0  0  0  0  0  0  0  0
    6.4865   -3.1715    0.5689 C   0  0  0  0  0  0  0  0  0  0  0  0
    6.6694   -4.6297    0.9324 C   0  0  0  0  0  0  0  0  0  0  0  0
    5.3393   -5.3197    1.3154 C   0  0  1  0  0  0  0  0  0  0  0  0
    4.9813   -5.1912    2.8342 C   0  0  1  0  0  0  0  0  0  0  0  0
    4.8528   -3.7506    3.3765 C   0  0  0  0  0  0  0  0  0  0  0  0
    3.9754   -3.8101    4.6235 C   0  0  0  0  0  0  0  0  0  0  0  0
    3.1864   -5.0858    4.4358 C   0  0  0  0  0  0  0  0  0  0  0  0
    2.2644   -5.4107    5.1765 O   0  0  0  0  0  0  0  0  0  0  0  0
    3.6886   -5.9177    3.2635 C   0  0  1  0  0  0  0  0  0  0  0  0
    2.6988   -6.0100    2.1396 C   0  0  0  0  0  0  0  0  0  0  0  0
    2.8892   -5.5819    0.8647 C   0  0  0  0  0  0  0  0  0  0  0  0
    1.7474   -5.8512    0.1159 N   0  0  0  0  0  0  0  0  0  0  0  0
    0.8927   -6.4707    0.8657 N   0  0  0  0  0  0  0  0  0  0  0  0
    1.4362   -6.5893    2.1057 N   0  0  0  0  0  0  0  0  0  0  0  0
    0.6964   -7.2579    3.1064 C   0  0  0  0  0  0  0  0  0  0  0  0
    1.3689   -8.0880    4.0335 C   0  0  0  0  0  0  0  0  0  0  0  0
    0.6355   -8.7334    5.0372 C   0  0  0  0  0  0  0  0  0  0  0  0
   -0.7520   -8.5588    5.0533 C   0  0  0  0  0  0  0  0  0  0  0  0
   -1.3490   -7.7433    4.0779 C   0  0  0  0  0  0  0  0  0  0  0  0
   -0.6515   -7.0862    3.1328 N   0  0  0  0  0  0  0  0  0  0  0  0
    4.1768   -5.0278    0.3170 C   0  0  1  0  0  0  0  0  0  0  0  0
    4.2083   -1.5377   -2.2380 H   0  0  0  0  0  0  0  0  0  0  0  0
    5.9096   -1.1144   -2.1124 H   0  0  0  0  0  0  0  0  0  0  0  0
    4.6635    0.1077   -1.8657 H   0  0  0  0  0  0  0  0  0  0  0  0
    5.5642    0.5226    0.1440 H   0  0  0  0  0  0  0  0  0  0  0  0
    3.5797   -0.9105    1.4847 H   0  0  0  0  0  0  0  0  0  0  0  0
    2.8776   -0.5005   -0.0505 H   0  0  0  0  0  0  0  0  0  0  0  0
    2.6038   -2.9592    1.3608 H   0  0  0  0  0  0  0  0  0  0  0  0
    2.1176   -2.7138   -0.3014 H   0  0  0  0  0  0  0  0  0  0  0  0
    3.9565   -3.5898   -1.2346 H   0  0  0  0  0  0  0  0  0  0  0  0
    7.3136   -2.5058    0.7689 H   0  0  0  0  0  0  0  0  0  0  0  0
    7.1096   -5.1343    0.0759 H   0  0  0  0  0  0  0  0  0  0  0  0
    7.3818   -4.7174    1.7532 H   0  0  0  0  0  0  0  0  0  0  0  0
    5.5325   -6.3868    1.2034 H   0  0  0  0  0  0  0  0  0  0  0  0
    5.7856   -5.6606    3.4049 H   0  0  0  0  0  0  0  0  0  0  0  0
    5.8197   -3.3112    3.6022 H   0  0  0  0  0  0  0  0  0  0  0  0
    4.3714   -3.1006    2.6539 H   0  0  0  0  0  0  0  0  0  0  0  0
    4.5742   -3.9001    5.5305 H   0  0  0  0  0  0  0  0  0  0  0  0
    3.3168   -2.9441    4.7171 H   0  0  0  0  0  0  0  0  0  0  0  0
    3.9623   -6.9106    3.6061 H   0  0  0  0  0  0  0  0  0  0  0  0
    2.4374   -8.2301    3.9986 H   0  0  0  0  0  0  0  0  0  0  0  0
    1.1334   -9.3503    5.7717 H   0  0  0  0  0  0  0  0  0  0  0  0
   -1.3525   -9.0656    5.7856 H   0  0  0  0  0  0  0  0  0  0  0  0
   -2.4197   -7.6122    4.0614 H   0  0  0  0  0  0  0  0  0  0  0  0
    4.4201   -5.6032   -0.5765 H   0  0  0  0  0  0  0  0  0  0  0  0
  1  2  1  0
  1 29  1  0
  1 30  1  0
  1 31  1  0
  2  7  1  0
  2  3  1  1
  2  4  1  0
  3 32  1  0
  4  5  1  0
  4 33  1  0
  4 34  1  0
  5  6  1  0
  5 35  1  0
  5 36  1  0
  6 28  1  0
  6  7  1  0
  6 37  1  6
  7  8  2  0
  8  9  1  0
  8 38  1  0
  9 10  1  0
  9 39  1  0
  9 40  1  0
 10 28  1  0
 10 11  1  0
 10 41  1  1
 11 16  1  0
 11 12  1  0
 11 42  1  1
 12 13  1  0
 12 43  1  0
 12 44  1  0
 13 14  1  0
 13 45  1  0
 13 46  1  0
 14 15  2  0
 14 16  1  0
 16 17  1  0
 16 47  1  1
 17 21  1  0
 17 18  2  0
 18 19  1  0
 18 28  1  0
 19 20  2  0
 20 21  1  0
 21 22  1  0
 22 27  1  0
 22 23  2  0
 23 24  1  0
 23 48  1  0
 24 25  2  0
 24 49  1  0
 25 26  1  0
 25 50  1  0
 26 27  2  0
 26 51  1  0
 28 52  1  6
M  END
>  <i_m_ct_stereo_status>  (360) 
1

>  <s_m_source_file>  (360) 
/var/tmp/pbs.5076255.sched01/tmppj12hgr0/126t4bdxmoi.sdf

>  <i_m_source_file_index>  (360) 
38

>  <i_lp_mmshare_version>  (360) 
48012

>  <i_f3d_flags>  (360) 
0

>  <s_epik_input>  (360) 
W0NIMl0xW0NIMl1bQ0BAXShbQ0gzXSkoW09IXSlDKFtDQEhdMTIpPVtDSF1bQ0gyXVtDQEhdM1tDQEBIXTRbQ0BASF0oQyg9TylbQ0gyXVtDSDJdNCljNWMoW0NAQEhdMjMpbm5uNS1jNltjSF1bY0hdW2NIXVtjSF1uNg==

>  <s_epik_cmdline>  (360) 
J2VwaWtfcHl0aG9uJywgJy1waHQnLCAnMi4wJywgJy1waCcsICc3LjAnLCAnLXRuJywgJzgnLCAnLW1hJywgJzIwMCcsICctaW1hZScsICc8aW5maWxlLm1hZT4nLCAnLW9tYWUnLCAnPG91dGZpbGUubWFlPic=

>  <r_lp_tautomer_probability>  (360) 
1

>  <r_epik_Ionization_Penalty>  (360) 
3.14572e-05

>  <r_epik_Ionization_Penalty_Charging>  (360) 
0

>  <r_epik_Ionization_Penalty_Neutral>  (360) 
3.14572e-05

>  <r_epik_State_Penalty>  (360) 
-0

>  <r_epik_Charging_Adjusted_Penalty>  (360) 
0

>  <i_epik_Tot_Q>  (360) 
0

>  <i_epik_Tot_abs_Q>  (360) 
0

>  <s_lp_Force_Field>  (360) 
OPLS3e

>  <r_lp_Energy>  (360) 
37.4272

>  <b_lp_Chiralities_Consistent>  (360) 
1

>  <s_lp_Variant>  (360) 
116:0-1

>  <s_i_glide_gridfile>  (360) 
pfpi4k_grid

>  <i_i_glide_lignum>  (360) 
38

>  <i_i_glide_rotatable_bonds>  (360) 
2

>  <r_i_docking_score>  (360) 
-3.85172

>  <r_i_glide_ligand_efficiency>  (360) 
-0.137562

>  <r_i_glide_ligand_efficiency_sa>  (360) 
-0.417718

>  <r_i_glide_ligand_efficiency_ln>  (360) 
-0.889091

>  <r_i_glide_gscore>  (360) 
-3.85172

>  <r_i_glide_lipo>  (360) 
-0.355164

>  <r_i_glide_hbond>  (360) 
-0.417087

>  <r_i_glide_metal>  (360) 
-0

>  <r_i_glide_rewards>  (360) 
-0.842376

>  <r_i_glide_evdw>  (360) 
-26.7672

>  <r_i_glide_ecoul>  (360) 
-5.20903

>  <r_i_glide_erotb>  (360) 
0.136596

>  <r_i_glide_esite>  (360) 
-0.253978

>  <r_i_glide_emodel>  (360) 
-39.6925

>  <r_i_glide_energy>  (360) 
-31.9762

>  <r_i_glide_einternal>  (360) 
0.547727

>  <r_i_glide_intrahb_reward>  (360) 
-0

>  <i_i_glide_confnum>  (360) 
3

>  <i_i_glide_posenum>  (360) 
8

>  <r_i_glide_eff_state_penalty>  (360) 
0

>  <ligand_id>  (360) 
116

>  <original_smiles>  (360) 
CC1(O)CCC2C1=CCC1C3CCC(=O)C3c3c(nnn3-c3ccccn3)C21

>  <smiles>  (360) 
[H]OC1(C([H])([H])[H])C2=C([H])C([H])([H])C3([H])C([H])(c4nnn(-c5nc([H])c([H])c([H])c5[H])c4C4([H])C(=O)C([H])([H])C([H])([H])C43[H])C2([H])C([H])([H])C1([H])[H]

$$$$
116:0:1
     RDKit          3D

 52 57  0  0  1  0  0  0  0  0999 V2000
    5.0189   -3.0636   -3.4756 C   0  0  0  0  0  0  0  0  0  0  0  0
    4.3273   -2.2080   -2.4004 C   0  0  1  0  0  0  0  0  0  0  0  0
    4.4150   -0.8533   -2.7958 O   0  0  0  0  0  0  0  0  0  0  0  0
    2.8772   -2.6788   -2.2009 C   0  0  0  0  0  0  0  0  0  0  0  0
    2.8836   -3.6353   -0.9733 C   0  0  0  0  0  0  0  0  0  0  0  0
    4.3508   -3.7011   -0.4888 C   0  0  1  0  0  0  0  0  0  0  0  0
    4.9543   -2.4385   -1.0481 C   0  0  0  0  0  0  0  0  0  0  0  0
    5.7435   -1.6010   -0.3551 C   0  0  0  0  0  0  0  0  0  0  0  0
    6.1599   -1.8799    1.0690 C   0  0  0  0  0  0  0  0  0  0  0  0
    5.1182   -2.7347    1.8192 C   0  0  1  0  0  0  0  0  0  0  0  0
    3.9945   -1.8885    2.5015 C   0  0  1  0  0  0  0  0  0  0  0  0
    3.1787   -0.9618    1.5681 C   0  0  0  0  0  0  0  0  0  0  0  0
    1.8373   -0.7011    2.2579 C   0  0  0  0  0  0  0  0  0  0  0  0
    1.6980   -1.8623    3.2106 C   0  0  0  0  0  0  0  0  0  0  0  0
    0.6705   -2.0655    3.8479 O   0  0  0  0  0  0  0  0  0  0  0  0
    2.9650   -2.7101    3.3016 C   0  0  1  0  0  0  0  0  0  0  0  0
    2.8038   -4.1020    2.7697 C   0  0  0  0  0  0  0  0  0  0  0  0
    3.5104   -4.6434    1.7407 C   0  0  0  0  0  0  0  0  0  0  0  0
    3.1007   -5.9534    1.5310 N   0  0  0  0  0  0  0  0  0  0  0  0
    2.1995   -6.2503    2.4079 N   0  0  0  0  0  0  0  0  0  0  0  0
    2.0047   -5.1581    3.2107 N   0  0  0  0  0  0  0  0  0  0  0  0
    1.1130   -5.2493    4.3226 C   0  0  0  0  0  0  0  0  0  0  0  0
    1.2902   -4.4353    5.4664 C   0  0  0  0  0  0  0  0  0  0  0  0
    0.3764   -4.5084    6.5259 C   0  0  0  0  0  0  0  0  0  0  0  0
   -0.6533   -5.4581    6.4611 C   0  0  0  0  0  0  0  0  0  0  0  0
   -0.7336   -6.2615    5.3095 C   0  0  0  0  0  0  0  0  0  0  0  0
    0.0991   -6.1541    4.2628 N   0  0  0  0  0  0  0  0  0  0  0  0
    4.6383   -3.9788    1.0131 C   0  0  1  0  0  0  0  0  0  0  0  0
    4.9050   -4.1406   -3.3024 H   0  0  0  0  0  0  0  0  0  0  0  0
    6.0823   -2.8375   -3.5209 H   0  0  0  0  0  0  0  0  0  0  0  0
    4.5887   -2.8479   -4.4558 H   0  0  0  0  0  0  0  0  0  0  0  0
    3.7896   -0.3546   -2.2917 H   0  0  0  0  0  0  0  0  0  0  0  0
    2.2614   -1.8184   -1.9686 H   0  0  0  0  0  0  0  0  0  0  0  0
    2.4415   -3.1277   -3.0965 H   0  0  0  0  0  0  0  0  0  0  0  0
    2.2015   -3.2741   -0.2035 H   0  0  0  0  0  0  0  0  0  0  0  0
    2.5208   -4.6357   -1.1962 H   0  0  0  0  0  0  0  0  0  0  0  0
    4.8185   -4.5236   -1.0375 H   0  0  0  0  0  0  0  0  0  0  0  0
    6.0717   -0.6673   -0.7814 H   0  0  0  0  0  0  0  0  0  0  0  0
    7.1177   -2.4003    1.0413 H   0  0  0  0  0  0  0  0  0  0  0  0
    6.3174   -0.9353    1.5916 H   0  0  0  0  0  0  0  0  0  0  0  0
    5.6604   -3.1544    2.6675 H   0  0  0  0  0  0  0  0  0  0  0  0
    4.4758   -1.2333    3.2289 H   0  0  0  0  0  0  0  0  0  0  0  0
    3.7112   -0.0301    1.3516 H   0  0  0  0  0  0  0  0  0  0  0  0
    2.9660   -1.4578    0.6235 H   0  0  0  0  0  0  0  0  0  0  0  0
    1.8469    0.2191    2.8415 H   0  0  0  0  0  0  0  0  0  0  0  0
    0.9986   -0.6766    1.5596 H   0  0  0  0  0  0  0  0  0  0  0  0
    3.3394   -2.7420    4.3196 H   0  0  0  0  0  0  0  0  0  0  0  0
    2.0943   -3.7171    5.5495 H   0  0  0  0  0  0  0  0  0  0  0  0
    0.4800   -3.8350    7.3629 H   0  0  0  0  0  0  0  0  0  0  0  0
   -1.3564   -5.5499    7.2707 H   0  0  0  0  0  0  0  0  0  0  0  0
   -1.5012   -7.0178    5.2236 H   0  0  0  0  0  0  0  0  0  0  0  0
    5.4755   -4.6744    1.0312 H   0  0  0  0  0  0  0  0  0  0  0  0
  1  2  1  0
  1 29  1  0
  1 30  1  0
  1 31  1  0
  2  7  1  0
  2  3  1  6
  2  4  1  0
  3 32  1  0
  4  5  1  0
  4 33  1  0
  4 34  1  0
  5  6  1  0
  5 35  1  0
  5 36  1  0
  6 28  1  0
  6  7  1  0
  6 37  1  6
  7  8  2  0
  8  9  1  0
  8 38  1  0
  9 10  1  0
  9 39  1  0
  9 40  1  0
 10 28  1  0
 10 11  1  0
 10 41  1  1
 11 16  1  0
 11 12  1  0
 11 42  1  1
 12 13  1  0
 12 43  1  0
 12 44  1  0
 13 14  1  0
 13 45  1  0
 13 46  1  0
 14 15  2  0
 14 16  1  0
 16 17  1  0
 16 47  1  1
 17 21  1  0
 17 18  2  0
 18 19  1  0
 18 28  1  0
 19 20  2  0
 20 21  1  0
 21 22  1  0
 22 27  1  0
 22 23  2  0
 23 24  1  0
 23 48  1  0
 24 25  2  0
 24 49  1  0
 25 26  1  0
 25 50  1  0
 26 27  2  0
 26 51  1  0
 28 52  1  6
M  END
>  <i_m_ct_stereo_status>  (361) 
1

>  <s_m_source_file>  (361) 
/var/tmp/pbs.5076255.sched01/tmppj12hgr0/126t4bdxmoi.sdf

>  <i_m_source_file_index>  (361) 
38

>  <i_lp_mmshare_version>  (361) 
48012

>  <i_f3d_flags>  (361) 
0

>  <s_epik_input>  (361) 
W0NIMl0xW0NIMl1bQ0BAXShbQ0gzXSkoW09IXSlDKFtDQEhdMTIpPVtDSF1bQ0gyXVtDQEhdM1tDQEBIXTRbQ0BASF0oQyg9TylbQ0gyXVtDSDJdNCljNWMoW0NAQEhdMjMpbm5uNS1jNltjSF1bY0hdW2NIXVtjSF1uNg==

>  <s_epik_cmdline>  (361) 
J2VwaWtfcHl0aG9uJywgJy1waHQnLCAnMi4wJywgJy1waCcsICc3LjAnLCAnLXRuJywgJzgnLCAnLW1hJywgJzIwMCcsICctaW1hZScsICc8aW5maWxlLm1hZT4nLCAnLW9tYWUnLCAnPG91dGZpbGUubWFlPic=

>  <r_lp_tautomer_probability>  (361) 
1

>  <r_epik_Ionization_Penalty>  (361) 
3.14572e-05

>  <r_epik_Ionization_Penalty_Charging>  (361) 
0

>  <r_epik_Ionization_Penalty_Neutral>  (361) 
3.14572e-05

>  <r_epik_State_Penalty>  (361) 
-0

>  <r_epik_Charging_Adjusted_Penalty>  (361) 
0

>  <i_epik_Tot_Q>  (361) 
0

>  <i_epik_Tot_abs_Q>  (361) 
0

>  <s_lp_Force_Field>  (361) 
OPLS3e

>  <r_lp_Energy>  (361) 
37.4272

>  <b_lp_Chiralities_Consistent>  (361) 
1

>  <s_lp_Variant>  (361) 
116:0-1

>  <s_i_glide_gridfile>  (361) 
pfpi4k_grid

>  <i_i_glide_lignum>  (361) 
38

>  <i_i_glide_rotatable_bonds>  (361) 
2

>  <r_i_docking_score>  (361) 
-2.86958

>  <r_i_glide_ligand_efficiency>  (361) 
-0.102485

>  <r_i_glide_ligand_efficiency_sa>  (361) 
-0.311205

>  <r_i_glide_ligand_efficiency_ln>  (361) 
-0.662384

>  <r_i_glide_gscore>  (361) 
-2.86958

>  <r_i_glide_lipo>  (361) 
-0.548356

>  <r_i_glide_hbond>  (361) 
0

>  <r_i_glide_metal>  (361) 
-0

>  <r_i_glide_rewards>  (361) 
-0.842376

>  <r_i_glide_evdw>  (361) 
-28.5955

>  <r_i_glide_ecoul>  (361) 
-1.08637

>  <r_i_glide_erotb>  (361) 
0.136596

>  <r_i_glide_esite>  (361) 
-0.0227177

>  <r_i_glide_emodel>  (361) 
-34.9213

>  <r_i_glide_energy>  (361) 
-29.6819

>  <r_i_glide_einternal>  (361) 
0.745456

>  <r_i_glide_intrahb_reward>  (361) 
-0

>  <i_i_glide_confnum>  (361) 
6

>  <i_i_glide_posenum>  (361) 
14

>  <r_i_glide_eff_state_penalty>  (361) 
0

>  <ligand_id>  (361) 
116

>  <original_smiles>  (361) 
CC1(O)CCC2C1=CCC1C3CCC(=O)C3c3c(nnn3-c3ccccn3)C21

>  <smiles>  (361) 
[H]OC1(C([H])([H])[H])C2=C([H])C([H])([H])C3([H])C([H])(c4nnn(-c5nc([H])c([H])c([H])c5[H])c4C4([H])C(=O)C([H])([H])C([H])([H])C43[H])C2([H])C([H])([H])C1([H])[H]

$$$$
116:0:2
     RDKit          3D

 52 57  0  0  1  0  0  0  0  0999 V2000
    4.7502   -3.4101   -3.5087 C   0  0  0  0  0  0  0  0  0  0  0  0
    4.4428   -2.5630   -2.2588 C   0  0  1  0  0  0  0  0  0  0  0  0
    4.8076   -1.2257   -2.5401 O   0  0  0  0  0  0  0  0  0  0  0  0
    2.9667   -2.6772   -1.8482 C   0  0  0  0  0  0  0  0  0  0  0  0
    2.8678   -3.7795   -0.7612 C   0  0  0  0  0  0  0  0  0  0  0  0
    4.3179   -4.2306   -0.4871 C   0  0  1  0  0  0  0  0  0  0  0  0
    5.1486   -3.1002   -1.0393 C   0  0  0  0  0  0  0  0  0  0  0  0
    6.2099   -2.5739   -0.4130 C   0  0  0  0  0  0  0  0  0  0  0  0
    6.7050   -3.1056    0.9078 C   0  0  0  0  0  0  0  0  0  0  0  0
    5.5877   -3.7582    1.7483 C   0  0  1  0  0  0  0  0  0  0  0  0
    4.8179   -2.7524    2.6690 C   0  0  1  0  0  0  0  0  0  0  0  0
    4.1471   -1.5600    1.9501 C   0  0  0  0  0  0  0  0  0  0  0  0
    3.0146   -1.0683    2.8532 C   0  0  0  0  0  0  0  0  0  0  0  0
    2.7082   -2.2671    3.7254 C   0  0  0  0  0  0  0  0  0  0  0  0
    1.7642   -2.3007    4.5094 O   0  0  0  0  0  0  0  0  0  0  0  0
    3.7233   -3.3896    3.5545 C   0  0  1  0  0  0  0  0  0  0  0  0
    3.1459   -4.6253    2.9316 C   0  0  0  0  0  0  0  0  0  0  0  0
    3.5477   -5.1958    1.7653 C   0  0  0  0  0  0  0  0  0  0  0  0
    2.7883   -6.3321    1.5193 N   0  0  0  0  0  0  0  0  0  0  0  0
    1.9522   -6.4932    2.4957 N   0  0  0  0  0  0  0  0  0  0  0  0
    2.1577   -5.4862    3.3948 N   0  0  0  0  0  0  0  0  0  0  0  0
    1.4135   -5.4715    4.6068 C   0  0  0  0  0  0  0  0  0  0  0  0
    2.0403   -5.0821    5.8119 C   0  0  0  0  0  0  0  0  0  0  0  0
    1.2983   -5.0586    7.0051 C   0  0  0  0  0  0  0  0  0  0  0  0
   -0.0460   -5.4588    6.9667 C   0  0  0  0  0  0  0  0  0  0  0  0
   -0.5833   -5.8570    5.7311 C   0  0  0  0  0  0  0  0  0  0  0  0
    0.1122   -5.8538    4.5787 N   0  0  0  0  0  0  0  0  0  0  0  0
    4.7071   -4.7442    0.9274 C   0  0  1  0  0  0  0  0  0  0  0  0
    4.4129   -4.4419   -3.4058 H   0  0  0  0  0  0  0  0  0  0  0  0
    5.8227   -3.4464   -3.7036 H   0  0  0  0  0  0  0  0  0  0  0  0
    4.2557   -2.9978   -4.3890 H   0  0  0  0  0  0  0  0  0  0  0  0
    4.2306   -0.6447   -2.0651 H   0  0  0  0  0  0  0  0  0  0  0  0
    2.6440   -1.7426   -1.3969 H   0  0  0  0  0  0  0  0  0  0  0  0
    2.2964   -2.8535   -2.6907 H   0  0  0  0  0  0  0  0  0  0  0  0
    2.3752   -3.3849    0.1297 H   0  0  0  0  0  0  0  0  0  0  0  0
    2.2625   -4.6182   -1.1044 H   0  0  0  0  0  0  0  0  0  0  0  0
    4.5077   -5.0661   -1.1586 H   0  0  0  0  0  0  0  0  0  0  0  0
    6.7241   -1.7172   -0.8144 H   0  0  0  0  0  0  0  0  0  0  0  0
    7.4974   -3.8276    0.7082 H   0  0  0  0  0  0  0  0  0  0  0  0
    7.1425   -2.2830    1.4669 H   0  0  0  0  0  0  0  0  0  0  0  0
    6.1094   -4.3909    2.4684 H   0  0  0  0  0  0  0  0  0  0  0  0
    5.5419   -2.3140    3.3580 H   0  0  0  0  0  0  0  0  0  0  0  0
    4.8646   -0.7666    1.7297 H   0  0  0  0  0  0  0  0  0  0  0  0
    3.7071   -1.8717    1.0071 H   0  0  0  0  0  0  0  0  0  0  0  0
    3.3431   -0.2451    3.4870 H   0  0  0  0  0  0  0  0  0  0  0  0
    2.1344   -0.7529    2.2904 H   0  0  0  0  0  0  0  0  0  0  0  0
    4.1666   -3.6287    4.5169 H   0  0  0  0  0  0  0  0  0  0  0  0
    3.0807   -4.7933    5.8361 H   0  0  0  0  0  0  0  0  0  0  0  0
    1.7658   -4.7468    7.9278 H   0  0  0  0  0  0  0  0  0  0  0  0
   -0.6417   -5.4731    7.8631 H   0  0  0  0  0  0  0  0  0  0  0  0
   -1.6101   -6.1766    5.6617 H   0  0  0  0  0  0  0  0  0  0  0  0
    5.3403   -5.6141    0.7561 H   0  0  0  0  0  0  0  0  0  0  0  0
  1  2  1  0
  1 29  1  0
  1 30  1  0
  1 31  1  0
  2  7  1  0
  2  3  1  6
  2  4  1  0
  3 32  1  0
  4  5  1  0
  4 33  1  0
  4 34  1  0
  5  6  1  0
  5 35  1  0
  5 36  1  0
  6 28  1  0
  6  7  1  0
  6 37  1  6
  7  8  2  0
  8  9  1  0
  8 38  1  0
  9 10  1  0
  9 39  1  0
  9 40  1  0
 10 28  1  0
 10 11  1  0
 10 41  1  1
 11 16  1  0
 11 12  1  0
 11 42  1  1
 12 13  1  0
 12 43  1  0
 12 44  1  0
 13 14  1  0
 13 45  1  0
 13 46  1  0
 14 15  2  0
 14 16  1  0
 16 17  1  0
 16 47  1  1
 17 21  1  0
 17 18  2  0
 18 19  1  0
 18 28  1  0
 19 20  2  0
 20 21  1  0
 21 22  1  0
 22 27  1  0
 22 23  2  0
 23 24  1  0
 23 48  1  0
 24 25  2  0
 24 49  1  0
 25 26  1  0
 25 50  1  0
 26 27  2  0
 26 51  1  0
 28 52  1  6
M  END
>  <i_m_ct_stereo_status>  (362) 
1

>  <s_m_source_file>  (362) 
/var/tmp/pbs.5076255.sched01/tmppj12hgr0/126t4bdxmoi.sdf

>  <i_m_source_file_index>  (362) 
38

>  <i_lp_mmshare_version>  (362) 
48012

>  <i_f3d_flags>  (362) 
0

>  <s_epik_input>  (362) 
W0NIMl0xW0NIMl1bQ0BAXShbQ0gzXSkoW09IXSlDKFtDQEhdMTIpPVtDSF1bQ0gyXVtDQEhdM1tDQEBIXTRbQ0BASF0oQyg9TylbQ0gyXVtDSDJdNCljNWMoW0NAQEhdMjMpbm5uNS1jNltjSF1bY0hdW2NIXVtjSF1uNg==

>  <s_epik_cmdline>  (362) 
J2VwaWtfcHl0aG9uJywgJy1waHQnLCAnMi4wJywgJy1waCcsICc3LjAnLCAnLXRuJywgJzgnLCAnLW1hJywgJzIwMCcsICctaW1hZScsICc8aW5maWxlLm1hZT4nLCAnLW9tYWUnLCAnPG91dGZpbGUubWFlPic=

>  <r_lp_tautomer_probability>  (362) 
1

>  <r_epik_Ionization_Penalty>  (362) 
3.14572e-05

>  <r_epik_Ionization_Penalty_Charging>  (362) 
0

>  <r_epik_Ionization_Penalty_Neutral>  (362) 
3.14572e-05

>  <r_epik_State_Penalty>  (362) 
-0

>  <r_epik_Charging_Adjusted_Penalty>  (362) 
0

>  <i_epik_Tot_Q>  (362) 
0

>  <i_epik_Tot_abs_Q>  (362) 
0

>  <s_lp_Force_Field>  (362) 
OPLS3e

>  <r_lp_Energy>  (362) 
37.4272

>  <b_lp_Chiralities_Consistent>  (362) 
1

>  <s_lp_Variant>  (362) 
116:0-1

>  <s_i_glide_gridfile>  (362) 
pfpi4k_grid

>  <i_i_glide_lignum>  (362) 
38

>  <i_i_glide_rotatable_bonds>  (362) 
2

>  <r_i_docking_score>  (362) 
-2.80576

>  <r_i_glide_ligand_efficiency>  (362) 
-0.100206

>  <r_i_glide_ligand_efficiency_sa>  (362) 
-0.304283

>  <r_i_glide_ligand_efficiency_ln>  (362) 
-0.647651

>  <r_i_glide_gscore>  (362) 
-2.80576

>  <r_i_glide_lipo>  (362) 
-0.542952

>  <r_i_glide_hbond>  (362) 
0

>  <r_i_glide_metal>  (362) 
-0

>  <r_i_glide_rewards>  (362) 
-0.842376

>  <r_i_glide_evdw>  (362) 
-27.2229

>  <r_i_glide_ecoul>  (362) 
-1.18128

>  <r_i_glide_erotb>  (362) 
0.136596

>  <r_i_glide_esite>  (362) 
-0.0186886

>  <r_i_glide_emodel>  (362) 
-33.8626

>  <r_i_glide_energy>  (362) 
-28.4042

>  <r_i_glide_einternal>  (362) 
0.626353

>  <r_i_glide_intrahb_reward>  (362) 
-0

>  <i_i_glide_confnum>  (362) 
6

>  <i_i_glide_posenum>  (362) 
33

>  <r_i_glide_eff_state_penalty>  (362) 
0

>  <ligand_id>  (362) 
116

>  <original_smiles>  (362) 
CC1(O)CCC2C1=CCC1C3CCC(=O)C3c3c(nnn3-c3ccccn3)C21

>  <smiles>  (362) 
[H]OC1(C([H])([H])[H])C2=C([H])C([H])([H])C3([H])C([H])(c4nnn(-c5nc([H])c([H])c([H])c5[H])c4C4([H])C(=O)C([H])([H])C([H])([H])C43[H])C2([H])C([H])([H])C1([H])[H]

$$$$
117:0:0
     RDKit          3D

 54 58  0  0  1  0  0  0  0  0999 V2000
    7.5956   -6.0393    1.4635 C   0  0  0  0  0  0  0  0  0  0  0  0
    6.5836   -5.2343    2.0655 O   0  0  0  0  0  0  0  0  0  0  0  0
    5.8675   -4.2632    1.2820 C   0  0  1  0  0  0  0  0  0  0  0  0
    6.9717   -3.3746    0.6330 C   0  0  0  0  0  0  0  0  0  0  0  0
    6.5110   -2.2319   -0.2643 C   0  0  0  0  0  0  0  0  0  0  0  0
    6.6492   -2.2821   -1.4859 O   0  0  0  0  0  0  0  0  0  0  0  0
    5.9444   -0.9806    0.3918 C   0  0  0  0  0  0  0  0  0  0  0  0
    4.5023   -1.1449    0.9023 C   0  0  0  0  0  0  0  0  0  0  0  0
    4.3676   -2.0505    2.1292 C   0  0  1  0  0  0  0  0  0  0  0  0
    4.1646   -1.1503    3.3482 C   0  0  0  0  0  0  0  0  0  0  0  0
    5.2965   -0.3345    3.5915 O   0  0  0  0  0  0  0  0  0  0  0  0
    3.4981   -3.3034    2.0944 C   0  0  1  0  0  0  0  0  0  0  0  0
    2.9230   -4.1331    0.9420 C   0  0  1  0  0  0  0  0  0  0  0  0
    3.8415   -4.1686   -0.2880 C   0  0  0  0  0  0  0  0  0  0  0  0
    5.0127   -5.0348    0.2007 C   0  0  2  0  0  0  0  0  0  0  0  0
    4.1465   -6.2334    0.6584 C   0  0  1  0  0  0  0  0  0  0  0  0
    4.6525   -7.4893    1.3826 C   0  0  0  0  0  0  0  0  0  0  0  0
    3.4883   -8.5051    1.4555 C   0  0  0  0  0  0  0  0  0  0  0  0
    2.1320   -7.9019    1.9233 C   0  0  0  0  0  0  0  0  0  0  0  0
    1.7620   -6.5402    1.2727 C   0  0  0  0  0  0  0  0  0  0  0  0
    2.9687   -5.6125    1.4130 C   0  0  2  0  0  0  0  0  0  0  0  0
    4.9954   -3.4612    2.3116 C   0  0  1  0  0  0  0  0  0  0  0  0
    5.3877   -3.6385    3.6799 O   0  0  0  0  0  0  0  0  0  0  0  0
    4.8214   -4.7558    4.3627 C   0  0  0  0  0  0  0  0  0  0  0  0
    7.7907   -6.8898    2.1188 H   0  0  0  0  0  0  0  0  0  0  0  0
    8.5340   -5.4954    1.3486 H   0  0  0  0  0  0  0  0  0  0  0  0
    7.2976   -6.4344    0.4942 H   0  0  0  0  0  0  0  0  0  0  0  0
    7.5938   -2.9494    1.4140 H   0  0  0  0  0  0  0  0  0  0  0  0
    7.6328   -3.9820    0.0142 H   0  0  0  0  0  0  0  0  0  0  0  0
    6.6132   -0.6592    1.1928 H   0  0  0  0  0  0  0  0  0  0  0  0
    5.9520   -0.1961   -0.3650 H   0  0  0  0  0  0  0  0  0  0  0  0
    4.1521   -0.1423    1.1653 H   0  0  0  0  0  0  0  0  0  0  0  0
    3.7999   -1.4161    0.1225 H   0  0  0  0  0  0  0  0  0  0  0  0
    3.2844   -0.5248    3.1802 H   0  0  0  0  0  0  0  0  0  0  0  0
    3.9533   -1.7397    4.2405 H   0  0  0  0  0  0  0  0  0  0  0  0
    6.0270   -0.9004    3.7906 H   0  0  0  0  0  0  0  0  0  0  0  0
    2.8412   -3.3691    2.9542 H   0  0  0  0  0  0  0  0  0  0  0  0
    1.9171   -3.7805    0.7010 H   0  0  0  0  0  0  0  0  0  0  0  0
    3.3169   -4.6485   -1.1156 H   0  0  0  0  0  0  0  0  0  0  0  0
    4.1278   -3.2188   -0.7060 H   0  0  0  0  0  0  0  0  0  0  0  0
    5.6416   -5.3294   -0.6394 H   0  0  0  0  0  0  0  0  0  0  0  0
    3.7841   -6.6380   -0.2889 H   0  0  0  0  0  0  0  0  0  0  0  0
    5.4932   -7.9403    0.8543 H   0  0  0  0  0  0  0  0  0  0  0  0
    4.9986   -7.2740    2.3900 H   0  0  0  0  0  0  0  0  0  0  0  0
    3.3610   -8.9670    0.4807 H   0  0  0  0  0  0  0  0  0  0  0  0
    3.7650   -9.3254    2.1154 H   0  0  0  0  0  0  0  0  0  0  0  0
    1.3351   -8.6225    1.7435 H   0  0  0  0  0  0  0  0  0  0  0  0
    2.1734   -7.7638    3.0037 H   0  0  0  0  0  0  0  0  0  0  0  0
    1.4791   -6.6529    0.2252 H   0  0  0  0  0  0  0  0  0  0  0  0
    0.8973   -6.1154    1.7864 H   0  0  0  0  0  0  0  0  0  0  0  0
    3.1787   -5.6229    2.4788 H   0  0  0  0  0  0  0  0  0  0  0  0
    5.2983   -4.8691    5.3348 H   0  0  0  0  0  0  0  0  0  0  0  0
    4.9812   -5.6880    3.8264 H   0  0  0  0  0  0  0  0  0  0  0  0
    3.7505   -4.6396    4.5396 H   0  0  0  0  0  0  0  0  0  0  0  0
  1  2  1  0
  1 25  1  0
  1 26  1  0
  1 27  1  0
  3  2  1  1
  3 15  1  0
  3 22  1  0
  3  4  1  0
  4  5  1  0
  4 28  1  0
  4 29  1  0
  5  6  2  0
  5  7  1  0
  7  8  1  0
  7 30  1  0
  7 31  1  0
  8  9  1  0
  8 32  1  0
  8 33  1  0
  9 22  1  0
  9 10  1  1
  9 12  1  0
 10 11  1  0
 10 34  1  0
 10 35  1  0
 11 36  1  0
 12 13  1  0
 12 22  1  0
 12 37  1  1
 13 21  1  0
 13 14  1  0
 13 38  1  6
 14 15  1  0
 14 39  1  0
 14 40  1  0
 15 16  1  0
 15 41  1  6
 16 21  1  0
 16 17  1  0
 16 42  1  6
 17 18  1  0
 17 43  1  0
 17 44  1  0
 18 19  1  0
 18 45  1  0
 18 46  1  0
 19 20  1  0
 19 47  1  0
 19 48  1  0
 20 21  1  0
 20 49  1  0
 20 50  1  0
 21 51  1  1
 22 23  1  1
 23 24  1  0
 24 52  1  0
 24 53  1  0
 24 54  1  0
M  END
>  <i_m_ct_stereo_status>  (363) 
1

>  <s_m_source_file>  (363) 
/var/tmp/pbs.5076255.sched01/tmppj12hgr0/126t4bdxmoi.sdf

>  <i_m_source_file_index>  (363) 
39

>  <i_lp_mmshare_version>  (363) 
48012

>  <i_f3d_flags>  (363) 
0

>  <s_epik_input>  (363) 
W0NIM11PW0NAXTEyW0NASF0zW0NAQEhdNFtDQEhdKFtDSDJdW0NIMl1bQ0gyXVtDSDJdNClbQ0BIXShbQ0gyXTMpW0NAQEhdNVtDQEBdKFtDSDJdW09IXSkoW0NAXTI1T1tDSDNdKVtDSDJdW0NIMl1DKD1PKVtDSDJdMQ==

>  <s_epik_cmdline>  (363) 
J2VwaWtfcHl0aG9uJywgJy1waHQnLCAnMi4wJywgJy1waCcsICc3LjAnLCAnLXRuJywgJzgnLCAnLW1hJywgJzIwMCcsICctaW1hZScsICc8aW5maWxlLm1hZT4nLCAnLW9tYWUnLCAnPG91dGZpbGUubWFlPic=

>  <r_lp_tautomer_probability>  (363) 
1

>  <r_epik_Ionization_Penalty>  (363) 
1.51785e-07

>  <r_epik_Ionization_Penalty_Charging>  (363) 
0

>  <r_epik_Ionization_Penalty_Neutral>  (363) 
1.51785e-07

>  <r_epik_State_Penalty>  (363) 
-0

>  <r_epik_Charging_Adjusted_Penalty>  (363) 
0

>  <i_epik_Tot_Q>  (363) 
0

>  <i_epik_Tot_abs_Q>  (363) 
0

>  <s_lp_Force_Field>  (363) 
OPLS3e

>  <r_lp_Energy>  (363) 
74.3748

>  <b_lp_Chiralities_Consistent>  (363) 
1

>  <s_lp_Variant>  (363) 
117:0-1

>  <s_i_glide_gridfile>  (363) 
pfpi4k_grid

>  <i_i_glide_lignum>  (363) 
39

>  <i_i_glide_rotatable_bonds>  (363) 
4

>  <r_i_docking_score>  (363) 
-3.06543

>  <r_i_glide_ligand_efficiency>  (363) 
-0.127726

>  <r_i_glide_ligand_efficiency_sa>  (363) 
-0.368427

>  <r_i_glide_ligand_efficiency_ln>  (363) 
-0.733699

>  <r_i_glide_gscore>  (363) 
-3.06543

>  <r_i_glide_lipo>  (363) 
-0.667267

>  <r_i_glide_hbond>  (363) 
-0.16

>  <r_i_glide_metal>  (363) 
-0

>  <r_i_glide_rewards>  (363) 
-1.12875

>  <r_i_glide_evdw>  (363) 
-19.3497

>  <r_i_glide_ecoul>  (363) 
-1.94043

>  <r_i_glide_erotb>  (363) 
0.168615

>  <r_i_glide_esite>  (363) 
-0.019483

>  <r_i_glide_emodel>  (363) 
-24.23

>  <r_i_glide_energy>  (363) 
-21.2901

>  <r_i_glide_einternal>  (363) 
1.35873

>  <r_i_glide_intrahb_reward>  (363) 
-0

>  <i_i_glide_confnum>  (363) 
4

>  <i_i_glide_posenum>  (363) 
34

>  <r_i_glide_eff_state_penalty>  (363) 
0

>  <ligand_id>  (363) 
117

>  <original_smiles>  (363) 
COC12CC(=O)CCC3(CO)C(C4CC1C1CCCCC14)C32OC

>  <smiles>  (363) 
[H]OC([H])([H])C12C([H])([H])C([H])([H])C(=O)C([H])([H])C3(OC([H])([H])[H])C4([H])C([H])([H])C([H])(C5([H])C([H])([H])C([H])([H])C([H])([H])C([H])([H])C54[H])C1([H])C32OC([H])([H])[H]

$$$$
117:0:1
     RDKit          3D

 54 58  0  0  1  0  0  0  0  0999 V2000
    6.5501   -5.4662    2.9443 C   0  0  0  0  0  0  0  0  0  0  0  0
    5.4778   -4.5260    3.0510 O   0  0  0  0  0  0  0  0  0  0  0  0
    5.0734   -3.7485    1.9127 C   0  0  1  0  0  0  0  0  0  0  0  0
    6.3265   -2.8723    1.6144 C   0  0  0  0  0  0  0  0  0  0  0  0
    6.2504   -1.9067    0.4353 C   0  0  0  0  0  0  0  0  0  0  0  0
    6.8527   -2.1289   -0.6163 O   0  0  0  0  0  0  0  0  0  0  0  0
    5.4531   -0.6228    0.6087 C   0  0  0  0  0  0  0  0  0  0  0  0
    3.9250   -0.8188    0.5394 C   0  0  0  0  0  0  0  0  0  0  0  0
    3.3118   -1.5534    1.7310 C   0  0  1  0  0  0  0  0  0  0  0  0
    2.6224   -0.4997    2.5899 C   0  0  0  0  0  0  0  0  0  0  0  0
    1.3651   -0.1347    2.0404 O   0  0  0  0  0  0  0  0  0  0  0  0
    2.5716   -2.8708    1.5629 C   0  0  1  0  0  0  0  0  0  0  0  0
    2.5056   -3.8835    0.4281 C   0  0  1  0  0  0  0  0  0  0  0  0
    3.8431   -4.0175   -0.3045 C   0  0  0  0  0  0  0  0  0  0  0  0
    4.7216   -4.7288    0.7237 C   0  0  2  0  0  0  0  0  0  0  0  0
    3.7434   -5.9092    0.9883 C   0  0  1  0  0  0  0  0  0  0  0  0
    3.9274   -7.0277    2.0353 C   0  0  0  0  0  0  0  0  0  0  0  0
    2.8390   -8.0921    1.8097 C   0  0  0  0  0  0  0  0  0  0  0  0
    1.4098   -7.5182    1.6457 C   0  0  0  0  0  0  0  0  0  0  0  0
    1.2984   -6.2997    0.6972 C   0  0  0  0  0  0  0  0  0  0  0  0
    2.3577   -5.2720    1.1111 C   0  0  2  0  0  0  0  0  0  0  0  0
    3.8616   -2.8764    2.3623 C   0  0  1  0  0  0  0  0  0  0  0  0
    3.6861   -2.8243    3.7914 O   0  0  0  0  0  0  0  0  0  0  0  0
    2.8966   -3.8573    4.3807 C   0  0  0  0  0  0  0  0  0  0  0  0
    6.4329   -6.1667    3.7757 H   0  0  0  0  0  0  0  0  0  0  0  0
    7.5407   -5.0571    3.0131 H   0  0  0  0  0  0  0  0  0  0  0  0
    6.5274   -6.0449    2.0265 H   0  0  0  0  0  0  0  0  0  0  0  0
    6.5598   -2.2703    2.4879 H   0  0  0  0  0  0  0  0  0  0  0  0
    7.1939   -3.5077    1.4322 H   0  0  0  0  0  0  0  0  0  0  0  0
    5.7450   -0.1429    1.5442 H   0  0  0  0  0  0  0  0  0  0  0  0
    5.7553    0.0452   -0.1993 H   0  0  0  0  0  0  0  0  0  0  0  0
    3.4986    0.1834    0.4955 H   0  0  0  0  0  0  0  0  0  0  0  0
    3.5865   -1.2407   -0.4060 H   0  0  0  0  0  0  0  0  0  0  0  0
    2.4341   -0.8723    3.5955 H   0  0  0  0  0  0  0  0  0  0  0  0
    3.2698    0.3746    2.7029 H   0  0  0  0  0  0  0  0  0  0  0  0
    1.4082   -0.1343    1.0931 H   0  0  0  0  0  0  0  0  0  0  0  0
    1.6289   -2.8503    2.0982 H   0  0  0  0  0  0  0  0  0  0  0  0
    1.7311   -3.6355   -0.2972 H   0  0  0  0  0  0  0  0  0  0  0  0
    3.7082   -4.6505   -1.1789 H   0  0  0  0  0  0  0  0  0  0  0  0
    4.2590   -3.1224   -0.7339 H   0  0  0  0  0  0  0  0  0  0  0  0
    5.6355   -5.0806    0.2390 H   0  0  0  0  0  0  0  0  0  0  0  0
    3.7793   -6.4627    0.0479 H   0  0  0  0  0  0  0  0  0  0  0  0
    4.8806   -7.5472    1.9425 H   0  0  0  0  0  0  0  0  0  0  0  0
    3.8499   -6.6553    3.0562 H   0  0  0  0  0  0  0  0  0  0  0  0
    3.1078   -8.6698    0.9223 H   0  0  0  0  0  0  0  0  0  0  0  0
    2.8567   -8.7922    2.6490 H   0  0  0  0  0  0  0  0  0  0  0  0
    0.7534   -8.3134    1.2971 H   0  0  0  0  0  0  0  0  0  0  0  0
    1.0390   -7.2299    2.6316 H   0  0  0  0  0  0  0  0  0  0  0  0
    1.4287   -6.5961   -0.3333 H   0  0  0  0  0  0  0  0  0  0  0  0
    0.2815   -5.9364    0.7698 H   0  0  0  0  0  0  0  0  0  0  0  0
    2.1449   -5.1034    2.1618 H   0  0  0  0  0  0  0  0  0  0  0  0
    2.9515   -3.7859    5.4638 H   0  0  0  0  0  0  0  0  0  0  0  0
    3.2578   -4.8436    4.1142 H   0  0  0  0  0  0  0  0  0  0  0  0
    1.8423   -3.7851    4.1075 H   0  0  0  0  0  0  0  0  0  0  0  0
  1  2  1  0
  1 25  1  0
  1 26  1  0
  1 27  1  0
  3  2  1  1
  3 15  1  0
  3 22  1  0
  3  4  1  0
  4  5  1  0
  4 28  1  0
  4 29  1  0
  5  6  2  0
  5  7  1  0
  7  8  1  0
  7 30  1  0
  7 31  1  0
  8  9  1  0
  8 32  1  0
  8 33  1  0
  9 22  1  0
  9 10  1  1
  9 12  1  0
 10 11  1  0
 10 34  1  0
 10 35  1  0
 11 36  1  0
 12 13  1  0
 12 22  1  0
 12 37  1  1
 13 21  1  0
 13 14  1  0
 13 38  1  6
 14 15  1  0
 14 39  1  0
 14 40  1  0
 15 16  1  0
 15 41  1  6
 16 21  1  0
 16 17  1  0
 16 42  1  6
 17 18  1  0
 17 43  1  0
 17 44  1  0
 18 19  1  0
 18 45  1  0
 18 46  1  0
 19 20  1  0
 19 47  1  0
 19 48  1  0
 20 21  1  0
 20 49  1  0
 20 50  1  0
 21 51  1  1
 22 23  1  1
 23 24  1  0
 24 52  1  0
 24 53  1  0
 24 54  1  0
M  END
>  <i_m_ct_stereo_status>  (364) 
1

>  <s_m_source_file>  (364) 
/var/tmp/pbs.5076255.sched01/tmppj12hgr0/126t4bdxmoi.sdf

>  <i_m_source_file_index>  (364) 
39

>  <i_lp_mmshare_version>  (364) 
48012

>  <i_f3d_flags>  (364) 
0

>  <s_epik_input>  (364) 
W0NIM11PW0NAXTEyW0NASF0zW0NAQEhdNFtDQEhdKFtDSDJdW0NIMl1bQ0gyXVtDSDJdNClbQ0BIXShbQ0gyXTMpW0NAQEhdNVtDQEBdKFtDSDJdW09IXSkoW0NAXTI1T1tDSDNdKVtDSDJdW0NIMl1DKD1PKVtDSDJdMQ==

>  <s_epik_cmdline>  (364) 
J2VwaWtfcHl0aG9uJywgJy1waHQnLCAnMi4wJywgJy1waCcsICc3LjAnLCAnLXRuJywgJzgnLCAnLW1hJywgJzIwMCcsICctaW1hZScsICc8aW5maWxlLm1hZT4nLCAnLW9tYWUnLCAnPG91dGZpbGUubWFlPic=

>  <r_lp_tautomer_probability>  (364) 
1

>  <r_epik_Ionization_Penalty>  (364) 
1.51785e-07

>  <r_epik_Ionization_Penalty_Charging>  (364) 
0

>  <r_epik_Ionization_Penalty_Neutral>  (364) 
1.51785e-07

>  <r_epik_State_Penalty>  (364) 
-0

>  <r_epik_Charging_Adjusted_Penalty>  (364) 
0

>  <i_epik_Tot_Q>  (364) 
0

>  <i_epik_Tot_abs_Q>  (364) 
0

>  <s_lp_Force_Field>  (364) 
OPLS3e

>  <r_lp_Energy>  (364) 
74.3748

>  <b_lp_Chiralities_Consistent>  (364) 
1

>  <s_lp_Variant>  (364) 
117:0-1

>  <s_i_glide_gridfile>  (364) 
pfpi4k_grid

>  <i_i_glide_lignum>  (364) 
39

>  <i_i_glide_rotatable_bonds>  (364) 
4

>  <r_i_docking_score>  (364) 
-2.96077

>  <r_i_glide_ligand_efficiency>  (364) 
-0.123365

>  <r_i_glide_ligand_efficiency_sa>  (364) 
-0.355847

>  <r_i_glide_ligand_efficiency_ln>  (364) 
-0.708647

>  <r_i_glide_gscore>  (364) 
-2.96077

>  <r_i_glide_lipo>  (364) 
-0.37458

>  <r_i_glide_hbond>  (364) 
-0.252327

>  <r_i_glide_metal>  (364) 
-0

>  <r_i_glide_rewards>  (364) 
-1.22859

>  <r_i_glide_evdw>  (364) 
-16.9832

>  <r_i_glide_ecoul>  (364) 
-2.83147

>  <r_i_glide_erotb>  (364) 
0.168615

>  <r_i_glide_esite>  (364) 
0

>  <r_i_glide_emodel>  (364) 
-21.2137

>  <r_i_glide_energy>  (364) 
-19.8147

>  <r_i_glide_einternal>  (364) 
3.25857

>  <r_i_glide_intrahb_reward>  (364) 
-0

>  <i_i_glide_confnum>  (364) 
2

>  <i_i_glide_posenum>  (364) 
20

>  <r_i_glide_eff_state_penalty>  (364) 
0

>  <ligand_id>  (364) 
117

>  <original_smiles>  (364) 
COC12CC(=O)CCC3(CO)C(C4CC1C1CCCCC14)C32OC

>  <smiles>  (364) 
[H]OC([H])([H])C12C([H])([H])C([H])([H])C(=O)C([H])([H])C3(OC([H])([H])[H])C4([H])C([H])([H])C([H])(C5([H])C([H])([H])C([H])([H])C([H])([H])C([H])([H])C54[H])C1([H])C32OC([H])([H])[H]

$$$$
117:0:2
     RDKit          3D

 54 58  0  0  1  0  0  0  0  0999 V2000
    7.3300   -5.2478    1.1264 C   0  0  0  0  0  0  0  0  0  0  0  0
    5.9091   -5.3127    0.9772 O   0  0  0  0  0  0  0  0  0  0  0  0
    5.1375   -4.1445    0.6296 C   0  0  1  0  0  0  0  0  0  0  0  0
    5.9378   -3.4601   -0.5165 C   0  0  0  0  0  0  0  0  0  0  0  0
    5.2914   -2.3007   -1.2521 C   0  0  0  0  0  0  0  0  0  0  0  0
    4.9036   -2.4129   -2.4144 O   0  0  0  0  0  0  0  0  0  0  0  0
    5.2415   -0.9645   -0.5342 C   0  0  0  0  0  0  0  0  0  0  0  0
    4.1550   -0.8702    0.5484 C   0  0  0  0  0  0  0  0  0  0  0  0
    4.4082   -1.7074    1.8118 C   0  0  1  0  0  0  0  0  0  0  0  0
    4.8683   -0.7505    2.9213 C   0  0  0  0  0  0  0  0  0  0  0  0
    3.8413    0.1337    3.3234 O   0  0  0  0  0  0  0  0  0  0  0  0
    3.4660   -2.8248    2.2520 C   0  0  1  0  0  0  0  0  0  0  0  0
    2.3556   -3.5676    1.5267 C   0  0  1  0  0  0  0  0  0  0  0  0
    2.6553   -3.7799    0.0231 C   0  0  0  0  0  0  0  0  0  0  0  0
    3.8126   -4.7905    0.0774 C   0  0  2  0  0  0  0  0  0  0  0  0
    3.0501   -5.8312    0.9383 C   0  0  1  0  0  0  0  0  0  0  0  0
    3.6288   -7.1492    1.4897 C   0  0  0  0  0  0  0  0  0  0  0  0
    2.4611   -7.9596    2.1195 C   0  0  0  0  0  0  0  0  0  0  0  0
    1.5404   -7.1370    3.0658 C   0  0  0  0  0  0  0  0  0  0  0  0
    1.1140   -5.7556    2.5020 C   0  0  0  0  0  0  0  0  0  0  0  0
    2.3775   -5.0219    2.0533 C   0  0  2  0  0  0  0  0  0  0  0  0
    4.8728   -3.1969    1.8434 C   0  0  1  0  0  0  0  0  0  0  0  0
    5.7279   -3.4240    2.9491 O   0  0  0  0  0  0  0  0  0  0  0  0
    5.3721   -4.4351    3.8833 C   0  0  0  0  0  0  0  0  0  0  0  0
    7.6945   -6.2304    1.4223 H   0  0  0  0  0  0  0  0  0  0  0  0
    7.6364   -4.5423    1.8916 H   0  0  0  0  0  0  0  0  0  0  0  0
    7.8536   -5.0039    0.2018 H   0  0  0  0  0  0  0  0  0  0  0  0
    6.8677   -3.0525   -0.1302 H   0  0  0  0  0  0  0  0  0  0  0  0
    6.1937   -4.2101   -1.2600 H   0  0  0  0  0  0  0  0  0  0  0  0
    6.2254   -0.7451   -0.1090 H   0  0  0  0  0  0  0  0  0  0  0  0
    5.0490   -0.2252   -1.3058 H   0  0  0  0  0  0  0  0  0  0  0  0
    4.1000    0.1824    0.8103 H   0  0  0  0  0  0  0  0  0  0  0  0
    3.1584   -1.0471    0.1477 H   0  0  0  0  0  0  0  0  0  0  0  0
    5.1555   -1.3085    3.8112 H   0  0  0  0  0  0  0  0  0  0  0  0
    5.7477   -0.1985    2.5930 H   0  0  0  0  0  0  0  0  0  0  0  0
    3.6317    0.7184    2.6036 H   0  0  0  0  0  0  0  0  0  0  0  0
    3.2256   -2.7567    3.3085 H   0  0  0  0  0  0  0  0  0  0  0  0
    1.4268   -3.0374    1.7235 H   0  0  0  0  0  0  0  0  0  0  0  0
    1.7932   -4.2201   -0.4841 H   0  0  0  0  0  0  0  0  0  0  0  0
    2.8539   -2.8938   -0.5614 H   0  0  0  0  0  0  0  0  0  0  0  0
    4.0314   -5.2037   -0.9018 H   0  0  0  0  0  0  0  0  0  0  0  0
    2.2661   -6.1924    0.2659 H   0  0  0  0  0  0  0  0  0  0  0  0
    4.1099   -7.7249    0.6973 H   0  0  0  0  0  0  0  0  0  0  0  0
    4.3869   -6.9779    2.2490 H   0  0  0  0  0  0  0  0  0  0  0  0
    1.8543   -8.3841    1.3181 H   0  0  0  0  0  0  0  0  0  0  0  0
    2.8719   -8.8071    2.6699 H   0  0  0  0  0  0  0  0  0  0  0  0
    0.6482   -7.7223    3.2988 H   0  0  0  0  0  0  0  0  0  0  0  0
    2.0517   -6.9839    4.0206 H   0  0  0  0  0  0  0  0  0  0  0  0
    0.4182   -5.8948    1.6789 H   0  0  0  0  0  0  0  0  0  0  0  0
    0.6079   -5.1784    3.2746 H   0  0  0  0  0  0  0  0  0  0  0  0
    3.0138   -5.0501    2.9335 H   0  0  0  0  0  0  0  0  0  0  0  0
    6.1962   -4.6106    4.5723 H   0  0  0  0  0  0  0  0  0  0  0  0
    5.1824   -5.3761    3.3913 H   0  0  0  0  0  0  0  0  0  0  0  0
    4.5024   -4.1731    4.4868 H   0  0  0  0  0  0  0  0  0  0  0  0
  1  2  1  0
  1 25  1  0
  1 26  1  0
  1 27  1  0
  3  2  1  1
  3 15  1  0
  3 22  1  0
  3  4  1  0
  4  5  1  0
  4 28  1  0
  4 29  1  0
  5  6  2  0
  5  7  1  0
  7  8  1  0
  7 30  1  0
  7 31  1  0
  8  9  1  0
  8 32  1  0
  8 33  1  0
  9 22  1  0
  9 10  1  1
  9 12  1  0
 10 11  1  0
 10 34  1  0
 10 35  1  0
 11 36  1  0
 12 13  1  0
 12 22  1  0
 12 37  1  1
 13 21  1  0
 13 14  1  0
 13 38  1  6
 14 15  1  0
 14 39  1  0
 14 40  1  0
 15 16  1  0
 15 41  1  6
 16 21  1  0
 16 17  1  0
 16 42  1  6
 17 18  1  0
 17 43  1  0
 17 44  1  0
 18 19  1  0
 18 45  1  0
 18 46  1  0
 19 20  1  0
 19 47  1  0
 19 48  1  0
 20 21  1  0
 20 49  1  0
 20 50  1  0
 21 51  1  1
 22 23  1  1
 23 24  1  0
 24 52  1  0
 24 53  1  0
 24 54  1  0
M  END
>  <i_m_ct_stereo_status>  (365) 
1

>  <s_m_source_file>  (365) 
/var/tmp/pbs.5076255.sched01/tmppj12hgr0/126t4bdxmoi.sdf

>  <i_m_source_file_index>  (365) 
39

>  <i_lp_mmshare_version>  (365) 
48012

>  <i_f3d_flags>  (365) 
0

>  <s_epik_input>  (365) 
W0NIM11PW0NAXTEyW0NASF0zW0NAQEhdNFtDQEhdKFtDSDJdW0NIMl1bQ0gyXVtDSDJdNClbQ0BIXShbQ0gyXTMpW0NAQEhdNVtDQEBdKFtDSDJdW09IXSkoW0NAXTI1T1tDSDNdKVtDSDJdW0NIMl1DKD1PKVtDSDJdMQ==

>  <s_epik_cmdline>  (365) 
J2VwaWtfcHl0aG9uJywgJy1waHQnLCAnMi4wJywgJy1waCcsICc3LjAnLCAnLXRuJywgJzgnLCAnLW1hJywgJzIwMCcsICctaW1hZScsICc8aW5maWxlLm1hZT4nLCAnLW9tYWUnLCAnPG91dGZpbGUubWFlPic=

>  <r_lp_tautomer_probability>  (365) 
1

>  <r_epik_Ionization_Penalty>  (365) 
1.51785e-07

>  <r_epik_Ionization_Penalty_Charging>  (365) 
0

>  <r_epik_Ionization_Penalty_Neutral>  (365) 
1.51785e-07

>  <r_epik_State_Penalty>  (365) 
-0

>  <r_epik_Charging_Adjusted_Penalty>  (365) 
0

>  <i_epik_Tot_Q>  (365) 
0

>  <i_epik_Tot_abs_Q>  (365) 
0

>  <s_lp_Force_Field>  (365) 
OPLS3e

>  <r_lp_Energy>  (365) 
74.3748

>  <b_lp_Chiralities_Consistent>  (365) 
1

>  <s_lp_Variant>  (365) 
117:0-1

>  <s_i_glide_gridfile>  (365) 
pfpi4k_grid

>  <i_i_glide_lignum>  (365) 
39

>  <i_i_glide_rotatable_bonds>  (365) 
4

>  <r_i_docking_score>  (365) 
-2.54164

>  <r_i_glide_ligand_efficiency>  (365) 
-0.105902

>  <r_i_glide_ligand_efficiency_sa>  (365) 
-0.305473

>  <r_i_glide_ligand_efficiency_ln>  (365) 
-0.608331

>  <r_i_glide_gscore>  (365) 
-2.54164

>  <r_i_glide_lipo>  (365) 
-0.490422

>  <r_i_glide_hbond>  (365) 
0

>  <r_i_glide_metal>  (365) 
-0

>  <r_i_glide_rewards>  (365) 
-1.12875

>  <r_i_glide_evdw>  (365) 
-18.1929

>  <r_i_glide_ecoul>  (365) 
-1.05327

>  <r_i_glide_erotb>  (365) 
0.168615

>  <r_i_glide_esite>  (365) 
-0.0234457

>  <r_i_glide_emodel>  (365) 
-19.6817

>  <r_i_glide_energy>  (365) 
-19.2461

>  <r_i_glide_einternal>  (365) 
4.73053

>  <r_i_glide_intrahb_reward>  (365) 
-0

>  <i_i_glide_confnum>  (365) 
2

>  <i_i_glide_posenum>  (365) 
21

>  <r_i_glide_eff_state_penalty>  (365) 
0

>  <ligand_id>  (365) 
117

>  <original_smiles>  (365) 
COC12CC(=O)CCC3(CO)C(C4CC1C1CCCCC14)C32OC

>  <smiles>  (365) 
[H]OC([H])([H])C12C([H])([H])C([H])([H])C(=O)C([H])([H])C3(OC([H])([H])[H])C4([H])C([H])([H])C([H])(C5([H])C([H])([H])C([H])([H])C([H])([H])C([H])([H])C54[H])C1([H])C32OC([H])([H])[H]

$$$$
